MODEL 1
REMARK VINA RESULT:      -7.9      0.000      0.000
REMARK  Name = 
REMARK  4 active torsions:
REMARK  status: ('A' for Active; 'I' for Inactive)
REMARK    1  A    between atoms: C_2  and  C_10
REMARK    2  A    between atoms: C_15  and  O_16
REMARK    3  A    between atoms: O_16  and  C_17
REMARK    4  A    between atoms: C_17  and  C_18
REMARK                            x       y       z     vdW  Elec       q    Type
REMARK                         _______ _______ _______ _____ _____    ______ ____
ROOT
ATOM      1  C   UNL     1       4.446   5.852  17.643  0.00  0.00    +0.000 A 
ATOM      2  C   UNL     1       5.718   6.463  17.562  0.00  0.00    +0.000 A 
ATOM      3  C   UNL     1       6.789   5.822  16.936  0.00  0.00    +0.000 A 
ATOM      4  C   UNL     1       6.609   4.570  16.381  0.00  0.00    +0.000 A 
ATOM      5  C   UNL     1       5.346   3.982  16.395  0.00  0.00    +0.000 A 
ATOM      6  C   UNL     1       4.242   4.627  16.982  0.00  0.00    +0.000 A 
ENDROOT
BRANCH   1   8
ATOM      7  O   UNL     1       2.825   5.931  19.401  0.00  0.00    +0.000 OA
ATOM      8  C   UNL     1       3.359   6.517  18.466  0.00  0.00    +0.000 C 
ATOM      9  N   UNL     1       3.004   7.795  18.056  0.00  0.00    +0.000 N 
ATOM     10  C   UNL     1       1.950   8.539  18.579  0.00  0.00    +0.000 A 
ATOM     11  C   UNL     1       1.720   8.656  19.941  0.00  0.00    +0.000 A 
ATOM     12  C   UNL     1       0.649   9.442  20.362  0.00  0.00    +0.000 A 
ATOM     13  C   UNL     1      -0.177  10.035  19.414  0.00  0.00    +0.000 A 
ATOM     14  C   UNL     1       0.143   9.872  18.078  0.00  0.00    +0.000 A 
ATOM     15  N   UNL     1       1.219   9.181  17.644  0.00  0.00    +0.000 NA
ATOM     16  H   UNL     1       3.227   8.108  17.128  0.00  0.00    +0.000 HD
ENDBRANCH   1   8
BRANCH   6  17
ATOM     17  O   UNL     1       2.982   4.077  16.929  0.00  0.00    +0.000 OA
BRANCH  17  18
ATOM     18  C   UNL     1       2.868   2.747  17.460  0.00  0.00    +0.000 C 
BRANCH  18  19
ATOM     19  C   UNL     1       2.469   2.703  18.919  0.00  0.00    +0.000 A 
ATOM     20  C   UNL     1       3.411   2.504  19.935  0.00  0.00    +0.000 A 
ATOM     21  C   UNL     1       3.029   2.569  21.278  0.00  0.00    +0.000 A 
ATOM     22  C   UNL     1       1.706   2.845  21.619  0.00  0.00    +0.000 A 
ATOM     23  C   UNL     1       0.761   3.056  20.620  0.00  0.00    +0.000 A 
ATOM     24  C   UNL     1       1.140   2.991  19.278  0.00  0.00    +0.000 A 
ENDBRANCH  18  19
ENDBRANCH  17  18
ENDBRANCH   6  17
TORSDOF 4
ENDMDL
MODEL 2
REMARK VINA RESULT:      -7.7      0.106      1.011
REMARK  Name = 
REMARK  4 active torsions:
REMARK  status: ('A' for Active; 'I' for Inactive)
REMARK    1  A    between atoms: C_2  and  C_10
REMARK    2  A    between atoms: C_15  and  O_16
REMARK    3  A    between atoms: O_16  and  C_17
REMARK    4  A    between atoms: C_17  and  C_18
REMARK                            x       y       z     vdW  Elec       q    Type
REMARK                         _______ _______ _______ _____ _____    ______ ____
ROOT
ATOM      1  C   UNL     1       4.375   5.860  17.603  0.00  0.00    +0.000 A 
ATOM      2  C   UNL     1       5.648   6.465  17.502  0.00  0.00    +0.000 A 
ATOM      3  C   UNL     1       6.707   5.819  16.862  0.00  0.00    +0.000 A 
ATOM      4  C   UNL     1       6.514   4.566  16.313  0.00  0.00    +0.000 A 
ATOM      5  C   UNL     1       5.249   3.983  16.346  0.00  0.00    +0.000 A 
ATOM      6  C   UNL     1       4.157   4.634  16.948  0.00  0.00    +0.000 A 
ENDROOT
BRANCH   1   8
ATOM      7  O   UNL     1       2.773   5.947  19.378  0.00  0.00    +0.000 OA
ATOM      8  C   UNL     1       3.302   6.531  18.439  0.00  0.00    +0.000 C 
ATOM      9  N   UNL     1       2.953   7.813  18.037  0.00  0.00    +0.000 N 
ATOM     10  C   UNL     1       1.912   8.564  18.574  0.00  0.00    +0.000 A 
ATOM     11  C   UNL     1       1.697   8.679  19.939  0.00  0.00    +0.000 A 
ATOM     12  C   UNL     1       0.637   9.472  20.374  0.00  0.00    +0.000 A 
ATOM     13  C   UNL     1      -0.194  10.075  19.437  0.00  0.00    +0.000 A 
ATOM     14  C   UNL     1       0.110   9.914  18.097  0.00  0.00    +0.000 A 
ATOM     15  N   UNL     1       1.176   9.216  17.649  0.00  0.00    +0.000 NA
ATOM     16  H   UNL     1       3.169   8.128  17.108  0.00  0.00    +0.000 HD
ENDBRANCH   1   8
BRANCH   6  17
ATOM     17  O   UNL     1       2.894   4.089  16.914  0.00  0.00    +0.000 OA
BRANCH  17  18
ATOM     18  C   UNL     1       2.769   2.789  17.514  0.00  0.00    +0.000 C 
BRANCH  18  19
ATOM     19  C   UNL     1       2.418   2.825  18.985  0.00  0.00    +0.000 A 
ATOM     20  C   UNL     1       1.102   3.011  19.425  0.00  0.00    +0.000 A 
ATOM     21  C   UNL     1       0.794   2.940  20.786  0.00  0.00    +0.000 A 
ATOM     22  C   UNL     1       1.793   2.670  21.720  0.00  0.00    +0.000 A 
ATOM     23  C   UNL     1       3.104   2.472  21.296  0.00  0.00    +0.000 A 
ATOM     24  C   UNL     1       3.415   2.544  19.937  0.00  0.00    +0.000 A 
ENDBRANCH  18  19
ENDBRANCH  17  18
ENDBRANCH   6  17
TORSDOF 4
ENDMDL
MODEL 3
REMARK VINA RESULT:      -7.6      1.442      5.424
REMARK  Name = 
REMARK  4 active torsions:
REMARK  status: ('A' for Active; 'I' for Inactive)
REMARK    1  A    between atoms: C_2  and  C_10
REMARK    2  A    between atoms: C_15  and  O_16
REMARK    3  A    between atoms: O_16  and  C_17
REMARK    4  A    between atoms: C_17  and  C_18
REMARK                            x       y       z     vdW  Elec       q    Type
REMARK                         _______ _______ _______ _____ _____    ______ ____
ROOT
ATOM      1  C   UNL     1       2.330   7.701  18.699  0.00  0.00    +0.000 A 
ATOM      2  C   UNL     1       1.946   8.916  18.087  0.00  0.00    +0.000 A 
ATOM      3  C   UNL     1       1.142   9.841  18.756  0.00  0.00    +0.000 A 
ATOM      4  C   UNL     1       0.711   9.571  20.040  0.00  0.00    +0.000 A 
ATOM      5  C   UNL     1       1.133   8.409  20.683  0.00  0.00    +0.000 A 
ATOM      6  C   UNL     1       1.978   7.483  20.044  0.00  0.00    +0.000 A 
ENDROOT
BRANCH   1   8
ATOM      7  O   UNL     1       2.488   5.698  17.401  0.00  0.00    +0.000 OA
ATOM      8  C   UNL     1       3.072   6.663  17.880  0.00  0.00    +0.000 C 
ATOM      9  N   UNL     1       4.439   6.874  17.755  0.00  0.00    +0.000 N 
ATOM     10  C   UNL     1       5.333   5.989  17.160  0.00  0.00    +0.000 A 
ATOM     11  C   UNL     1       5.079   5.370  15.946  0.00  0.00    +0.000 A 
ATOM     12  C   UNL     1       6.050   4.516  15.426  0.00  0.00    +0.000 A 
ATOM     13  C   UNL     1       7.207   4.274  16.157  0.00  0.00    +0.000 A 
ATOM     14  C   UNL     1       7.378   4.951  17.351  0.00  0.00    +0.000 A 
ATOM     15  N   UNL     1       6.490   5.843  17.841  0.00  0.00    +0.000 NA
ATOM     16  H   UNL     1       4.918   7.476  18.400  0.00  0.00    +0.000 HD
ENDBRANCH   1   8
BRANCH   6  17
ATOM     17  O   UNL     1       2.452   6.374  20.706  0.00  0.00    +0.000 OA
BRANCH  17  18
ATOM     18  C   UNL     1       1.509   5.300  20.861  0.00  0.00    +0.000 C 
BRANCH  18  19
ATOM     19  C   UNL     1       1.906   4.030  20.141  0.00  0.00    +0.000 A 
ATOM     20  C   UNL     1       0.964   3.228  19.487  0.00  0.00    +0.000 A 
ATOM     21  C   UNL     1       1.372   2.116  18.746  0.00  0.00    +0.000 A 
ATOM     22  C   UNL     1       2.726   1.801  18.641  0.00  0.00    +0.000 A 
ATOM     23  C   UNL     1       3.676   2.595  19.276  0.00  0.00    +0.000 A 
ATOM     24  C   UNL     1       3.270   3.707  20.018  0.00  0.00    +0.000 A 
ENDBRANCH  18  19
ENDBRANCH  17  18
ENDBRANCH   6  17
TORSDOF 4
ENDMDL
MODEL 4
REMARK VINA RESULT:      -7.6      1.524      2.118
REMARK  Name = 
REMARK  4 active torsions:
REMARK  status: ('A' for Active; 'I' for Inactive)
REMARK    1  A    between atoms: C_2  and  C_10
REMARK    2  A    between atoms: C_15  and  O_16
REMARK    3  A    between atoms: O_16  and  C_17
REMARK    4  A    between atoms: C_17  and  C_18
REMARK                            x       y       z     vdW  Elec       q    Type
REMARK                         _______ _______ _______ _____ _____    ______ ____
ROOT
ATOM      1  C   UNL     1       4.894   5.971  16.807  0.00  0.00    +0.000 A 
ATOM      2  C   UNL     1       5.099   5.961  15.408  0.00  0.00    +0.000 A 
ATOM      3  C   UNL     1       5.936   5.019  14.806  0.00  0.00    +0.000 A 
ATOM      4  C   UNL     1       6.576   4.074  15.585  0.00  0.00    +0.000 A 
ATOM      5  C   UNL     1       6.335   4.029  16.957  0.00  0.00    +0.000 A 
ATOM      6  C   UNL     1       5.462   4.941  17.579  0.00  0.00    +0.000 A 
ENDROOT
BRANCH   1   8
ATOM      7  O   UNL     1       4.427   8.274  17.254  0.00  0.00    +0.000 OA
ATOM      8  C   UNL     1       4.103   7.105  17.429  0.00  0.00    +0.000 C 
ATOM      9  N   UNL     1       3.034   6.715  18.224  0.00  0.00    +0.000 N 
ATOM     10  C   UNL     1       2.253   7.574  18.991  0.00  0.00    +0.000 A 
ATOM     11  C   UNL     1       1.758   8.773  18.504  0.00  0.00    +0.000 A 
ATOM     12  C   UNL     1       0.968   9.552  19.348  0.00  0.00    +0.000 A 
ATOM     13  C   UNL     1       0.746   9.132  20.654  0.00  0.00    +0.000 A 
ATOM     14  C   UNL     1       1.270   7.912  21.045  0.00  0.00    +0.000 A 
ATOM     15  N   UNL     1       1.972   7.101  20.224  0.00  0.00    +0.000 NA
ATOM     16  H   UNL     1       2.991   5.781  18.591  0.00  0.00    +0.000 HD
ENDBRANCH   1   8
BRANCH   6  17
ATOM     17  O   UNL     1       5.169   4.847  18.920  0.00  0.00    +0.000 OA
BRANCH  17  18
ATOM     18  C   UNL     1       4.827   3.531  19.385  0.00  0.00    +0.000 C 
BRANCH  18  19
ATOM     19  C   UNL     1       3.339   3.306  19.543  0.00  0.00    +0.000 A 
ATOM     20  C   UNL     1       2.671   3.606  20.735  0.00  0.00    +0.000 A 
ATOM     21  C   UNL     1       1.281   3.483  20.819  0.00  0.00    +0.000 A 
ATOM     22  C   UNL     1       0.544   3.072  19.709  0.00  0.00    +0.000 A 
ATOM     23  C   UNL     1       1.194   2.782  18.513  0.00  0.00    +0.000 A 
ATOM     24  C   UNL     1       2.582   2.903  18.427  0.00  0.00    +0.000 A 
ENDBRANCH  18  19
ENDBRANCH  17  18
ENDBRANCH   6  17
TORSDOF 4
ENDMDL
MODEL 5
REMARK VINA RESULT:      -7.6      1.932      6.068
REMARK  Name = 
REMARK  4 active torsions:
REMARK  status: ('A' for Active; 'I' for Inactive)
REMARK    1  A    between atoms: C_2  and  C_10
REMARK    2  A    between atoms: C_15  and  O_16
REMARK    3  A    between atoms: O_16  and  C_17
REMARK    4  A    between atoms: C_17  and  C_18
REMARK                            x       y       z     vdW  Elec       q    Type
REMARK                         _______ _______ _______ _____ _____    ______ ____
ROOT
ATOM      1  C   UNL     1       2.523   4.038  18.733  0.00  0.00    +0.000 A 
ATOM      2  C   UNL     1       1.951   2.936  18.058  0.00  0.00    +0.000 A 
ATOM      3  C   UNL     1       0.905   2.205  18.624  0.00  0.00    +0.000 A 
ATOM      4  C   UNL     1       0.413   2.560  19.865  0.00  0.00    +0.000 A 
ATOM      5  C   UNL     1       0.921   3.683  20.515  0.00  0.00    +0.000 A 
ATOM      6  C   UNL     1       1.946   4.460  19.945  0.00  0.00    +0.000 A 
ENDROOT
BRANCH   1   8
ATOM      7  O   UNL     1       3.964   4.700  16.942  0.00  0.00    +0.000 OA
ATOM      8  C   UNL     1       3.755   4.703  18.150  0.00  0.00    +0.000 C 
ATOM      9  N   UNL     1       4.621   5.265  19.078  0.00  0.00    +0.000 N 
ATOM     10  C   UNL     1       5.866   5.811  18.782  0.00  0.00    +0.000 A 
ATOM     11  C   UNL     1       6.072   6.673  17.717  0.00  0.00    +0.000 A 
ATOM     12  C   UNL     1       7.354   7.181  17.519  0.00  0.00    +0.000 A 
ATOM     13  C   UNL     1       8.387   6.772  18.354  0.00  0.00    +0.000 A 
ATOM     14  C   UNL     1       8.080   5.919  19.400  0.00  0.00    +0.000 A 
ATOM     15  N   UNL     1       6.833   5.474  19.663  0.00  0.00    +0.000 NA
ATOM     16  H   UNL     1       4.582   4.982  20.041  0.00  0.00    +0.000 HD
ENDBRANCH   1   8
BRANCH   6  17
ATOM     17  O   UNL     1       2.394   5.609  20.555  0.00  0.00    +0.000 OA
BRANCH  17  18
ATOM     18  C   UNL     1       1.395   6.617  20.779  0.00  0.00    +0.000 C 
BRANCH  18  19
ATOM     19  C   UNL     1       1.562   7.847  19.913  0.00  0.00    +0.000 A 
ATOM     20  C   UNL     1       2.216   7.794  18.677  0.00  0.00    +0.000 A 
ATOM     21  C   UNL     1       2.267   8.922  17.854  0.00  0.00    +0.000 A 
ATOM     22  C   UNL     1       1.655  10.110  18.251  0.00  0.00    +0.000 A 
ATOM     23  C   UNL     1       0.990  10.174  19.473  0.00  0.00    +0.000 A 
ATOM     24  C   UNL     1       0.939   9.048  20.297  0.00  0.00    +0.000 A 
ENDBRANCH  18  19
ENDBRANCH  17  18
ENDBRANCH   6  17
TORSDOF 4
ENDMDL
MODEL 6
REMARK VINA RESULT:      -7.5      2.013      5.036
REMARK  Name = 
REMARK  4 active torsions:
REMARK  status: ('A' for Active; 'I' for Inactive)
REMARK    1  A    between atoms: C_2  and  C_10
REMARK    2  A    between atoms: C_15  and  O_16
REMARK    3  A    between atoms: O_16  and  C_17
REMARK    4  A    between atoms: C_17  and  C_18
REMARK                            x       y       z     vdW  Elec       q    Type
REMARK                         _______ _______ _______ _____ _____    ______ ____
ROOT
ATOM      1  C   UNL     1       5.284   4.649  16.967  0.00  0.00    +0.000 A 
ATOM      2  C   UNL     1       5.937   3.711  16.135  0.00  0.00    +0.000 A 
ATOM      3  C   UNL     1       6.320   4.042  14.833  0.00  0.00    +0.000 A 
ATOM      4  C   UNL     1       6.062   5.308  14.344  0.00  0.00    +0.000 A 
ATOM      5  C   UNL     1       5.478   6.265  15.173  0.00  0.00    +0.000 A 
ATOM      6  C   UNL     1       5.123   5.967  16.501  0.00  0.00    +0.000 A 
ENDROOT
BRANCH   1   8
ATOM      7  O   UNL     1       5.510   3.835  19.205  0.00  0.00    +0.000 OA
ATOM      8  C   UNL     1       4.751   4.197  18.313  0.00  0.00    +0.000 C 
ATOM      9  N   UNL     1       3.368   4.190  18.431  0.00  0.00    +0.000 N 
ATOM     10  C   UNL     1       2.661   3.695  19.522  0.00  0.00    +0.000 A 
ATOM     11  C   UNL     1       3.007   3.985  20.833  0.00  0.00    +0.000 A 
ATOM     12  C   UNL     1       2.220   3.455  21.854  0.00  0.00    +0.000 A 
ATOM     13  C   UNL     1       1.157   2.620  21.533  0.00  0.00    +0.000 A 
ATOM     14  C   UNL     1       0.880   2.402  20.195  0.00  0.00    +0.000 A 
ATOM     15  N   UNL     1       1.577   2.964  19.184  0.00  0.00    +0.000 NA
ATOM     16  H   UNL     1       2.791   4.186  17.609  0.00  0.00    +0.000 HD
ENDBRANCH   1   8
BRANCH   6  17
ATOM     17  O   UNL     1       4.616   6.933  17.339  0.00  0.00    +0.000 OA
BRANCH  17  18
ATOM     18  C   UNL     1       3.327   7.451  16.971  0.00  0.00    +0.000 C 
BRANCH  18  19
ATOM     19  C   UNL     1       2.572   8.085  18.119  0.00  0.00    +0.000 A 
ATOM     20  C   UNL     1       1.902   9.305  17.977  0.00  0.00    +0.000 A 
ATOM     21  C   UNL     1       1.131   9.816  19.024  0.00  0.00    +0.000 A 
ATOM     22  C   UNL     1       1.011   9.108  20.219  0.00  0.00    +0.000 A 
ATOM     23  C   UNL     1       1.663   7.887  20.371  0.00  0.00    +0.000 A 
ATOM     24  C   UNL     1       2.435   7.375  19.327  0.00  0.00    +0.000 A 
ENDBRANCH  18  19
ENDBRANCH  17  18
ENDBRANCH   6  17
TORSDOF 4
ENDMDL
MODEL 7
REMARK VINA RESULT:      -7.5      2.009      4.977
REMARK  Name = 
REMARK  4 active torsions:
REMARK  status: ('A' for Active; 'I' for Inactive)
REMARK    1  A    between atoms: C_2  and  C_10
REMARK    2  A    between atoms: C_15  and  O_16
REMARK    3  A    between atoms: O_16  and  C_17
REMARK    4  A    between atoms: C_17  and  C_18
REMARK                            x       y       z     vdW  Elec       q    Type
REMARK                         _______ _______ _______ _____ _____    ______ ____
ROOT
ATOM      1  C   UNL     1       5.269   4.581  16.969  0.00  0.00    +0.000 A 
ATOM      2  C   UNL     1       5.899   3.642  16.121  0.00  0.00    +0.000 A 
ATOM      3  C   UNL     1       6.282   3.983  14.822  0.00  0.00    +0.000 A 
ATOM      4  C   UNL     1       6.047   5.260  14.351  0.00  0.00    +0.000 A 
ATOM      5  C   UNL     1       5.486   6.217  15.195  0.00  0.00    +0.000 A 
ATOM      6  C   UNL     1       5.131   5.908  16.521  0.00  0.00    +0.000 A 
ENDROOT
BRANCH   1   8
ATOM      7  O   UNL     1       5.487   3.711  19.186  0.00  0.00    +0.000 OA
ATOM      8  C   UNL     1       4.733   4.122  18.311  0.00  0.00    +0.000 C 
ATOM      9  N   UNL     1       3.352   4.168  18.445  0.00  0.00    +0.000 N 
ATOM     10  C   UNL     1       2.638   3.679  19.535  0.00  0.00    +0.000 A 
ATOM     11  C   UNL     1       3.010   3.926  20.847  0.00  0.00    +0.000 A 
ATOM     12  C   UNL     1       2.214   3.407  21.866  0.00  0.00    +0.000 A 
ATOM     13  C   UNL     1       1.114   2.622  21.540  0.00  0.00    +0.000 A 
ATOM     14  C   UNL     1       0.814   2.443  20.201  0.00  0.00    +0.000 A 
ATOM     15  N   UNL     1       1.522   2.999  19.194  0.00  0.00    +0.000 NA
ATOM     16  H   UNL     1       2.766   4.205  17.630  0.00  0.00    +0.000 HD
ENDBRANCH   1   8
BRANCH   6  17
ATOM     17  O   UNL     1       4.646   6.873  17.373  0.00  0.00    +0.000 OA
BRANCH  17  18
ATOM     18  C   UNL     1       3.461   7.552  16.924  0.00  0.00    +0.000 C 
BRANCH  18  19
ATOM     19  C   UNL     1       2.562   8.019  18.048  0.00  0.00    +0.000 A 
ATOM     20  C   UNL     1       2.494   7.339  19.269  0.00  0.00    +0.000 A 
ATOM     21  C   UNL     1       1.732   7.850  20.323  0.00  0.00    +0.000 A 
ATOM     22  C   UNL     1       1.041   9.052  20.172  0.00  0.00    +0.000 A 
ATOM     23  C   UNL     1       1.108   9.745  18.967  0.00  0.00    +0.000 A 
ATOM     24  C   UNL     1       1.868   9.235  17.912  0.00  0.00    +0.000 A 
ENDBRANCH  18  19
ENDBRANCH  17  18
ENDBRANCH   6  17
TORSDOF 4
ENDMDL
MODEL 8
REMARK VINA RESULT:      -7.5      1.889      6.403
REMARK  Name = 
REMARK  4 active torsions:
REMARK  status: ('A' for Active; 'I' for Inactive)
REMARK    1  A    between atoms: C_2  and  C_10
REMARK    2  A    between atoms: C_15  and  O_16
REMARK    3  A    between atoms: O_16  and  C_17
REMARK    4  A    between atoms: C_17  and  C_18
REMARK                            x       y       z     vdW  Elec       q    Type
REMARK                         _______ _______ _______ _____ _____    ______ ____
ROOT
ATOM      1  C   UNL     1       3.144   3.457  19.210  0.00  0.00    +0.000 A 
ATOM      2  C   UNL     1       3.205   2.393  20.138  0.00  0.00    +0.000 A 
ATOM      3  C   UNL     1       2.678   2.523  21.424  0.00  0.00    +0.000 A 
ATOM      4  C   UNL     1       2.082   3.711  21.804  0.00  0.00    +0.000 A 
ATOM      5  C   UNL     1       1.955   4.747  20.881  0.00  0.00    +0.000 A 
ATOM      6  C   UNL     1       2.440   4.623  19.566  0.00  0.00    +0.000 A 
ENDROOT
BRANCH   1   8
ATOM      7  O   UNL     1       3.840   2.270  17.253  0.00  0.00    +0.000 OA
ATOM      8  C   UNL     1       3.865   3.322  17.883  0.00  0.00    +0.000 C 
ATOM      9  N   UNL     1       4.568   4.447  17.473  0.00  0.00    +0.000 N 
ATOM     10  C   UNL     1       5.401   4.507  16.360  0.00  0.00    +0.000 A 
ATOM     11  C   UNL     1       5.039   3.993  15.125  0.00  0.00    +0.000 A 
ATOM     12  C   UNL     1       5.939   4.124  14.068  0.00  0.00    +0.000 A 
ATOM     13  C   UNL     1       7.177   4.712  14.295  0.00  0.00    +0.000 A 
ATOM     14  C   UNL     1       7.441   5.209  15.559  0.00  0.00    +0.000 A 
ATOM     15  N   UNL     1       6.559   5.166  16.580  0.00  0.00    +0.000 NA
ATOM     16  H   UNL     1       4.821   5.155  18.139  0.00  0.00    +0.000 HD
ENDBRANCH   1   8
BRANCH   6  17
ATOM     17  O   UNL     1       2.249   5.619  18.637  0.00  0.00    +0.000 OA
BRANCH  17  18
ATOM     18  C   UNL     1       2.947   6.847  18.898  0.00  0.00    +0.000 C 
BRANCH  18  19
ATOM     19  C   UNL     1       2.038   8.045  19.062  0.00  0.00    +0.000 A 
ATOM     20  C   UNL     1       1.632   8.817  17.968  0.00  0.00    +0.000 A 
ATOM     21  C   UNL     1       0.712   9.856  18.136  0.00  0.00    +0.000 A 
ATOM     22  C   UNL     1       0.178  10.125  19.396  0.00  0.00    +0.000 A 
ATOM     23  C   UNL     1       0.564   9.357  20.492  0.00  0.00    +0.000 A 
ATOM     24  C   UNL     1       1.484   8.320  20.326  0.00  0.00    +0.000 A 
ENDBRANCH  18  19
ENDBRANCH  17  18
ENDBRANCH   6  17
TORSDOF 4
ENDMDL
MODEL 9
REMARK VINA RESULT:      -7.5      1.598      4.369
REMARK  Name = 
REMARK  4 active torsions:
REMARK  status: ('A' for Active; 'I' for Inactive)
REMARK    1  A    between atoms: C_2  and  C_10
REMARK    2  A    between atoms: C_15  and  O_16
REMARK    3  A    between atoms: O_16  and  C_17
REMARK    4  A    between atoms: C_17  and  C_18
REMARK                            x       y       z     vdW  Elec       q    Type
REMARK                         _______ _______ _______ _____ _____    ______ ____
ROOT
ATOM      1  C   UNL     1       2.504   4.239  19.199  0.00  0.00    +0.000 A 
ATOM      2  C   UNL     1       2.294   2.938  19.712  0.00  0.00    +0.000 A 
ATOM      3  C   UNL     1       2.750   1.809  19.029  0.00  0.00    +0.000 A 
ATOM      4  C   UNL     1       3.422   1.958  17.831  0.00  0.00    +0.000 A 
ATOM      5  C   UNL     1       3.695   3.235  17.344  0.00  0.00    +0.000 A 
ATOM      6  C   UNL     1       3.282   4.388  18.037  0.00  0.00    +0.000 A 
ENDROOT
BRANCH   1   8
ATOM      7  O   UNL     1       0.958   5.259  20.713  0.00  0.00    +0.000 OA
ATOM      8  C   UNL     1       1.857   5.421  19.896  0.00  0.00    +0.000 C 
ATOM      9  N   UNL     1       2.330   6.667  19.510  0.00  0.00    +0.000 N 
ATOM     10  C   UNL     1       1.798   7.886  19.919  0.00  0.00    +0.000 A 
ATOM     11  C   UNL     1       1.473   8.157  21.239  0.00  0.00    +0.000 A 
ATOM     12  C   UNL     1       0.965   9.417  21.548  0.00  0.00    +0.000 A 
ATOM     13  C   UNL     1       0.753  10.336  20.527  0.00  0.00    +0.000 A 
ATOM     14  C   UNL     1       1.122   9.979  19.242  0.00  0.00    +0.000 A 
ATOM     15  N   UNL     1       1.689   8.795  18.927  0.00  0.00    +0.000 NA
ATOM     16  H   UNL     1       2.822   6.774  18.641  0.00  0.00    +0.000 HD
ENDBRANCH   1   8
BRANCH   6  17
ATOM     17  O   UNL     1       3.617   5.646  17.592  0.00  0.00    +0.000 OA
BRANCH  17  18
ATOM     18  C   UNL     1       4.738   5.703  16.695  0.00  0.00    +0.000 C 
BRANCH  18  19
ATOM     19  C   UNL     1       6.023   6.162  17.350  0.00  0.00    +0.000 A 
ATOM     20  C   UNL     1       6.615   7.389  17.032  0.00  0.00    +0.000 A 
ATOM     21  C   UNL     1       7.745   7.831  17.725  0.00  0.00    +0.000 A 
ATOM     22  C   UNL     1       8.287   7.057  18.751  0.00  0.00    +0.000 A 
ATOM     23  C   UNL     1       7.702   5.840  19.085  0.00  0.00    +0.000 A 
ATOM     24  C   UNL     1       6.573   5.396  18.394  0.00  0.00    +0.000 A 
ENDBRANCH  18  19
ENDBRANCH  17  18
ENDBRANCH   6  17
TORSDOF 4
ENDMDL
