MODEL 1
REMARK VINA RESULT:      -8.6      0.000      0.000
REMARK  Name = 
REMARK  5 active torsions:
REMARK  status: ('A' for Active; 'I' for Inactive)
REMARK    1  A    between atoms: C_4  and  C_5
REMARK    2  A    between atoms: C_4  and  C_21
REMARK    3  A    between atoms: C_9  and  N_10
REMARK    4  A    between atoms: C_11  and  C_13
REMARK    5  A    between atoms: C_16  and  O_17
REMARK                            x       y       z     vdW  Elec       q    Type
REMARK                         _______ _______ _______ _____ _____    ______ ____
ROOT
ATOM      1  C   UNL     1       2.926   5.223  18.651  0.00  0.00    +0.000 A 
ATOM      2  C   UNL     1       4.070   5.306  17.835  0.00  0.00    +0.000 A 
ATOM      3  C   UNL     1       4.443   6.505  17.236  0.00  0.00    +0.000 A 
ATOM      4  C   UNL     1       3.671   7.646  17.419  0.00  0.00    +0.000 A 
ATOM      5  C   UNL     1       2.515   7.607  18.198  0.00  0.00    +0.000 A 
ATOM      6  C   UNL     1       2.164   6.403  18.828  0.00  0.00    +0.000 A 
ENDROOT
BRANCH   1  10
ATOM      7  N   UNL     1       5.199   1.610  20.245  0.00  0.00    +0.000 N 
ATOM      8  C   UNL     1       4.144   2.166  19.577  0.00  0.00    +0.000 C 
ATOM      9  N   UNL     1       3.692   3.297  20.003  0.00  0.00    +0.000 NA
ATOM     10  C   UNL     1       2.498   3.902  19.333  0.00  0.00    +0.000 C 
ATOM     11  C   UNL     1       1.827   2.960  18.295  0.00  0.00    +0.000 C 
ATOM     12  O   UNL     1       2.783   2.223  17.524  0.00  0.00    +0.000 OA
ATOM     13  C   UNL     1       3.551   1.406  18.388  0.00  0.00    +0.000 C 
ATOM     14  H   UNL     1       5.679   2.266  20.853  0.00  0.00    +0.000 HD
ATOM     15  H   UNL     1       5.814   0.985  19.739  0.00  0.00    +0.000 HD
BRANCH  10  16
ATOM     16  C   UNL     1       1.443   4.118  20.460  0.00  0.00    +0.000 C 
ATOM     17  F   UNL     1       0.445   3.196  20.381  0.00  0.00    +0.000 F 
ATOM     18  F   UNL     1       2.007   3.937  21.687  0.00  0.00    +0.000 F 
ENDBRANCH  10  16
ENDBRANCH   1  10
BRANCH   5  19
ATOM     19  N   UNL     1       1.684   8.736  18.376  0.00  0.00    +0.000 N 
ATOM     20  C   UNL     1       1.183   9.180  19.591  0.00  0.00    +0.000 C 
ATOM     21  O   UNL     1       1.412   8.687  20.696  0.00  0.00    +0.000 OA
ATOM     22  H   UNL     1       1.500   9.322  17.567  0.00  0.00    +0.000 HD
BRANCH  20  23
ATOM     23  C   UNL     1       0.314  10.383  19.549  0.00  0.00    +0.000 A 
ATOM     24  C   UNL     1      -0.737  10.439  18.640  0.00  0.00    +0.000 A 
ATOM     25  C   UNL     1      -1.519  11.585  18.598  0.00  0.00    +0.000 A 
ATOM     26  C   UNL     1      -1.204  12.608  19.470  0.00  0.00    +0.000 A 
ATOM     27  N   UNL     1      -0.189  12.526  20.355  0.00  0.00    +0.000 NA
ATOM     28  N   UNL     1       0.589  11.395  20.401  0.00  0.00    +0.000 NA
BRANCH  26  29
ATOM     29  O   UNL     1      -1.916  13.770  19.475  0.00  0.00    +0.000 OA
ATOM     30  H   UNL     1      -2.513  13.766  18.710  0.00  0.00    +0.000 HD
ENDBRANCH  26  29
ENDBRANCH  20  23
ENDBRANCH   5  19
TORSDOF 5
ENDMDL
MODEL 2
REMARK VINA RESULT:      -8.6      3.455      4.440
REMARK  Name = 
REMARK  5 active torsions:
REMARK  status: ('A' for Active; 'I' for Inactive)
REMARK    1  A    between atoms: C_4  and  C_5
REMARK    2  A    between atoms: C_4  and  C_21
REMARK    3  A    between atoms: C_9  and  N_10
REMARK    4  A    between atoms: C_11  and  C_13
REMARK    5  A    between atoms: C_16  and  O_17
REMARK                            x       y       z     vdW  Elec       q    Type
REMARK                         _______ _______ _______ _____ _____    ______ ____
ROOT
ATOM      1  C   UNL     1       4.547   4.945  17.532  0.00  0.00    +0.000 A 
ATOM      2  C   UNL     1       3.761   3.842  17.150  0.00  0.00    +0.000 A 
ATOM      3  C   UNL     1       2.426   3.743  17.528  0.00  0.00    +0.000 A 
ATOM      4  C   UNL     1       1.848   4.732  18.313  0.00  0.00    +0.000 A 
ATOM      5  C   UNL     1       2.594   5.832  18.738  0.00  0.00    +0.000 A 
ATOM      6  C   UNL     1       3.930   5.943  18.325  0.00  0.00    +0.000 A 
ENDROOT
BRANCH   1  10
ATOM      7  N   UNL     1       8.458   5.275  19.847  0.00  0.00    +0.000 N 
ATOM      8  C   UNL     1       7.639   5.639  18.815  0.00  0.00    +0.000 C 
ATOM      9  N   UNL     1       6.893   4.727  18.289  0.00  0.00    +0.000 NA
ATOM     10  C   UNL     1       6.032   5.079  17.117  0.00  0.00    +0.000 C 
ATOM     11  C   UNL     1       6.301   6.502  16.555  0.00  0.00    +0.000 C 
ATOM     12  O   UNL     1       6.530   7.466  17.590  0.00  0.00    +0.000 OA
ATOM     13  C   UNL     1       7.674   7.092  18.334  0.00  0.00    +0.000 C 
ATOM     14  H   UNL     1       8.211   4.381  20.259  0.00  0.00    +0.000 HD
ATOM     15  H   UNL     1       8.729   5.982  20.519  0.00  0.00    +0.000 HD
BRANCH  10  16
ATOM     16  C   UNL     1       6.434   4.087  15.983  0.00  0.00    +0.000 C 
ATOM     17  F   UNL     1       5.741   4.342  14.840  0.00  0.00    +0.000 F 
ATOM     18  F   UNL     1       7.746   4.241  15.654  0.00  0.00    +0.000 F 
ENDBRANCH  10  16
ENDBRANCH   1  10
BRANCH   5  19
ATOM     19  N   UNL     1       2.052   6.838  19.570  0.00  0.00    +0.000 N 
ATOM     20  C   UNL     1       1.714   8.120  19.161  0.00  0.00    +0.000 C 
ATOM     21  O   UNL     1       1.798   8.564  18.016  0.00  0.00    +0.000 OA
ATOM     22  H   UNL     1       1.812   6.586  20.524  0.00  0.00    +0.000 HD
BRANCH  20  23
ATOM     23  C   UNL     1       1.172   9.026  20.205  0.00  0.00    +0.000 A 
ATOM     24  C   UNL     1       0.998   8.553  21.501  0.00  0.00    +0.000 A 
ATOM     25  C   UNL     1       0.463   9.408  22.454  0.00  0.00    +0.000 A 
ATOM     26  C   UNL     1       0.134  10.687  22.055  0.00  0.00    +0.000 A 
ATOM     27  N   UNL     1       0.326  11.131  20.795  0.00  0.00    +0.000 NA
ATOM     28  N   UNL     1       0.854  10.290  19.847  0.00  0.00    +0.000 NA
BRANCH  26  29
ATOM     29  O   UNL     1      -0.411  11.578  22.930  0.00  0.00    +0.000 OA
ATOM     30  H   UNL     1      -0.111  11.350  23.824  0.00  0.00    +0.000 HD
ENDBRANCH  26  29
ENDBRANCH  20  23
ENDBRANCH   5  19
TORSDOF 5
ENDMDL
MODEL 3
REMARK VINA RESULT:      -8.5      1.095      1.142
REMARK  Name = 
REMARK  5 active torsions:
REMARK  status: ('A' for Active; 'I' for Inactive)
REMARK    1  A    between atoms: C_4  and  C_5
REMARK    2  A    between atoms: C_4  and  C_21
REMARK    3  A    between atoms: C_9  and  N_10
REMARK    4  A    between atoms: C_11  and  C_13
REMARK    5  A    between atoms: C_16  and  O_17
REMARK                            x       y       z     vdW  Elec       q    Type
REMARK                         _______ _______ _______ _____ _____    ______ ____
ROOT
ATOM      1  C   UNL     1       2.666   5.256  18.981  0.00  0.00    +0.000 A 
ATOM      2  C   UNL     1       3.623   5.449  17.968  0.00  0.00    +0.000 A 
ATOM      3  C   UNL     1       3.893   6.717  17.463  0.00  0.00    +0.000 A 
ATOM      4  C   UNL     1       3.199   7.821  17.943  0.00  0.00    +0.000 A 
ATOM      5  C   UNL     1       2.223   7.676  18.929  0.00  0.00    +0.000 A 
ATOM      6  C   UNL     1       1.981   6.399  19.459  0.00  0.00    +0.000 A 
ENDROOT
BRANCH   1  10
ATOM      7  N   UNL     1       5.228   1.642  20.052  0.00  0.00    +0.000 N 
ATOM      8  C   UNL     1       4.099   2.198  19.519  0.00  0.00    +0.000 C 
ATOM      9  N   UNL     1       3.626   3.258  20.083  0.00  0.00    +0.000 NA
ATOM     10  C   UNL     1       2.357   3.855  19.562  0.00  0.00    +0.000 C 
ATOM     11  C   UNL     1       1.654   2.978  18.489  0.00  0.00    +0.000 C 
ATOM     12  O   UNL     1       2.583   2.369  17.584  0.00  0.00    +0.000 OA
ATOM     13  C   UNL     1       3.454   1.520  18.307  0.00  0.00    +0.000 C 
ATOM     14  H   UNL     1       5.721   2.265  20.684  0.00  0.00    +0.000 HD
ATOM     15  H   UNL     1       5.832   1.102  19.445  0.00  0.00    +0.000 HD
BRANCH  10  16
ATOM     16  C   UNL     1       1.382   3.907  20.778  0.00  0.00    +0.000 C 
ATOM     17  F   UNL     1       0.657   2.759  20.875  0.00  0.00    +0.000 F 
ATOM     18  F   UNL     1       2.077   3.997  21.946  0.00  0.00    +0.000 F 
ENDBRANCH  10  16
ENDBRANCH   1  10
BRANCH   5  19
ATOM     19  N   UNL     1       1.469   8.769  19.414  0.00  0.00    +0.000 N 
ATOM     20  C   UNL     1       1.091   8.958  20.736  0.00  0.00    +0.000 C 
ATOM     21  O   UNL     1       1.382   8.232  21.687  0.00  0.00    +0.000 OA
ATOM     22  H   UNL     1       1.252   9.520  18.767  0.00  0.00    +0.000 HD
BRANCH  20  23
ATOM     23  C   UNL     1       0.286  10.171  21.026  0.00  0.00    +0.000 A 
ATOM     24  C   UNL     1      -0.571  10.675  20.053  0.00  0.00    +0.000 A 
ATOM     25  C   UNL     1      -1.293  11.826  20.336  0.00  0.00    +0.000 A 
ATOM     26  C   UNL     1      -1.116  12.406  21.576  0.00  0.00    +0.000 A 
ATOM     27  N   UNL     1      -0.290  11.891  22.511  0.00  0.00    +0.000 NA
ATOM     28  N   UNL     1       0.427  10.753  22.238  0.00  0.00    +0.000 NA
BRANCH  26  29
ATOM     29  O   UNL     1      -1.778  13.546  21.919  0.00  0.00    +0.000 OA
ATOM     30  H   UNL     1      -1.229  14.306  21.667  0.00  0.00    +0.000 HD
ENDBRANCH  26  29
ENDBRANCH  20  23
ENDBRANCH   5  19
TORSDOF 5
ENDMDL
MODEL 4
REMARK VINA RESULT:      -8.5      3.382      4.246
REMARK  Name = 
REMARK  5 active torsions:
REMARK  status: ('A' for Active; 'I' for Inactive)
REMARK    1  A    between atoms: C_4  and  C_5
REMARK    2  A    between atoms: C_4  and  C_21
REMARK    3  A    between atoms: C_9  and  N_10
REMARK    4  A    between atoms: C_11  and  C_13
REMARK    5  A    between atoms: C_16  and  O_17
REMARK                            x       y       z     vdW  Elec       q    Type
REMARK                         _______ _______ _______ _____ _____    ______ ____
ROOT
ATOM      1  C   UNL     1       4.495   5.117  17.521  0.00  0.00    +0.000 A 
ATOM      2  C   UNL     1       3.659   4.009  17.289  0.00  0.00    +0.000 A 
ATOM      3  C   UNL     1       2.316   4.031  17.652  0.00  0.00    +0.000 A 
ATOM      4  C   UNL     1       1.779   5.151  18.274  0.00  0.00    +0.000 A 
ATOM      5  C   UNL     1       2.574   6.264  18.547  0.00  0.00    +0.000 A 
ATOM      6  C   UNL     1       3.919   6.250  18.147  0.00  0.00    +0.000 A 
ENDROOT
BRANCH   1  10
ATOM      7  N   UNL     1       8.399   5.283  19.864  0.00  0.00    +0.000 N 
ATOM      8  C   UNL     1       7.619   5.649  18.804  0.00  0.00    +0.000 C 
ATOM      9  N   UNL     1       6.811   4.768  18.318  0.00  0.00    +0.000 NA
ATOM     10  C   UNL     1       5.989   5.117  17.118  0.00  0.00    +0.000 C 
ATOM     11  C   UNL     1       6.369   6.484  16.483  0.00  0.00    +0.000 C 
ATOM     12  O   UNL     1       6.660   7.484  17.467  0.00  0.00    +0.000 OA
ATOM     13  C   UNL     1       7.767   7.067  18.245  0.00  0.00    +0.000 C 
ATOM     14  H   UNL     1       8.082   4.433  20.320  0.00  0.00    +0.000 HD
ATOM     15  H   UNL     1       8.716   6.003  20.500  0.00  0.00    +0.000 HD
BRANCH  10  16
ATOM     16  C   UNL     1       6.325   4.038  16.044  0.00  0.00    +0.000 C 
ATOM     17  F   UNL     1       5.640   4.264  14.890  0.00  0.00    +0.000 F 
ATOM     18  F   UNL     1       7.642   4.096  15.702  0.00  0.00    +0.000 F 
ENDBRANCH  10  16
ENDBRANCH   1  10
BRANCH   5  19
ATOM     19  N   UNL     1       2.074   7.406  19.213  0.00  0.00    +0.000 N 
ATOM     20  C   UNL     1       1.828   8.637  18.619  0.00  0.00    +0.000 C 
ATOM     21  O   UNL     1       1.969   8.910  17.427  0.00  0.00    +0.000 OA
ATOM     22  H   UNL     1       1.794   7.305  20.183  0.00  0.00    +0.000 HD
BRANCH  20  23
ATOM     23  C   UNL     1       1.316   9.709  19.509  0.00  0.00    +0.000 A 
ATOM     24  C   UNL     1       1.001  10.953  18.972  0.00  0.00    +0.000 A 
ATOM     25  C   UNL     1       0.551  11.950  19.827  0.00  0.00    +0.000 A 
ATOM     26  C   UNL     1       0.442  11.644  21.168  0.00  0.00    +0.000 A 
ATOM     27  N   UNL     1       0.738  10.425  21.665  0.00  0.00    +0.000 NA
ATOM     28  N   UNL     1       1.185   9.434  20.826  0.00  0.00    +0.000 NA
BRANCH  26  29
ATOM     29  O   UNL     1       0.023  12.576  22.069  0.00  0.00    +0.000 OA
ATOM     30  H   UNL     1      -0.007  13.438  21.626  0.00  0.00    +0.000 HD
ENDBRANCH  26  29
ENDBRANCH  20  23
ENDBRANCH   5  19
TORSDOF 5
ENDMDL
MODEL 5
REMARK VINA RESULT:      -8.4      1.504      1.616
REMARK  Name = 
REMARK  5 active torsions:
REMARK  status: ('A' for Active; 'I' for Inactive)
REMARK    1  A    between atoms: C_4  and  C_5
REMARK    2  A    between atoms: C_4  and  C_21
REMARK    3  A    between atoms: C_9  and  N_10
REMARK    4  A    between atoms: C_11  and  C_13
REMARK    5  A    between atoms: C_16  and  O_17
REMARK                            x       y       z     vdW  Elec       q    Type
REMARK                         _______ _______ _______ _____ _____    ______ ____
ROOT
ATOM      1  C   UNL     1       2.494   5.139  19.133  0.00  0.00    +0.000 A 
ATOM      2  C   UNL     1       3.314   5.480  18.042  0.00  0.00    +0.000 A 
ATOM      3  C   UNL     1       3.542   6.809  17.698  0.00  0.00    +0.000 A 
ATOM      4  C   UNL     1       2.939   7.829  18.423  0.00  0.00    +0.000 A 
ATOM      5  C   UNL     1       2.098   7.540  19.498  0.00  0.00    +0.000 A 
ATOM      6  C   UNL     1       1.901   6.199  19.861  0.00  0.00    +0.000 A 
ENDROOT
BRANCH   1  10
ATOM      7  N   UNL     1       5.194   1.660  20.304  0.00  0.00    +0.000 N 
ATOM      8  C   UNL     1       4.114   2.171  19.641  0.00  0.00    +0.000 C 
ATOM      9  N   UNL     1       3.459   3.129  20.207  0.00  0.00    +0.000 NA
ATOM     10  C   UNL     1       2.234   3.668  19.537  0.00  0.00    +0.000 C 
ATOM     11  C   UNL     1       1.795   2.845  18.294  0.00  0.00    +0.000 C 
ATOM     12  O   UNL     1       2.908   2.406  17.506  0.00  0.00    +0.000 OA
ATOM     13  C   UNL     1       3.733   1.564  18.289  0.00  0.00    +0.000 C 
ATOM     14  H   UNL     1       5.520   2.256  21.058  0.00  0.00    +0.000 HD
ATOM     15  H   UNL     1       5.934   1.232  19.761  0.00  0.00    +0.000 HD
BRANCH  10  16
ATOM     16  C   UNL     1       1.082   3.521  20.577  0.00  0.00    +0.000 C 
ATOM     17  F   UNL     1       0.036   2.825  20.055  0.00  0.00    +0.000 F 
ATOM     18  F   UNL     1       1.498   2.798  21.654  0.00  0.00    +0.000 F 
ENDBRANCH  10  16
ENDBRANCH   1  10
BRANCH   5  19
ATOM     19  N   UNL     1       1.437   8.549  20.234  0.00  0.00    +0.000 N 
ATOM     20  C   UNL     1       0.713   9.598  19.685  0.00  0.00    +0.000 C 
ATOM     21  O   UNL     1       0.504   9.789  18.487  0.00  0.00    +0.000 OA
ATOM     22  H   UNL     1       1.417   8.463  21.246  0.00  0.00    +0.000 HD
BRANCH  20  23
ATOM     23  C   UNL     1       0.110  10.558  20.643  0.00  0.00    +0.000 A 
ATOM     24  C   UNL     1      -0.755  11.542  20.176  0.00  0.00    +0.000 A 
ATOM     25  C   UNL     1      -1.285  12.447  21.085  0.00  0.00    +0.000 A 
ATOM     26  C   UNL     1      -0.919  12.315  22.409  0.00  0.00    +0.000 A 
ATOM     27  N   UNL     1      -0.089  11.342  22.844  0.00  0.00    +0.000 NA
ATOM     28  N   UNL     1       0.439  10.444  21.949  0.00  0.00    +0.000 NA
BRANCH  26  29
ATOM     29  O   UNL     1      -1.385  13.176  23.357  0.00  0.00    +0.000 OA
ATOM     30  H   UNL     1      -2.354  13.123  23.367  0.00  0.00    +0.000 HD
ENDBRANCH  26  29
ENDBRANCH  20  23
ENDBRANCH   5  19
TORSDOF 5
ENDMDL
MODEL 6
REMARK VINA RESULT:      -8.4      0.991      1.095
REMARK  Name = 
REMARK  5 active torsions:
REMARK  status: ('A' for Active; 'I' for Inactive)
REMARK    1  A    between atoms: C_4  and  C_5
REMARK    2  A    between atoms: C_4  and  C_21
REMARK    3  A    between atoms: C_9  and  N_10
REMARK    4  A    between atoms: C_11  and  C_13
REMARK    5  A    between atoms: C_16  and  O_17
REMARK                            x       y       z     vdW  Elec       q    Type
REMARK                         _______ _______ _______ _____ _____    ______ ____
ROOT
ATOM      1  C   UNL     1       3.174   5.367  18.420  0.00  0.00    +0.000 A 
ATOM      2  C   UNL     1       4.281   5.253  17.559  0.00  0.00    +0.000 A 
ATOM      3  C   UNL     1       4.757   6.351  16.848  0.00  0.00    +0.000 A 
ATOM      4  C   UNL     1       4.127   7.583  16.964  0.00  0.00    +0.000 A 
ATOM      5  C   UNL     1       3.011   7.739  17.785  0.00  0.00    +0.000 A 
ATOM      6  C   UNL     1       2.557   6.636  18.526  0.00  0.00    +0.000 A 
ENDROOT
BRANCH   1  10
ATOM      7  N   UNL     1       5.099   1.646  20.214  0.00  0.00    +0.000 N 
ATOM      8  C   UNL     1       4.082   2.269  19.545  0.00  0.00    +0.000 C 
ATOM      9  N   UNL     1       3.782   3.474  19.894  0.00  0.00    +0.000 NA
ATOM     10  C   UNL     1       2.633   4.161  19.225  0.00  0.00    +0.000 C 
ATOM     11  C   UNL     1       1.809   3.227  18.295  0.00  0.00    +0.000 C 
ATOM     12  O   UNL     1       2.638   2.326  17.550  0.00  0.00    +0.000 OA
ATOM     13  C   UNL     1       3.350   1.494  18.447  0.00  0.00    +0.000 C 
ATOM     14  H   UNL     1       5.679   2.287  20.746  0.00  0.00    +0.000 HD
ATOM     15  H   UNL     1       5.614   0.917  19.737  0.00  0.00    +0.000 HD
BRANCH  10  16
ATOM     16  C   UNL     1       1.666   4.585  20.372  0.00  0.00    +0.000 C 
ATOM     17  F   UNL     1       0.604   3.738  20.456  0.00  0.00    +0.000 F 
ATOM     18  F   UNL     1       2.290   4.505  21.580  0.00  0.00    +0.000 F 
ENDBRANCH  10  16
ENDBRANCH   1  10
BRANCH   5  19
ATOM     19  N   UNL     1       2.320   8.966  17.899  0.00  0.00    +0.000 N 
ATOM     20  C   UNL     1       1.534   9.348  18.977  0.00  0.00    +0.000 C 
ATOM     21  O   UNL     1       1.350   8.701  20.008  0.00  0.00    +0.000 OA
ATOM     22  H   UNL     1       2.469   9.663  17.175  0.00  0.00    +0.000 HD
BRANCH  20  23
ATOM     23  C   UNL     1       0.884  10.679  18.884  0.00  0.00    +0.000 A 
ATOM     24  C   UNL     1       1.661  11.807  18.644  0.00  0.00    +0.000 A 
ATOM     25  C   UNL     1       1.036  13.045  18.589  0.00  0.00    +0.000 A 
ATOM     26  C   UNL     1      -0.331  13.082  18.776  0.00  0.00    +0.000 A 
ATOM     27  N   UNL     1      -1.068  11.972  18.993  0.00  0.00    +0.000 NA
ATOM     28  N   UNL     1      -0.456  10.745  19.049  0.00  0.00    +0.000 NA
BRANCH  26  29
ATOM     29  O   UNL     1      -1.011  14.262  18.753  0.00  0.00    +0.000 OA
ATOM     30  H   UNL     1      -0.690  14.815  19.483  0.00  0.00    +0.000 HD
ENDBRANCH  26  29
ENDBRANCH  20  23
ENDBRANCH   5  19
TORSDOF 5
ENDMDL
MODEL 7
REMARK VINA RESULT:      -8.2      3.213      4.066
REMARK  Name = 
REMARK  5 active torsions:
REMARK  status: ('A' for Active; 'I' for Inactive)
REMARK    1  A    between atoms: C_4  and  C_5
REMARK    2  A    between atoms: C_4  and  C_21
REMARK    3  A    between atoms: C_9  and  N_10
REMARK    4  A    between atoms: C_11  and  C_13
REMARK    5  A    between atoms: C_16  and  O_17
REMARK                            x       y       z     vdW  Elec       q    Type
REMARK                         _______ _______ _______ _____ _____    ______ ____
ROOT
ATOM      1  C   UNL     1       4.584   5.368  17.643  0.00  0.00    +0.000 A 
ATOM      2  C   UNL     1       3.857   4.230  18.040  0.00  0.00    +0.000 A 
ATOM      3  C   UNL     1       2.512   4.317  18.384  0.00  0.00    +0.000 A 
ATOM      4  C   UNL     1       1.865   5.546  18.361  0.00  0.00    +0.000 A 
ATOM      5  C   UNL     1       2.549   6.706  17.998  0.00  0.00    +0.000 A 
ATOM      6  C   UNL     1       3.897   6.605  17.619  0.00  0.00    +0.000 A 
ENDROOT
BRANCH   1  10
ATOM      7  N   UNL     1       8.478   5.321  20.010  0.00  0.00    +0.000 N 
ATOM      8  C   UNL     1       7.724   5.731  18.946  0.00  0.00    +0.000 C 
ATOM      9  N   UNL     1       6.874   4.895  18.452  0.00  0.00    +0.000 NA
ATOM     10  C   UNL     1       6.078   5.291  17.249  0.00  0.00    +0.000 C 
ATOM     11  C   UNL     1       6.532   6.639  16.622  0.00  0.00    +0.000 C 
ATOM     12  O   UNL     1       6.870   7.618  17.612  0.00  0.00    +0.000 OA
ATOM     13  C   UNL     1       7.949   7.141  18.394  0.00  0.00    +0.000 C 
ATOM     14  H   UNL     1       8.114   4.487  20.461  0.00  0.00    +0.000 HD
ATOM     15  H   UNL     1       8.828   6.021  20.651  0.00  0.00    +0.000 HD
BRANCH  10  16
ATOM     16  C   UNL     1       6.364   4.200  16.173  0.00  0.00    +0.000 C 
ATOM     17  F   UNL     1       5.436   4.236  15.179  0.00  0.00    +0.000 F 
ATOM     18  F   UNL     1       7.559   4.430  15.562  0.00  0.00    +0.000 F 
ENDBRANCH  10  16
ENDBRANCH   1  10
BRANCH   5  19
ATOM     19  N   UNL     1       1.935   7.979  18.000  0.00  0.00    +0.000 N 
ATOM     20  C   UNL     1       1.577   8.694  19.134  0.00  0.00    +0.000 C 
ATOM     21  O   UNL     1       1.771   8.353  20.301  0.00  0.00    +0.000 OA
ATOM     22  H   UNL     1       1.816   8.450  17.109  0.00  0.00    +0.000 HD
BRANCH  20  23
ATOM     23  C   UNL     1       0.928  10.010  18.908  0.00  0.00    +0.000 A 
ATOM     24  C   UNL     1      -0.409  10.059  18.529  0.00  0.00    +0.000 A 
ATOM     25  C   UNL     1      -0.988  11.299  18.295  0.00  0.00    +0.000 A 
ATOM     26  C   UNL     1      -0.196  12.417  18.455  0.00  0.00    +0.000 A 
ATOM     27  N   UNL     1       1.097  12.347  18.839  0.00  0.00    +0.000 NA
ATOM     28  N   UNL     1       1.675  11.124  19.071  0.00  0.00    +0.000 NA
BRANCH  26  29
ATOM     29  O   UNL     1      -0.690  13.667  18.228  0.00  0.00    +0.000 OA
ATOM     30  H   UNL     1      -0.062  14.313  18.586  0.00  0.00    +0.000 HD
ENDBRANCH  26  29
ENDBRANCH  20  23
ENDBRANCH   5  19
TORSDOF 5
ENDMDL
MODEL 8
REMARK VINA RESULT:      -8.2      4.982      5.992
REMARK  Name = 
REMARK  5 active torsions:
REMARK  status: ('A' for Active; 'I' for Inactive)
REMARK    1  A    between atoms: C_4  and  C_5
REMARK    2  A    between atoms: C_4  and  C_21
REMARK    3  A    between atoms: C_9  and  N_10
REMARK    4  A    between atoms: C_11  and  C_13
REMARK    5  A    between atoms: C_16  and  O_17
REMARK                            x       y       z     vdW  Elec       q    Type
REMARK                         _______ _______ _______ _____ _____    ______ ____
ROOT
ATOM      1  C   UNL     1       5.103   4.805  17.597  0.00  0.00    +0.000 A 
ATOM      2  C   UNL     1       5.443   4.116  16.418  0.00  0.00    +0.000 A 
ATOM      3  C   UNL     1       6.364   4.639  15.517  0.00  0.00    +0.000 A 
ATOM      4  C   UNL     1       6.954   5.873  15.760  0.00  0.00    +0.000 A 
ATOM      5  C   UNL     1       6.631   6.605  16.902  0.00  0.00    +0.000 A 
ATOM      6  C   UNL     1       5.727   6.056  17.824  0.00  0.00    +0.000 A 
ENDROOT
BRANCH   1  10
ATOM      7  N   UNL     1       5.209   1.366  20.584  0.00  0.00    +0.000 N 
ATOM      8  C   UNL     1       4.568   2.115  19.637  0.00  0.00    +0.000 C 
ATOM      9  N   UNL     1       4.819   3.380  19.600  0.00  0.00    +0.000 NA
ATOM     10  C   UNL     1       4.087   4.238  18.616  0.00  0.00    +0.000 C 
ATOM     11  C   UNL     1       2.946   3.491  17.870  0.00  0.00    +0.000 C 
ATOM     12  O   UNL     1       3.307   2.149  17.521  0.00  0.00    +0.000 OA
ATOM     13  C   UNL     1       3.580   1.415  18.700  0.00  0.00    +0.000 C 
ATOM     14  H   UNL     1       6.006   1.840  20.997  0.00  0.00    +0.000 HD
ATOM     15  H   UNL     1       5.359   0.382  20.399  0.00  0.00    +0.000 HD
BRANCH  10  16
ATOM     16  C   UNL     1       3.391   5.350  19.459  0.00  0.00    +0.000 C 
ATOM     17  F   UNL     1       2.396   5.951  18.751  0.00  0.00    +0.000 F 
ATOM     18  F   UNL     1       2.784   4.813  20.554  0.00  0.00    +0.000 F 
ENDBRANCH  10  16
ENDBRANCH   1  10
BRANCH   5  19
ATOM     19  N   UNL     1       7.180   7.881  17.163  0.00  0.00    +0.000 N 
ATOM     20  C   UNL     1       8.086   8.172  18.173  0.00  0.00    +0.000 C 
ATOM     21  O   UNL     1       8.576   7.366  18.965  0.00  0.00    +0.000 OA
ATOM     22  H   UNL     1       6.962   8.633  16.517  0.00  0.00    +0.000 HD
BRANCH  20  23
ATOM     23  C   UNL     1       8.525   9.586  18.281  0.00  0.00    +0.000 A 
ATOM     24  C   UNL     1       9.467   9.941  19.241  0.00  0.00    +0.000 A 
ATOM     25  C   UNL     1       9.842  11.273  19.343  0.00  0.00    +0.000 A 
ATOM     26  C   UNL     1       9.252  12.173  18.478  0.00  0.00    +0.000 A 
ATOM     27  N   UNL     1       8.351  11.804  17.544  0.00  0.00    +0.000 NA
ATOM     28  N   UNL     1       7.976  10.488  17.438  0.00  0.00    +0.000 NA
BRANCH  26  29
ATOM     29  O   UNL     1       9.558  13.500  18.530  0.00  0.00    +0.000 OA
ATOM     30  H   UNL     1       8.761  14.006  18.303  0.00  0.00    +0.000 HD
ENDBRANCH  26  29
ENDBRANCH  20  23
ENDBRANCH   5  19
TORSDOF 5
ENDMDL
MODEL 9
REMARK VINA RESULT:      -8.2      2.801      3.617
REMARK  Name = 
REMARK  5 active torsions:
REMARK  status: ('A' for Active; 'I' for Inactive)
REMARK    1  A    between atoms: C_4  and  C_5
REMARK    2  A    between atoms: C_4  and  C_21
REMARK    3  A    between atoms: C_9  and  N_10
REMARK    4  A    between atoms: C_11  and  C_13
REMARK    5  A    between atoms: C_16  and  O_17
REMARK                            x       y       z     vdW  Elec       q    Type
REMARK                         _______ _______ _______ _____ _____    ______ ____
ROOT
ATOM      1  C   UNL     1       3.853   5.470  18.968  0.00  0.00    +0.000 A 
ATOM      2  C   UNL     1       3.343   4.579  19.930  0.00  0.00    +0.000 A 
ATOM      3  C   UNL     1       2.256   4.923  20.728  0.00  0.00    +0.000 A 
ATOM      4  C   UNL     1       1.664   6.173  20.598  0.00  0.00    +0.000 A 
ATOM      5  C   UNL     1       2.150   7.100  19.676  0.00  0.00    +0.000 A 
ATOM      6  C   UNL     1       3.224   6.733  18.851  0.00  0.00    +0.000 A 
ENDROOT
BRANCH   1  10
ATOM      7  N   UNL     1       8.361   5.322  19.618  0.00  0.00    +0.000 N 
ATOM      8  C   UNL     1       7.266   5.623  18.856  0.00  0.00    +0.000 C 
ATOM      9  N   UNL     1       6.245   4.838  18.933  0.00  0.00    +0.000 NA
ATOM     10  C   UNL     1       5.055   5.104  18.066  0.00  0.00    +0.000 C 
ATOM     11  C   UNL     1       5.293   6.225  17.015  0.00  0.00    +0.000 C 
ATOM     12  O   UNL     1       6.053   7.318  17.543  0.00  0.00    +0.000 OA
ATOM     13  C   UNL     1       7.328   6.852  17.945  0.00  0.00    +0.000 C 
ATOM     14  H   UNL     1       8.163   4.652  20.355  0.00  0.00    +0.000 HD
ATOM     15  H   UNL     1       8.977   6.076  19.894  0.00  0.00    +0.000 HD
BRANCH  10  16
ATOM     16  C   UNL     1       4.824   3.796  17.250  0.00  0.00    +0.000 C 
ATOM     17  F   UNL     1       3.597   3.795  16.662  0.00  0.00    +0.000 F 
ATOM     18  F   UNL     1       5.717   3.703  16.227  0.00  0.00    +0.000 F 
ENDBRANCH  10  16
ENDBRANCH   1  10
BRANCH   5  19
ATOM     19  N   UNL     1       1.600   8.395  19.543  0.00  0.00    +0.000 N 
ATOM     20  C   UNL     1       1.655   9.176  18.397  0.00  0.00    +0.000 C 
ATOM     21  O   UNL     1       2.153   8.851  17.319  0.00  0.00    +0.000 OA
ATOM     22  H   UNL     1       1.049   8.758  20.315  0.00  0.00    +0.000 HD
BRANCH  20  23
ATOM     23  C   UNL     1       1.023  10.516  18.480  0.00  0.00    +0.000 A 
ATOM     24  C   UNL     1      -0.360  10.618  18.584  0.00  0.00    +0.000 A 
ATOM     25  C   UNL     1      -0.931  11.882  18.631  0.00  0.00    +0.000 A 
ATOM     26  C   UNL     1      -0.085  12.971  18.571  0.00  0.00    +0.000 A 
ATOM     27  N   UNL     1       1.256  12.849  18.485  0.00  0.00    +0.000 NA
ATOM     28  N   UNL     1       1.828  11.602  18.438  0.00  0.00    +0.000 NA
BRANCH  26  29
ATOM     29  O   UNL     1      -0.575  14.242  18.595  0.00  0.00    +0.000 OA
ATOM     30  H   UNL     1       0.142  14.850  18.354  0.00  0.00    +0.000 HD
ENDBRANCH  26  29
ENDBRANCH  20  23
ENDBRANCH   5  19
TORSDOF 5
ENDMDL
