MODEL 1
REMARK VINA RESULT:      -9.0      0.000      0.000
REMARK  Name = 
REMARK  5 active torsions:
REMARK  status: ('A' for Active; 'I' for Inactive)
REMARK    1  A    between atoms: C_1  and  C_2
REMARK    2  A    between atoms: N_4  and  C_5
REMARK    3  A    between atoms: C_5  and  C_6
REMARK    4  A    between atoms: C_5  and  C_14
REMARK    5  A    between atoms: C_16  and  C_17
REMARK                            x       y       z     vdW  Elec       q    Type
REMARK                         _______ _______ _______ _____ _____    ______ ____
ROOT
ATOM      1  C   UNL     1       3.922   6.084  18.576  0.00  0.00    +0.000 C 
ENDROOT
BRANCH   1   2
ATOM      2  C   UNL     1       2.923   4.960  18.867  0.00  0.00    +0.000 A 
ATOM      3  C   UNL     1       2.162   4.345  17.849  0.00  0.00    +0.000 A 
ATOM      4  C   UNL     1       1.180   3.397  18.155  0.00  0.00    +0.000 A 
ATOM      5  C   UNL     1       0.958   3.039  19.477  0.00  0.00    +0.000 A 
ATOM      6  F   UNL     1      -0.007   2.154  19.767  0.00  0.00    +0.000 F 
ATOM      7  C   UNL     1       1.724   3.602  20.490  0.00  0.00    +0.000 A 
ATOM      8  F   UNL     1       1.514   3.249  21.766  0.00  0.00    +0.000 F 
ATOM      9  C   UNL     1       2.703   4.550  20.195  0.00  0.00    +0.000 A 
ENDBRANCH   1   2
BRANCH   1  13
ATOM     10  C   UNL     1       1.835   9.116  17.666  0.00  0.00    +0.000 C 
ATOM     11  C   UNL     1       2.393   8.029  18.543  0.00  0.00    +0.000 C 
ATOM     12  O   UNL     1       2.075   7.904  19.719  0.00  0.00    +0.000 OA
ATOM     13  N   UNL     1       3.289   7.213  17.901  0.00  0.00    +0.000 N 
ATOM     14  H   UNL     1       3.605   7.450  16.971  0.00  0.00    +0.000 HD
ENDBRANCH   1  13
BRANCH   1  15
ATOM     15  C   UNL     1       5.153   5.703  17.767  0.00  0.00    +0.000 A 
ATOM     16  N   UNL     1       5.137   5.545  16.452  0.00  0.00    +0.000 NA
ATOM     17  C   UNL     1       6.364   5.097  15.992  0.00  0.00    +0.000 A 
ATOM     18  C   UNL     1       7.306   4.897  16.978  0.00  0.00    +0.000 A 
ATOM     19  S   UNL     1       6.647   5.275  18.516  0.00  0.00    +0.000 S 
BRANCH  17  20
ATOM     20  C   UNL     1       6.592   4.802  14.577  0.00  0.00    +0.000 A 
ATOM     21  C   UNL     1       7.603   5.448  13.843  0.00  0.00    +0.000 A 
ATOM     22  C   UNL     1       7.847   5.109  12.506  0.00  0.00    +0.000 A 
ATOM     23  C   UNL     1       7.080   4.125  11.890  0.00  0.00    +0.000 A 
ATOM     24  C   UNL     1       6.065   3.502  12.607  0.00  0.00    +0.000 A 
ATOM     25  F   UNL     1       5.330   2.553  12.011  0.00  0.00    +0.000 F 
ATOM     26  C   UNL     1       5.810   3.835  13.935  0.00  0.00    +0.000 A 
ENDBRANCH  17  20
ENDBRANCH   1  15
TORSDOF 4
ENDMDL
MODEL 2
REMARK VINA RESULT:      -8.8      2.824      4.131
REMARK  Name = 
REMARK  5 active torsions:
REMARK  status: ('A' for Active; 'I' for Inactive)
REMARK    1  A    between atoms: C_1  and  C_2
REMARK    2  A    between atoms: N_4  and  C_5
REMARK    3  A    between atoms: C_5  and  C_6
REMARK    4  A    between atoms: C_5  and  C_14
REMARK    5  A    between atoms: C_16  and  C_17
REMARK                            x       y       z     vdW  Elec       q    Type
REMARK                         _______ _______ _______ _____ _____    ______ ____
ROOT
ATOM      1  C   UNL     1       2.928   5.176  18.722  0.00  0.00    +0.000 C 
ENDROOT
BRANCH   1   2
ATOM      2  C   UNL     1       2.446   6.589  19.065  0.00  0.00    +0.000 A 
ATOM      3  C   UNL     1       1.991   6.938  20.355  0.00  0.00    +0.000 A 
ATOM      4  C   UNL     1       1.456   8.205  20.612  0.00  0.00    +0.000 A 
ATOM      5  C   UNL     1       1.384   9.142  19.591  0.00  0.00    +0.000 A 
ATOM      6  F   UNL     1       0.841  10.343  19.835  0.00  0.00    +0.000 F 
ATOM      7  C   UNL     1       1.864   8.831  18.325  0.00  0.00    +0.000 A 
ATOM      8  F   UNL     1       1.803   9.740  17.342  0.00  0.00    +0.000 F 
ATOM      9  C   UNL     1       2.397   7.570  18.058  0.00  0.00    +0.000 A 
ENDBRANCH   1   2
BRANCH   1  13
ATOM     10  C   UNL     1       2.125   2.672  21.455  0.00  0.00    +0.000 C 
ATOM     11  C   UNL     1       1.919   3.457  20.188  0.00  0.00    +0.000 C 
ATOM     12  O   UNL     1       0.921   3.329  19.490  0.00  0.00    +0.000 OA
ATOM     13  N   UNL     1       2.953   4.309  19.896  0.00  0.00    +0.000 N 
ATOM     14  H   UNL     1       3.802   4.271  20.443  0.00  0.00    +0.000 HD
ENDBRANCH   1  13
BRANCH   1  15
ATOM     15  C   UNL     1       4.290   5.069  18.050  0.00  0.00    +0.000 A 
ATOM     16  N   UNL     1       4.445   4.947  16.741  0.00  0.00    +0.000 NA
ATOM     17  C   UNL     1       5.779   4.764  16.416  0.00  0.00    +0.000 A 
ATOM     18  C   UNL     1       6.632   4.729  17.498  0.00  0.00    +0.000 A 
ATOM     19  S   UNL     1       5.750   4.926  18.956  0.00  0.00    +0.000 S 
BRANCH  17  20
ATOM     20  C   UNL     1       6.212   4.559  15.033  0.00  0.00    +0.000 A 
ATOM     21  C   UNL     1       5.508   3.712  14.158  0.00  0.00    +0.000 A 
ATOM     22  C   UNL     1       5.901   3.575  12.821  0.00  0.00    +0.000 A 
ATOM     23  C   UNL     1       7.003   4.281  12.348  0.00  0.00    +0.000 A 
ATOM     24  C   UNL     1       7.714   5.100  13.217  0.00  0.00    +0.000 A 
ATOM     25  F   UNL     1       8.774   5.780  12.756  0.00  0.00    +0.000 F 
ATOM     26  C   UNL     1       7.336   5.239  14.549  0.00  0.00    +0.000 A 
ENDBRANCH  17  20
ENDBRANCH   1  15
TORSDOF 4
ENDMDL
MODEL 3
REMARK VINA RESULT:      -8.7      2.611      3.854
REMARK  Name = 
REMARK  5 active torsions:
REMARK  status: ('A' for Active; 'I' for Inactive)
REMARK    1  A    between atoms: C_1  and  C_2
REMARK    2  A    between atoms: N_4  and  C_5
REMARK    3  A    between atoms: C_5  and  C_6
REMARK    4  A    between atoms: C_5  and  C_14
REMARK    5  A    between atoms: C_16  and  C_17
REMARK                            x       y       z     vdW  Elec       q    Type
REMARK                         _______ _______ _______ _____ _____    ______ ____
ROOT
ATOM      1  C   UNL     1       3.089   5.141  18.575  0.00  0.00    +0.000 C 
ENDROOT
BRANCH   1   2
ATOM      2  C   UNL     1       2.576   6.536  18.944  0.00  0.00    +0.000 A 
ATOM      3  C   UNL     1       2.092   6.845  20.234  0.00  0.00    +0.000 A 
ATOM      4  C   UNL     1       1.530   8.095  20.513  0.00  0.00    +0.000 A 
ATOM      5  C   UNL     1       1.461   9.056  19.514  0.00  0.00    +0.000 A 
ATOM      6  F   UNL     1       0.893  10.242  19.779  0.00  0.00    +0.000 F 
ATOM      7  C   UNL     1       1.970   8.787  18.251  0.00  0.00    +0.000 A 
ATOM      8  F   UNL     1       1.911   9.720  17.290  0.00  0.00    +0.000 F 
ATOM      9  C   UNL     1       2.530   7.542  17.962  0.00  0.00    +0.000 A 
ENDBRANCH   1   2
BRANCH   1  13
ATOM     10  C   UNL     1       2.435   2.655  21.363  0.00  0.00    +0.000 C 
ATOM     11  C   UNL     1       2.149   3.452  20.120  0.00  0.00    +0.000 C 
ATOM     12  O   UNL     1       1.091   3.362  19.509  0.00  0.00    +0.000 OA
ATOM     13  N   UNL     1       3.183   4.269  19.742  0.00  0.00    +0.000 N 
ATOM     14  H   UNL     1       4.075   4.199  20.214  0.00  0.00    +0.000 HD
ENDBRANCH   1  13
BRANCH   1  15
ATOM     15  C   UNL     1       4.428   5.080  17.853  0.00  0.00    +0.000 A 
ATOM     16  N   UNL     1       4.539   4.967  16.539  0.00  0.00    +0.000 NA
ATOM     17  C   UNL     1       5.866   4.828  16.164  0.00  0.00    +0.000 A 
ATOM     18  C   UNL     1       6.758   4.817  17.215  0.00  0.00    +0.000 A 
ATOM     19  S   UNL     1       5.924   4.982  18.705  0.00  0.00    +0.000 S 
BRANCH  17  20
ATOM     20  C   UNL     1       6.253   4.641  14.765  0.00  0.00    +0.000 A 
ATOM     21  C   UNL     1       7.358   5.312  14.210  0.00  0.00    +0.000 A 
ATOM     22  C   UNL     1       7.750   5.075  12.887  0.00  0.00    +0.000 A 
ATOM     23  C   UNL     1       7.039   4.168  12.106  0.00  0.00    +0.000 A 
ATOM     24  C   UNL     1       5.934   3.522  12.646  0.00  0.00    +0.000 A 
ATOM     25  F   UNL     1       5.253   2.648  11.891  0.00  0.00    +0.000 F 
ATOM     26  C   UNL     1       5.531   3.755  13.958  0.00  0.00    +0.000 A 
ENDBRANCH  17  20
ENDBRANCH   1  15
TORSDOF 4
ENDMDL
MODEL 4
REMARK VINA RESULT:      -8.7      2.352      3.578
REMARK  Name = 
REMARK  5 active torsions:
REMARK  status: ('A' for Active; 'I' for Inactive)
REMARK    1  A    between atoms: C_1  and  C_2
REMARK    2  A    between atoms: N_4  and  C_5
REMARK    3  A    between atoms: C_5  and  C_6
REMARK    4  A    between atoms: C_5  and  C_14
REMARK    5  A    between atoms: C_16  and  C_17
REMARK                            x       y       z     vdW  Elec       q    Type
REMARK                         _______ _______ _______ _____ _____    ______ ____
ROOT
ATOM      1  C   UNL     1       3.048   5.055  18.553  0.00  0.00    +0.000 C 
ENDROOT
BRANCH   1   2
ATOM      2  C   UNL     1       2.460   6.440  18.841  0.00  0.00    +0.000 A 
ATOM      3  C   UNL     1       2.352   7.436  17.846  0.00  0.00    +0.000 A 
ATOM      4  C   UNL     1       1.912   8.726  18.160  0.00  0.00    +0.000 A 
ATOM      5  C   UNL     1       1.558   9.032  19.467  0.00  0.00    +0.000 A 
ATOM      6  F   UNL     1       1.167  10.278  19.769  0.00  0.00    +0.000 F 
ATOM      7  C   UNL     1       1.617   8.055  20.452  0.00  0.00    +0.000 A 
ATOM      8  F   UNL     1       1.266   8.350  21.712  0.00  0.00    +0.000 F 
ATOM      9  C   UNL     1       2.057   6.767  20.149  0.00  0.00    +0.000 A 
ENDBRANCH   1   2
BRANCH   1  13
ATOM     10  C   UNL     1       2.561   2.617  21.416  0.00  0.00    +0.000 C 
ATOM     11  C   UNL     1       2.256   3.308  20.116  0.00  0.00    +0.000 C 
ATOM     12  O   UNL     1       1.275   3.030  19.438  0.00  0.00    +0.000 OA
ATOM     13  N   UNL     1       3.181   4.258  19.769  0.00  0.00    +0.000 N 
ATOM     14  H   UNL     1       4.033   4.346  20.305  0.00  0.00    +0.000 HD
ENDBRANCH   1  13
BRANCH   1  15
ATOM     15  C   UNL     1       4.392   5.025  17.840  0.00  0.00    +0.000 A 
ATOM     16  N   UNL     1       4.514   4.905  16.527  0.00  0.00    +0.000 NA
ATOM     17  C   UNL     1       5.846   4.799  16.161  0.00  0.00    +0.000 A 
ATOM     18  C   UNL     1       6.732   4.820  17.217  0.00  0.00    +0.000 A 
ATOM     19  S   UNL     1       5.885   4.973  18.701  0.00  0.00    +0.000 S 
BRANCH  17  20
ATOM     20  C   UNL     1       6.247   4.612  14.766  0.00  0.00    +0.000 A 
ATOM     21  C   UNL     1       7.353   5.287  14.220  0.00  0.00    +0.000 A 
ATOM     22  C   UNL     1       7.759   5.049  12.901  0.00  0.00    +0.000 A 
ATOM     23  C   UNL     1       7.059   4.139  12.115  0.00  0.00    +0.000 A 
ATOM     24  C   UNL     1       5.952   3.488  12.645  0.00  0.00    +0.000 A 
ATOM     25  F   UNL     1       5.282   2.611  11.886  0.00  0.00    +0.000 F 
ATOM     26  C   UNL     1       5.536   3.721  13.954  0.00  0.00    +0.000 A 
ENDBRANCH  17  20
ENDBRANCH   1  15
TORSDOF 4
ENDMDL
MODEL 5
REMARK VINA RESULT:      -8.6      2.597      3.892
REMARK  Name = 
REMARK  5 active torsions:
REMARK  status: ('A' for Active; 'I' for Inactive)
REMARK    1  A    between atoms: C_1  and  C_2
REMARK    2  A    between atoms: N_4  and  C_5
REMARK    3  A    between atoms: C_5  and  C_6
REMARK    4  A    between atoms: C_5  and  C_14
REMARK    5  A    between atoms: C_16  and  C_17
REMARK                            x       y       z     vdW  Elec       q    Type
REMARK                         _______ _______ _______ _____ _____    ______ ____
ROOT
ATOM      1  C   UNL     1       2.950   5.133  18.715  0.00  0.00    +0.000 C 
ENDROOT
BRANCH   1   2
ATOM      2  C   UNL     1       2.380   6.535  18.953  0.00  0.00    +0.000 A 
ATOM      3  C   UNL     1       2.318   7.508  17.931  0.00  0.00    +0.000 A 
ATOM      4  C   UNL     1       1.894   8.813  18.203  0.00  0.00    +0.000 A 
ATOM      5  C   UNL     1       1.511   9.158  19.492  0.00  0.00    +0.000 A 
ATOM      6  F   UNL     1       1.136  10.418  19.753  0.00  0.00    +0.000 F 
ATOM      7  C   UNL     1       1.525   8.204  20.501  0.00  0.00    +0.000 A 
ATOM      8  F   UNL     1       1.146   8.536  21.744  0.00  0.00    +0.000 F 
ATOM      9  C   UNL     1       1.949   6.901  20.241  0.00  0.00    +0.000 A 
ENDBRANCH   1   2
BRANCH   1  13
ATOM     10  C   UNL     1       2.431   2.682  21.561  0.00  0.00    +0.000 C 
ATOM     11  C   UNL     1       2.190   3.325  20.223  0.00  0.00    +0.000 C 
ATOM     12  O   UNL     1       1.320   2.937  19.454  0.00  0.00    +0.000 OA
ATOM     13  N   UNL     1       3.041   4.366  19.953  0.00  0.00    +0.000 N 
ATOM     14  H   UNL     1       3.819   4.550  20.572  0.00  0.00    +0.000 HD
ENDBRANCH   1  13
BRANCH   1  15
ATOM     15  C   UNL     1       4.310   5.061  18.035  0.00  0.00    +0.000 A 
ATOM     16  N   UNL     1       4.460   4.919  16.727  0.00  0.00    +0.000 NA
ATOM     17  C   UNL     1       5.798   4.776  16.395  0.00  0.00    +0.000 A 
ATOM     18  C   UNL     1       6.658   4.792  17.472  0.00  0.00    +0.000 A 
ATOM     19  S   UNL     1       5.781   4.987  18.932  0.00  0.00    +0.000 S 
BRANCH  17  20
ATOM     20  C   UNL     1       6.227   4.560  15.013  0.00  0.00    +0.000 A 
ATOM     21  C   UNL     1       5.529   3.695  14.151  0.00  0.00    +0.000 A 
ATOM     22  C   UNL     1       5.919   3.547  12.813  0.00  0.00    +0.000 A 
ATOM     23  C   UNL     1       7.012   4.258  12.328  0.00  0.00    +0.000 A 
ATOM     24  C   UNL     1       7.717   5.095  13.185  0.00  0.00    +0.000 A 
ATOM     25  F   UNL     1       8.768   5.780  12.713  0.00  0.00    +0.000 F 
ATOM     26  C   UNL     1       7.342   5.246  14.517  0.00  0.00    +0.000 A 
ENDBRANCH  17  20
ENDBRANCH   1  15
TORSDOF 4
ENDMDL
MODEL 6
REMARK VINA RESULT:      -8.6      3.989      8.299
REMARK  Name = 
REMARK  5 active torsions:
REMARK  status: ('A' for Active; 'I' for Inactive)
REMARK    1  A    between atoms: C_1  and  C_2
REMARK    2  A    between atoms: N_4  and  C_5
REMARK    3  A    between atoms: C_5  and  C_6
REMARK    4  A    between atoms: C_5  and  C_14
REMARK    5  A    between atoms: C_16  and  C_17
REMARK                            x       y       z     vdW  Elec       q    Type
REMARK                         _______ _______ _______ _____ _____    ______ ____
ROOT
ATOM      1  C   UNL     1       3.103   5.426  19.269  0.00  0.00    +0.000 C 
ENDROOT
BRANCH   1   2
ATOM      2  C   UNL     1       4.337   5.197  18.390  0.00  0.00    +0.000 A 
ATOM      3  C   UNL     1       4.246   4.665  17.086  0.00  0.00    +0.000 A 
ATOM      4  C   UNL     1       5.395   4.365  16.347  0.00  0.00    +0.000 A 
ATOM      5  C   UNL     1       6.647   4.609  16.894  0.00  0.00    +0.000 A 
ATOM      6  F   UNL     1       7.746   4.290  16.194  0.00  0.00    +0.000 F 
ATOM      7  C   UNL     1       6.758   5.171  18.159  0.00  0.00    +0.000 A 
ATOM      8  F   UNL     1       7.968   5.414  18.683  0.00  0.00    +0.000 F 
ATOM      9  C   UNL     1       5.618   5.470  18.905  0.00  0.00    +0.000 A 
ENDBRANCH   1   2
BRANCH   1  13
ATOM     10  C   UNL     1       0.637   2.555  19.028  0.00  0.00    +0.000 C 
ATOM     11  C   UNL     1       1.801   3.343  19.564  0.00  0.00    +0.000 C 
ATOM     12  O   UNL     1       2.484   2.951  20.502  0.00  0.00    +0.000 OA
ATOM     13  N   UNL     1       2.007   4.531  18.911  0.00  0.00    +0.000 N 
ATOM     14  H   UNL     1       1.330   4.854  18.234  0.00  0.00    +0.000 HD
ENDBRANCH   1  13
BRANCH   1  15
ATOM     15  C   UNL     1       2.544   6.842  19.295  0.00  0.00    +0.000 A 
ATOM     16  N   UNL     1       1.859   7.332  20.317  0.00  0.00    +0.000 NA
ATOM     17  C   UNL     1       1.381   8.600  20.030  0.00  0.00    +0.000 A 
ATOM     18  C   UNL     1       1.696   9.057  18.768  0.00  0.00    +0.000 A 
ATOM     19  S   UNL     1       2.607   7.878  17.918  0.00  0.00    +0.000 S 
BRANCH  17  20
ATOM     20  C   UNL     1       0.554   9.343  20.981  0.00  0.00    +0.000 A 
ATOM     21  C   UNL     1       0.485   8.981  22.338  0.00  0.00    +0.000 A 
ATOM     22  C   UNL     1      -0.263   9.740  23.246  0.00  0.00    +0.000 A 
ATOM     23  C   UNL     1      -0.952  10.866  22.805  0.00  0.00    +0.000 A 
ATOM     24  C   UNL     1      -0.904  11.212  21.460  0.00  0.00    +0.000 A 
ATOM     25  F   UNL     1      -1.567  12.298  21.040  0.00  0.00    +0.000 F 
ATOM     26  C   UNL     1      -0.168  10.461  20.547  0.00  0.00    +0.000 A 
ENDBRANCH  17  20
ENDBRANCH   1  15
TORSDOF 4
ENDMDL
MODEL 7
REMARK VINA RESULT:      -8.6      0.977      1.370
REMARK  Name = 
REMARK  5 active torsions:
REMARK  status: ('A' for Active; 'I' for Inactive)
REMARK    1  A    between atoms: C_1  and  C_2
REMARK    2  A    between atoms: N_4  and  C_5
REMARK    3  A    between atoms: C_5  and  C_6
REMARK    4  A    between atoms: C_5  and  C_14
REMARK    5  A    between atoms: C_16  and  C_17
REMARK                            x       y       z     vdW  Elec       q    Type
REMARK                         _______ _______ _______ _____ _____    ______ ____
ROOT
ATOM      1  C   UNL     1       3.794   6.073  18.714  0.00  0.00    +0.000 C 
ENDROOT
BRANCH   1   2
ATOM      2  C   UNL     1       2.811   4.925  18.967  0.00  0.00    +0.000 A 
ATOM      3  C   UNL     1       2.102   4.295  17.922  0.00  0.00    +0.000 A 
ATOM      4  C   UNL     1       1.131   3.324  18.191  0.00  0.00    +0.000 A 
ATOM      5  C   UNL     1       0.870   2.959  19.505  0.00  0.00    +0.000 A 
ATOM      6  F   UNL     1      -0.084   2.052  19.759  0.00  0.00    +0.000 F 
ATOM      7  C   UNL     1       1.586   3.538  20.545  0.00  0.00    +0.000 A 
ATOM      8  F   UNL     1       1.338   3.178  21.812  0.00  0.00    +0.000 F 
ATOM      9  C   UNL     1       2.553   4.509  20.287  0.00  0.00    +0.000 A 
ENDBRANCH   1   2
BRANCH   1  13
ATOM     10  C   UNL     1       1.733   9.115  17.775  0.00  0.00    +0.000 C 
ATOM     11  C   UNL     1       2.303   8.047  18.669  0.00  0.00    +0.000 C 
ATOM     12  O   UNL     1       2.026   7.969  19.859  0.00  0.00    +0.000 OA
ATOM     13  N   UNL     1       3.158   7.191  18.024  0.00  0.00    +0.000 N 
ATOM     14  H   UNL     1       3.444   7.389  17.075  0.00  0.00    +0.000 HD
ENDBRANCH   1  13
BRANCH   1  15
ATOM     15  C   UNL     1       5.059   5.723  17.943  0.00  0.00    +0.000 A 
ATOM     16  N   UNL     1       5.078   5.520  16.635  0.00  0.00    +0.000 NA
ATOM     17  C   UNL     1       6.334   5.115  16.215  0.00  0.00    +0.000 A 
ATOM     18  C   UNL     1       7.263   4.993  17.226  0.00  0.00    +0.000 A 
ATOM     19  S   UNL     1       6.554   5.391  18.736  0.00  0.00    +0.000 S 
BRANCH  17  20
ATOM     20  C   UNL     1       6.607   4.784  14.816  0.00  0.00    +0.000 A 
ATOM     21  C   UNL     1       5.938   3.733  14.163  0.00  0.00    +0.000 A 
ATOM     22  C   UNL     1       6.167   3.470  12.806  0.00  0.00    +0.000 A 
ATOM     23  C   UNL     1       7.071   4.251  12.093  0.00  0.00    +0.000 A 
ATOM     24  C   UNL     1       7.750   5.275  12.742  0.00  0.00    +0.000 A 
ATOM     25  F   UNL     1       8.618   6.026  12.051  0.00  0.00    +0.000 F 
ATOM     26  C   UNL     1       7.535   5.542  14.092  0.00  0.00    +0.000 A 
ENDBRANCH  17  20
ENDBRANCH   1  15
TORSDOF 4
ENDMDL
MODEL 8
REMARK VINA RESULT:      -8.5      0.839      1.372
REMARK  Name = 
REMARK  5 active torsions:
REMARK  status: ('A' for Active; 'I' for Inactive)
REMARK    1  A    between atoms: C_1  and  C_2
REMARK    2  A    between atoms: N_4  and  C_5
REMARK    3  A    between atoms: C_5  and  C_6
REMARK    4  A    between atoms: C_5  and  C_14
REMARK    5  A    between atoms: C_16  and  C_17
REMARK                            x       y       z     vdW  Elec       q    Type
REMARK                         _______ _______ _______ _____ _____    ______ ____
ROOT
ATOM      1  C   UNL     1       3.636   6.074  18.510  0.00  0.00    +0.000 C 
ENDROOT
BRANCH   1   2
ATOM      2  C   UNL     1       2.694   4.879  18.688  0.00  0.00    +0.000 A 
ATOM      3  C   UNL     1       1.761   4.805  19.745  0.00  0.00    +0.000 A 
ATOM      4  C   UNL     1       0.989   3.656  19.947  0.00  0.00    +0.000 A 
ATOM      5  C   UNL     1       1.127   2.575  19.086  0.00  0.00    +0.000 A 
ATOM      6  F   UNL     1       0.408   1.464  19.303  0.00  0.00    +0.000 F 
ATOM      7  C   UNL     1       2.009   2.644  18.016  0.00  0.00    +0.000 A 
ATOM      8  F   UNL     1       2.135   1.603  17.181  0.00  0.00    +0.000 F 
ATOM      9  C   UNL     1       2.785   3.784  17.808  0.00  0.00    +0.000 A 
ENDBRANCH   1   2
BRANCH   1  13
ATOM     10  C   UNL     1       1.595   9.183  17.767  0.00  0.00    +0.000 C 
ATOM     11  C   UNL     1       2.228   8.107  18.606  0.00  0.00    +0.000 C 
ATOM     12  O   UNL     1       2.097   8.058  19.823  0.00  0.00    +0.000 OA
ATOM     13  N   UNL     1       2.964   7.207  17.879  0.00  0.00    +0.000 N 
ATOM     14  H   UNL     1       3.139   7.378  16.899  0.00  0.00    +0.000 HD
ENDBRANCH   1  13
BRANCH   1  15
ATOM     15  C   UNL     1       4.918   5.815  17.731  0.00  0.00    +0.000 A 
ATOM     16  N   UNL     1       4.938   5.567  16.431  0.00  0.00    +0.000 NA
ATOM     17  C   UNL     1       6.222   5.265  16.004  0.00  0.00    +0.000 A 
ATOM     18  C   UNL     1       7.171   5.268  17.004  0.00  0.00    +0.000 A 
ATOM     19  S   UNL     1       6.447   5.654  18.510  0.00  0.00    +0.000 S 
BRANCH  17  20
ATOM     20  C   UNL     1       6.506   4.908  14.614  0.00  0.00    +0.000 A 
ATOM     21  C   UNL     1       7.583   5.478  13.912  0.00  0.00    +0.000 A 
ATOM     22  C   UNL     1       7.876   5.080  12.601  0.00  0.00    +0.000 A 
ATOM     23  C   UNL     1       7.092   4.112  11.980  0.00  0.00    +0.000 A 
ATOM     24  C   UNL     1       6.013   3.565  12.664  0.00  0.00    +0.000 A 
ATOM     25  F   UNL     1       5.262   2.632  12.063  0.00  0.00    +0.000 F 
ATOM     26  C   UNL     1       5.709   3.958  13.965  0.00  0.00    +0.000 A 
ENDBRANCH  17  20
ENDBRANCH   1  15
TORSDOF 4
ENDMDL
MODEL 9
REMARK VINA RESULT:      -8.4      3.664      8.242
REMARK  Name = 
REMARK  5 active torsions:
REMARK  status: ('A' for Active; 'I' for Inactive)
REMARK    1  A    between atoms: C_1  and  C_2
REMARK    2  A    between atoms: N_4  and  C_5
REMARK    3  A    between atoms: C_5  and  C_6
REMARK    4  A    between atoms: C_5  and  C_14
REMARK    5  A    between atoms: C_16  and  C_17
REMARK                            x       y       z     vdW  Elec       q    Type
REMARK                         _______ _______ _______ _____ _____    ______ ____
ROOT
ATOM      1  C   UNL     1       3.211   5.437  19.064  0.00  0.00    +0.000 C 
ENDROOT
BRANCH   1   2
ATOM      2  C   UNL     1       4.426   5.209  18.159  0.00  0.00    +0.000 A 
ATOM      3  C   UNL     1       4.307   4.682  16.855  0.00  0.00    +0.000 A 
ATOM      4  C   UNL     1       5.440   4.383  16.092  0.00  0.00    +0.000 A 
ATOM      5  C   UNL     1       6.704   4.624  16.613  0.00  0.00    +0.000 A 
ATOM      6  F   UNL     1       7.787   4.307  15.889  0.00  0.00    +0.000 F 
ATOM      7  C   UNL     1       6.842   5.182  17.877  0.00  0.00    +0.000 A 
ATOM      8  F   UNL     1       8.062   5.423  18.376  0.00  0.00    +0.000 F 
ATOM      9  C   UNL     1       5.718   5.480  18.648  0.00  0.00    +0.000 A 
ENDBRANCH   1   2
BRANCH   1  13
ATOM     10  C   UNL     1       0.755   2.551  18.919  0.00  0.00    +0.000 C 
ATOM     11  C   UNL     1       1.922   3.355  19.423  0.00  0.00    +0.000 C 
ATOM     12  O   UNL     1       2.619   2.987  20.360  0.00  0.00    +0.000 OA
ATOM     13  N   UNL     1       2.115   4.529  18.741  0.00  0.00    +0.000 N 
ATOM     14  H   UNL     1       1.427   4.834  18.066  0.00  0.00    +0.000 HD
ENDBRANCH   1  13
BRANCH   1  15
ATOM     15  C   UNL     1       2.641   6.848  19.090  0.00  0.00    +0.000 A 
ATOM     16  N   UNL     1       2.024   7.361  20.144  0.00  0.00    +0.000 NA
ATOM     17  C   UNL     1       1.515   8.617  19.856  0.00  0.00    +0.000 A 
ATOM     18  C   UNL     1       1.736   9.040  18.563  0.00  0.00    +0.000 A 
ATOM     19  S   UNL     1       2.597   7.845  17.684  0.00  0.00    +0.000 S 
BRANCH  17  20
ATOM     20  C   UNL     1       0.750   9.380  20.843  0.00  0.00    +0.000 A 
ATOM     21  C   UNL     1      -0.048  10.477  20.470  0.00  0.00    +0.000 A 
ATOM     22  C   UNL     1      -0.821  11.157  21.419  0.00  0.00    +0.000 A 
ATOM     23  C   UNL     1      -0.800  10.750  22.749  0.00  0.00    +0.000 A 
ATOM     24  C   UNL     1       0.006   9.682  23.124  0.00  0.00    +0.000 A 
ATOM     25  F   UNL     1       0.022   9.292  24.406  0.00  0.00    +0.000 F 
ATOM     26  C   UNL     1       0.783   9.001  22.190  0.00  0.00    +0.000 A 
ENDBRANCH  17  20
ENDBRANCH   1  15
TORSDOF 4
ENDMDL
