MODEL 1
REMARK VINA RESULT:      -7.9      0.000      0.000
REMARK  Name = 
REMARK  7 active torsions:
REMARK  status: ('A' for Active; 'I' for Inactive)
REMARK    1  A    between atoms: C_1  and  C_2
REMARK    2  A    between atoms: C_5  and  O_6
REMARK    3  A    between atoms: O_6  and  C_7
REMARK    4  A    between atoms: C_7  and  C_8
REMARK    5  A    between atoms: C_8  and  O_9
REMARK    6  A    between atoms: O_9  and  C_10
REMARK    7  A    between atoms: C_18  and  N_19
REMARK                            x       y       z     vdW  Elec       q    Type
REMARK                         _______ _______ _______ _____ _____    ______ ____
ROOT
ATOM      1  O   UNL     1       5.207   4.347  18.029  0.00  0.00    +0.000 OA
ENDROOT
BRANCH   1   6
ATOM      2  C   UNL     1       7.618   5.146  12.992  0.00  0.00    +0.000 C 
ATOM      3  C   UNL     1       6.957   4.885  14.313  0.00  0.00    +0.000 A 
ATOM      4  C   UNL     1       5.739   4.225  14.381  0.00  0.00    +0.000 A 
ATOM      5  C   UNL     1       5.142   4.016  15.623  0.00  0.00    +0.000 A 
ATOM      6  C   UNL     1       5.773   4.452  16.788  0.00  0.00    +0.000 A 
ATOM      7  C   UNL     1       6.995   5.121  16.632  0.00  0.00    +0.000 A 
ATOM      8  N   UNL     1       7.594   5.335  15.416  0.00  0.00    +0.000 NA
BRANCH   7   9
ATOM      9  N   UNL     1       7.651   5.587  17.864  0.00  0.00    +0.000 N 
ATOM     10  O   UNL     1       8.093   4.722  18.640  0.00  0.00    +0.000 OA
ATOM     11  O   UNL     1       7.748   6.814  18.027  0.00  0.00    +0.000 OA
ENDBRANCH   7   9
ENDBRANCH   1   6
BRANCH   1  12
ATOM     12  C   UNL     1       4.627   5.522  18.605  0.00  0.00    +0.000 C 
BRANCH  12  13
ATOM     13  C   UNL     1       3.477   6.050  17.748  0.00  0.00    +0.000 C 
BRANCH  13  14
ATOM     14  O   UNL     1       2.463   5.044  17.686  0.00  0.00    +0.000 OA
BRANCH  14  15
ATOM     15  C   UNL     1       2.141   4.414  18.860  0.00  0.00    +0.000 A 
ATOM     16  C   UNL     1       1.802   5.092  20.038  0.00  0.00    +0.000 A 
ATOM     17  C   UNL     1       1.445   4.378  21.183  0.00  0.00    +0.000 A 
ATOM     18  C   UNL     1       1.422   2.989  21.153  0.00  0.00    +0.000 A 
ATOM     19  F   UNL     1       1.076   2.314  22.255  0.00  0.00    +0.000 F 
ATOM     20  C   UNL     1       1.746   2.294  19.997  0.00  0.00    +0.000 A 
ATOM     21  C   UNL     1       2.099   3.008  18.851  0.00  0.00    +0.000 A 
ATOM     22 CL   UNL     1       2.499   2.106  17.429  0.00  0.00    +0.000 Cl
ENDBRANCH  14  15
ENDBRANCH  13  14
ENDBRANCH  12  13
ENDBRANCH   1  12
TORSDOF 6
ENDMDL
MODEL 2
REMARK VINA RESULT:      -7.9      6.343      8.455
REMARK  Name = 
REMARK  7 active torsions:
REMARK  status: ('A' for Active; 'I' for Inactive)
REMARK    1  A    between atoms: C_1  and  C_2
REMARK    2  A    between atoms: C_5  and  O_6
REMARK    3  A    between atoms: O_6  and  C_7
REMARK    4  A    between atoms: C_7  and  C_8
REMARK    5  A    between atoms: C_8  and  O_9
REMARK    6  A    between atoms: O_9  and  C_10
REMARK    7  A    between atoms: C_18  and  N_19
REMARK                            x       y       z     vdW  Elec       q    Type
REMARK                         _______ _______ _______ _____ _____    ______ ____
ROOT
ATOM      1  O   UNL     1       7.032   7.376  16.842  0.00  0.00    +0.000 OA
ENDROOT
BRANCH   1   6
ATOM      2  C   UNL     1       2.664   3.878  17.554  0.00  0.00    +0.000 C 
ATOM      3  C   UNL     1       3.808   4.838  17.408  0.00  0.00    +0.000 A 
ATOM      4  C   UNL     1       3.647   6.185  17.696  0.00  0.00    +0.000 A 
ATOM      5  C   UNL     1       4.725   7.054  17.532  0.00  0.00    +0.000 A 
ATOM      6  C   UNL     1       5.958   6.568  17.098  0.00  0.00    +0.000 A 
ATOM      7  C   UNL     1       6.034   5.196  16.816  0.00  0.00    +0.000 A 
ATOM      8  N   UNL     1       4.981   4.330  16.973  0.00  0.00    +0.000 NA
BRANCH   7   9
ATOM      9  N   UNL     1       7.335   4.693  16.350  0.00  0.00    +0.000 N 
ATOM     10  O   UNL     1       8.105   4.217  17.203  0.00  0.00    +0.000 OA
ATOM     11  O   UNL     1       7.561   4.745  15.130  0.00  0.00    +0.000 OA
ENDBRANCH   7   9
ENDBRANCH   1   6
BRANCH   1  12
ATOM     12  C   UNL     1       7.843   7.789  17.948  0.00  0.00    +0.000 C 
BRANCH  12  13
ATOM     13  C   UNL     1       8.158   9.282  17.876  0.00  0.00    +0.000 C 
BRANCH  13  14
ATOM     14  O   UNL     1       8.910   9.641  19.038  0.00  0.00    +0.000 OA
BRANCH  14  15
ATOM     15  C   UNL     1       9.670  10.779  18.957  0.00  0.00    +0.000 A 
ATOM     16  C   UNL     1      10.347  11.181  17.799  0.00  0.00    +0.000 A 
ATOM     17  C   UNL     1      11.067  12.378  17.783  0.00  0.00    +0.000 A 
ATOM     18  C   UNL     1      11.109  13.174  18.921  0.00  0.00    +0.000 A 
ATOM     19  F   UNL     1      11.800  14.320  18.895  0.00  0.00    +0.000 F 
ATOM     20  C   UNL     1      10.441  12.802  20.079  0.00  0.00    +0.000 A 
ATOM     21  C   UNL     1       9.717  11.609  20.093  0.00  0.00    +0.000 A 
ATOM     22 CL   UNL     1       8.899  11.177  21.555  0.00  0.00    +0.000 Cl
ENDBRANCH  14  15
ENDBRANCH  13  14
ENDBRANCH  12  13
ENDBRANCH   1  12
TORSDOF 6
ENDMDL
MODEL 3
REMARK VINA RESULT:      -7.8      2.356      3.341
REMARK  Name = 
REMARK  7 active torsions:
REMARK  status: ('A' for Active; 'I' for Inactive)
REMARK    1  A    between atoms: C_1  and  C_2
REMARK    2  A    between atoms: C_5  and  O_6
REMARK    3  A    between atoms: O_6  and  C_7
REMARK    4  A    between atoms: C_7  and  C_8
REMARK    5  A    between atoms: C_8  and  O_9
REMARK    6  A    between atoms: O_9  and  C_10
REMARK    7  A    between atoms: C_18  and  N_19
REMARK                            x       y       z     vdW  Elec       q    Type
REMARK                         _______ _______ _______ _____ _____    ______ ____
ROOT
ATOM      1  O   UNL     1       6.379   4.215  17.307  0.00  0.00    +0.000 OA
ENDROOT
BRANCH   1   6
ATOM      2  C   UNL     1       8.649   9.292  18.253  0.00  0.00    +0.000 C 
ATOM      3  C   UNL     1       8.035   7.937  18.056  0.00  0.00    +0.000 A 
ATOM      4  C   UNL     1       8.178   6.945  19.015  0.00  0.00    +0.000 A 
ATOM      5  C   UNL     1       7.611   5.691  18.792  0.00  0.00    +0.000 A 
ATOM      6  C   UNL     1       6.893   5.443  17.622  0.00  0.00    +0.000 A 
ATOM      7  C   UNL     1       6.806   6.494  16.698  0.00  0.00    +0.000 A 
ATOM      8  N   UNL     1       7.360   7.733  16.905  0.00  0.00    +0.000 NA
BRANCH   7   9
ATOM      9  N   UNL     1       6.056   6.222  15.463  0.00  0.00    +0.000 N 
ATOM     10  O   UNL     1       4.959   6.789  15.322  0.00  0.00    +0.000 OA
ATOM     11  O   UNL     1       6.588   5.472  14.629  0.00  0.00    +0.000 OA
ENDBRANCH   7   9
ENDBRANCH   1   6
BRANCH   1  12
ATOM     12  C   UNL     1       5.143   3.826  17.916  0.00  0.00    +0.000 C 
BRANCH  12  13
ATOM     13  C   UNL     1       4.011   3.781  16.891  0.00  0.00    +0.000 C 
BRANCH  13  14
ATOM     14  O   UNL     1       2.884   4.472  17.433  0.00  0.00    +0.000 OA
BRANCH  14  15
ATOM     15  C   UNL     1       2.341   3.964  18.586  0.00  0.00    +0.000 A 
ATOM     16  C   UNL     1       1.926   2.635  18.729  0.00  0.00    +0.000 A 
ATOM     17  C   UNL     1       1.422   2.182  19.950  0.00  0.00    +0.000 A 
ATOM     18  C   UNL     1       1.336   3.054  21.028  0.00  0.00    +0.000 A 
ATOM     19  F   UNL     1       0.854   2.610  22.195  0.00  0.00    +0.000 F 
ATOM     20  C   UNL     1       1.748   4.374  20.915  0.00  0.00    +0.000 A 
ATOM     21  C   UNL     1       2.255   4.825  19.696  0.00  0.00    +0.000 A 
ATOM     22 CL   UNL     1       2.757   6.478  19.591  0.00  0.00    +0.000 Cl
ENDBRANCH  14  15
ENDBRANCH  13  14
ENDBRANCH  12  13
ENDBRANCH   1  12
TORSDOF 6
ENDMDL
MODEL 4
REMARK VINA RESULT:      -7.7      1.956      2.672
REMARK  Name = 
REMARK  7 active torsions:
REMARK  status: ('A' for Active; 'I' for Inactive)
REMARK    1  A    between atoms: C_1  and  C_2
REMARK    2  A    between atoms: C_5  and  O_6
REMARK    3  A    between atoms: O_6  and  C_7
REMARK    4  A    between atoms: C_7  and  C_8
REMARK    5  A    between atoms: C_8  and  O_9
REMARK    6  A    between atoms: O_9  and  C_10
REMARK    7  A    between atoms: C_18  and  N_19
REMARK                            x       y       z     vdW  Elec       q    Type
REMARK                         _______ _______ _______ _____ _____    ______ ____
ROOT
ATOM      1  O   UNL     1       5.129   3.857  17.362  0.00  0.00    +0.000 OA
ENDROOT
BRANCH   1   6
ATOM      2  C   UNL     1       7.898   5.341  12.676  0.00  0.00    +0.000 C 
ATOM      3  C   UNL     1       7.149   4.898  13.898  0.00  0.00    +0.000 A 
ATOM      4  C   UNL     1       6.013   4.108  13.790  0.00  0.00    +0.000 A 
ATOM      5  C   UNL     1       5.330   3.730  14.944  0.00  0.00    +0.000 A 
ATOM      6  C   UNL     1       5.794   4.128  16.197  0.00  0.00    +0.000 A 
ATOM      7  C   UNL     1       6.941   4.935  16.220  0.00  0.00    +0.000 A 
ATOM      8  N   UNL     1       7.623   5.316  15.092  0.00  0.00    +0.000 NA
BRANCH   7   9
ATOM      9  N   UNL     1       7.419   5.359  17.545  0.00  0.00    +0.000 N 
ATOM     10  O   UNL     1       7.243   6.548  17.864  0.00  0.00    +0.000 OA
ATOM     11  O   UNL     1       7.935   4.492  18.267  0.00  0.00    +0.000 OA
ENDBRANCH   7   9
ENDBRANCH   1   6
BRANCH   1  12
ATOM     12  C   UNL     1       4.220   2.751  17.376  0.00  0.00    +0.000 C 
BRANCH  12  13
ATOM     13  C   UNL     1       3.306   2.802  18.600  0.00  0.00    +0.000 C 
BRANCH  13  14
ATOM     14  O   UNL     1       2.183   3.631  18.290  0.00  0.00    +0.000 OA
BRANCH  14  15
ATOM     15  C   UNL     1       2.153   4.876  18.864  0.00  0.00    +0.000 A 
ATOM     16  C   UNL     1       2.499   6.052  18.188  0.00  0.00    +0.000 A 
ATOM     17  C   UNL     1       2.401   7.288  18.831  0.00  0.00    +0.000 A 
ATOM     18  C   UNL     1       1.955   7.350  20.145  0.00  0.00    +0.000 A 
ATOM     19  F   UNL     1       1.863   8.540  20.751  0.00  0.00    +0.000 F 
ATOM     20  C   UNL     1       1.599   6.200  20.835  0.00  0.00    +0.000 A 
ATOM     21  C   UNL     1       1.693   4.965  20.191  0.00  0.00    +0.000 A 
ATOM     22 CL   UNL     1       1.242   3.553  21.084  0.00  0.00    +0.000 Cl
ENDBRANCH  14  15
ENDBRANCH  13  14
ENDBRANCH  12  13
ENDBRANCH   1  12
TORSDOF 6
ENDMDL
MODEL 5
REMARK VINA RESULT:      -7.7      1.585      1.948
REMARK  Name = 
REMARK  7 active torsions:
REMARK  status: ('A' for Active; 'I' for Inactive)
REMARK    1  A    between atoms: C_1  and  C_2
REMARK    2  A    between atoms: C_5  and  O_6
REMARK    3  A    between atoms: O_6  and  C_7
REMARK    4  A    between atoms: C_7  and  C_8
REMARK    5  A    between atoms: C_8  and  O_9
REMARK    6  A    between atoms: O_9  and  C_10
REMARK    7  A    between atoms: C_18  and  N_19
REMARK                            x       y       z     vdW  Elec       q    Type
REMARK                         _______ _______ _______ _____ _____    ______ ____
ROOT
ATOM      1  O   UNL     1       5.276   3.582  16.659  0.00  0.00    +0.000 OA
ENDROOT
BRANCH   1   6
ATOM      2  C   UNL     1       8.222   5.648  12.314  0.00  0.00    +0.000 C 
ATOM      3  C   UNL     1       7.431   5.051  13.441  0.00  0.00    +0.000 A 
ATOM      4  C   UNL     1       6.374   4.189  13.190  0.00  0.00    +0.000 A 
ATOM      5  C   UNL     1       5.648   3.667  14.260  0.00  0.00    +0.000 A 
ATOM      6  C   UNL     1       5.993   3.997  15.570  0.00  0.00    +0.000 A 
ATOM      7  C   UNL     1       7.066   4.884  15.738  0.00  0.00    +0.000 A 
ATOM      8  N   UNL     1       7.788   5.406  14.694  0.00  0.00    +0.000 NA
BRANCH   7   9
ATOM      9  N   UNL     1       7.418   5.235  17.122  0.00  0.00    +0.000 N 
ATOM     10  O   UNL     1       8.011   4.377  17.798  0.00  0.00    +0.000 OA
ATOM     11  O   UNL     1       7.128   6.379  17.509  0.00  0.00    +0.000 OA
ENDBRANCH   7   9
ENDBRANCH   1   6
BRANCH   1  12
ATOM     12  C   UNL     1       3.915   4.012  16.772  0.00  0.00    +0.000 C 
BRANCH  12  13
ATOM     13  C   UNL     1       3.819   5.369  17.467  0.00  0.00    +0.000 C 
BRANCH  13  14
ATOM     14  O   UNL     1       4.275   5.220  18.813  0.00  0.00    +0.000 OA
BRANCH  14  15
ATOM     15  C   UNL     1       3.498   4.463  19.651  0.00  0.00    +0.000 A 
ATOM     16  C   UNL     1       3.745   3.113  19.931  0.00  0.00    +0.000 A 
ATOM     17  C   UNL     1       2.932   2.420  20.831  0.00  0.00    +0.000 A 
ATOM     18  C   UNL     1       1.876   3.075  21.453  0.00  0.00    +0.000 A 
ATOM     19  F   UNL     1       1.103   2.403  22.315  0.00  0.00    +0.000 F 
ATOM     20  C   UNL     1       1.615   4.414  21.199  0.00  0.00    +0.000 A 
ATOM     21  C   UNL     1       2.430   5.107  20.304  0.00  0.00    +0.000 A 
ATOM     22 CL   UNL     1       2.073   6.775  20.010  0.00  0.00    +0.000 Cl
ENDBRANCH  14  15
ENDBRANCH  13  14
ENDBRANCH  12  13
ENDBRANCH   1  12
TORSDOF 6
ENDMDL
MODEL 6
REMARK VINA RESULT:      -7.7      2.571      3.319
REMARK  Name = 
REMARK  7 active torsions:
REMARK  status: ('A' for Active; 'I' for Inactive)
REMARK    1  A    between atoms: C_1  and  C_2
REMARK    2  A    between atoms: C_5  and  O_6
REMARK    3  A    between atoms: O_6  and  C_7
REMARK    4  A    between atoms: C_7  and  C_8
REMARK    5  A    between atoms: C_8  and  O_9
REMARK    6  A    between atoms: O_9  and  C_10
REMARK    7  A    between atoms: C_18  and  N_19
REMARK                            x       y       z     vdW  Elec       q    Type
REMARK                         _______ _______ _______ _____ _____    ______ ____
ROOT
ATOM      1  O   UNL     1       5.108   4.018  17.676  0.00  0.00    +0.000 OA
ENDROOT
BRANCH   1   6
ATOM      2  C   UNL     1       7.790   5.220  12.861  0.00  0.00    +0.000 C 
ATOM      3  C   UNL     1       7.059   4.853  14.119  0.00  0.00    +0.000 A 
ATOM      4  C   UNL     1       5.859   4.159  14.068  0.00  0.00    +0.000 A 
ATOM      5  C   UNL     1       5.195   3.850  15.255  0.00  0.00    +0.000 A 
ATOM      6  C   UNL     1       5.743   4.221  16.482  0.00  0.00    +0.000 A 
ATOM      7  C   UNL     1       6.953   4.930  16.447  0.00  0.00    +0.000 A 
ATOM      8  N   UNL     1       7.616   5.242  15.286  0.00  0.00    +0.000 NA
BRANCH   7   9
ATOM      9  N   UNL     1       7.520   5.327  17.745  0.00  0.00    +0.000 N 
ATOM     10  O   UNL     1       7.320   6.494  18.125  0.00  0.00    +0.000 OA
ATOM     11  O   UNL     1       8.129   4.458  18.388  0.00  0.00    +0.000 OA
ENDBRANCH   7   9
ENDBRANCH   1   6
BRANCH   1  12
ATOM     12  C   UNL     1       3.783   3.476  17.651  0.00  0.00    +0.000 C 
BRANCH  12  13
ATOM     13  C   UNL     1       2.885   4.162  18.680  0.00  0.00    +0.000 C 
BRANCH  13  14
ATOM     14  O   UNL     1       3.562   5.322  19.168  0.00  0.00    +0.000 OA
BRANCH  14  15
ATOM     15  C   UNL     1       2.819   6.468  19.291  0.00  0.00    +0.000 A 
ATOM     16  C   UNL     1       2.022   6.760  20.404  0.00  0.00    +0.000 A 
ATOM     17  C   UNL     1       1.328   7.970  20.475  0.00  0.00    +0.000 A 
ATOM     18  C   UNL     1       1.432   8.889  19.437  0.00  0.00    +0.000 A 
ATOM     19  F   UNL     1       0.765  10.046  19.515  0.00  0.00    +0.000 F 
ATOM     20  C   UNL     1       2.222   8.626  18.327  0.00  0.00    +0.000 A 
ATOM     21  C   UNL     1       2.919   7.419  18.258  0.00  0.00    +0.000 A 
ATOM     22 CL   UNL     1       3.891   7.125  16.858  0.00  0.00    +0.000 Cl
ENDBRANCH  14  15
ENDBRANCH  13  14
ENDBRANCH  12  13
ENDBRANCH   1  12
TORSDOF 6
ENDMDL
MODEL 7
REMARK VINA RESULT:      -7.7      3.977      6.591
REMARK  Name = 
REMARK  7 active torsions:
REMARK  status: ('A' for Active; 'I' for Inactive)
REMARK    1  A    between atoms: C_1  and  C_2
REMARK    2  A    between atoms: C_5  and  O_6
REMARK    3  A    between atoms: O_6  and  C_7
REMARK    4  A    between atoms: C_7  and  C_8
REMARK    5  A    between atoms: C_8  and  O_9
REMARK    6  A    between atoms: O_9  and  C_10
REMARK    7  A    between atoms: C_18  and  N_19
REMARK                            x       y       z     vdW  Elec       q    Type
REMARK                         _______ _______ _______ _____ _____    ______ ____
ROOT
ATOM      1  O   UNL     1       3.506   3.441  19.180  0.00  0.00    +0.000 OA
ENDROOT
BRANCH   1   6
ATOM      2  C   UNL     1       1.079   8.196  21.002  0.00  0.00    +0.000 C 
ATOM      3  C   UNL     1       1.770   6.961  20.505  0.00  0.00    +0.000 A 
ATOM      4  C   UNL     1       2.655   7.021  19.439  0.00  0.00    +0.000 A 
ATOM      5  C   UNL     1       3.267   5.851  18.990  0.00  0.00    +0.000 A 
ATOM      6  C   UNL     1       3.001   4.635  19.619  0.00  0.00    +0.000 A 
ATOM      7  C   UNL     1       2.085   4.657  20.680  0.00  0.00    +0.000 A 
ATOM      8  N   UNL     1       1.476   5.801  21.132  0.00  0.00    +0.000 NA
BRANCH   7   9
ATOM      9  N   UNL     1       1.803   3.369  21.332  0.00  0.00    +0.000 N 
ATOM     10  O   UNL     1       2.413   3.115  22.385  0.00  0.00    +0.000 OA
ATOM     11  O   UNL     1       0.949   2.640  20.803  0.00  0.00    +0.000 OA
ENDBRANCH   7   9
ENDBRANCH   1   6
BRANCH   1  12
ATOM     12  C   UNL     1       3.365   3.120  17.792  0.00  0.00    +0.000 C 
BRANCH  12  13
ATOM     13  C   UNL     1       4.728   2.967  17.118  0.00  0.00    +0.000 C 
BRANCH  13  14
ATOM     14  O   UNL     1       5.047   4.197  16.463  0.00  0.00    +0.000 OA
BRANCH  14  15
ATOM     15  C   UNL     1       5.930   5.030  17.103  0.00  0.00    +0.000 A 
ATOM     16  C   UNL     1       6.792   4.611  18.124  0.00  0.00    +0.000 A 
ATOM     17  C   UNL     1       7.693   5.510  18.697  0.00  0.00    +0.000 A 
ATOM     18  C   UNL     1       7.737   6.824  18.250  0.00  0.00    +0.000 A 
ATOM     19  F   UNL     1       8.606   7.678  18.804  0.00  0.00    +0.000 F 
ATOM     20  C   UNL     1       6.899   7.263  17.234  0.00  0.00    +0.000 A 
ATOM     21  C   UNL     1       6.001   6.363  16.658  0.00  0.00    +0.000 A 
ATOM     22 CL   UNL     1       4.971   6.946  15.397  0.00  0.00    +0.000 Cl
ENDBRANCH  14  15
ENDBRANCH  13  14
ENDBRANCH  12  13
ENDBRANCH   1  12
TORSDOF 6
ENDMDL
MODEL 8
REMARK VINA RESULT:      -7.6      2.634      3.351
REMARK  Name = 
REMARK  7 active torsions:
REMARK  status: ('A' for Active; 'I' for Inactive)
REMARK    1  A    between atoms: C_1  and  C_2
REMARK    2  A    between atoms: C_5  and  O_6
REMARK    3  A    between atoms: O_6  and  C_7
REMARK    4  A    between atoms: C_7  and  C_8
REMARK    5  A    between atoms: C_8  and  O_9
REMARK    6  A    between atoms: O_9  and  C_10
REMARK    7  A    between atoms: C_18  and  N_19
REMARK                            x       y       z     vdW  Elec       q    Type
REMARK                         _______ _______ _______ _____ _____    ______ ____
ROOT
ATOM      1  O   UNL     1       5.186   3.813  17.399  0.00  0.00    +0.000 OA
ENDROOT
BRANCH   1   6
ATOM      2  C   UNL     1       7.949   5.410  12.747  0.00  0.00    +0.000 C 
ATOM      3  C   UNL     1       7.204   4.936  13.960  0.00  0.00    +0.000 A 
ATOM      4  C   UNL     1       6.113   4.088  13.839  0.00  0.00    +0.000 A 
ATOM      5  C   UNL     1       5.432   3.681  14.986  0.00  0.00    +0.000 A 
ATOM      6  C   UNL     1       5.855   4.111  16.243  0.00  0.00    +0.000 A 
ATOM      7  C   UNL     1       6.957   4.977  16.278  0.00  0.00    +0.000 A 
ATOM      8  N   UNL     1       7.637   5.386  15.158  0.00  0.00    +0.000 NA
BRANCH   7   9
ATOM      9  N   UNL     1       7.391   5.434  17.607  0.00  0.00    +0.000 N 
ATOM     10  O   UNL     1       8.014   4.624  18.316  0.00  0.00    +0.000 OA
ATOM     11  O   UNL     1       7.136   6.609  17.915  0.00  0.00    +0.000 OA
ENDBRANCH   7   9
ENDBRANCH   1   6
BRANCH   1  12
ATOM     12  C   UNL     1       3.819   3.400  17.299  0.00  0.00    +0.000 C 
BRANCH  12  13
ATOM     13  C   UNL     1       2.867   4.561  17.586  0.00  0.00    +0.000 C 
BRANCH  13  14
ATOM     14  O   UNL     1       3.544   5.503  18.421  0.00  0.00    +0.000 OA
BRANCH  14  15
ATOM     15  C   UNL     1       2.904   6.691  18.662  0.00  0.00    +0.000 A 
ATOM     16  C   UNL     1       2.846   7.743  17.739  0.00  0.00    +0.000 A 
ATOM     17  C   UNL     1       2.136   8.907  18.042  0.00  0.00    +0.000 A 
ATOM     18  C   UNL     1       1.482   9.020  19.263  0.00  0.00    +0.000 A 
ATOM     19  F   UNL     1       0.803  10.138  19.543  0.00  0.00    +0.000 F 
ATOM     20  C   UNL     1       1.518   7.989  20.191  0.00  0.00    +0.000 A 
ATOM     21  C   UNL     1       2.223   6.824  19.886  0.00  0.00    +0.000 A 
ATOM     22 CL   UNL     1       2.247   5.561  21.069  0.00  0.00    +0.000 Cl
ENDBRANCH  14  15
ENDBRANCH  13  14
ENDBRANCH  12  13
ENDBRANCH   1  12
TORSDOF 6
ENDMDL
MODEL 9
REMARK VINA RESULT:      -7.4      6.270      8.144
REMARK  Name = 
REMARK  7 active torsions:
REMARK  status: ('A' for Active; 'I' for Inactive)
REMARK    1  A    between atoms: C_1  and  C_2
REMARK    2  A    between atoms: C_5  and  O_6
REMARK    3  A    between atoms: O_6  and  C_7
REMARK    4  A    between atoms: C_7  and  C_8
REMARK    5  A    between atoms: C_8  and  O_9
REMARK    6  A    between atoms: O_9  and  C_10
REMARK    7  A    between atoms: C_18  and  N_19
REMARK                            x       y       z     vdW  Elec       q    Type
REMARK                         _______ _______ _______ _____ _____    ______ ____
ROOT
ATOM      1  O   UNL     1       6.926   7.640  16.856  0.00  0.00    +0.000 OA
ENDROOT
BRANCH   1   6
ATOM      2  C   UNL     1       2.687   3.973  17.485  0.00  0.00    +0.000 C 
ATOM      3  C   UNL     1       3.797   4.974  17.364  0.00  0.00    +0.000 A 
ATOM      4  C   UNL     1       3.611   6.293  17.750  0.00  0.00    +0.000 A 
ATOM      5  C   UNL     1       4.658   7.203  17.607  0.00  0.00    +0.000 A 
ATOM      6  C   UNL     1       5.886   6.785  17.095  0.00  0.00    +0.000 A 
ATOM      7  C   UNL     1       5.988   5.439  16.716  0.00  0.00    +0.000 A 
ATOM      8  N   UNL     1       4.966   4.533  16.851  0.00  0.00    +0.000 NA
BRANCH   7   9
ATOM      9  N   UNL     1       7.283   5.008  16.167  0.00  0.00    +0.000 N 
ATOM     10  O   UNL     1       7.535   5.310  14.988  0.00  0.00    +0.000 OA
ATOM     11  O   UNL     1       8.050   4.401  16.932  0.00  0.00    +0.000 OA
ENDBRANCH   7   9
ENDBRANCH   1   6
BRANCH   1  12
ATOM     12  C   UNL     1       7.874   7.858  17.907  0.00  0.00    +0.000 C 
BRANCH  12  13
ATOM     13  C   UNL     1       8.150   9.348  18.104  0.00  0.00    +0.000 C 
BRANCH  13  14
ATOM     14  O   UNL     1       9.376   9.488  18.827  0.00  0.00    +0.000 OA
BRANCH  14  15
ATOM     15  C   UNL     1       9.529  10.628  19.574  0.00  0.00    +0.000 A 
ATOM     16  C   UNL     1       8.998  10.791  20.859  0.00  0.00    +0.000 A 
ATOM     17  C   UNL     1       9.235  11.968  21.574  0.00  0.00    +0.000 A 
ATOM     18  C   UNL     1      10.002  12.978  21.007  0.00  0.00    +0.000 A 
ATOM     19  F   UNL     1      10.224  14.101  21.701  0.00  0.00    +0.000 F 
ATOM     20  C   UNL     1      10.545  12.838  19.738  0.00  0.00    +0.000 A 
ATOM     21  C   UNL     1      10.313  11.660  19.026  0.00  0.00    +0.000 A 
ATOM     22 CL   UNL     1      11.004  11.522  17.446  0.00  0.00    +0.000 Cl
ENDBRANCH  14  15
ENDBRANCH  13  14
ENDBRANCH  12  13
ENDBRANCH   1  12
TORSDOF 6
ENDMDL
