MODEL 1
REMARK VINA RESULT:      -6.6      0.000      0.000
REMARK  Name = 
REMARK  7 active torsions:
REMARK  status: ('A' for Active; 'I' for Inactive)
REMARK    1  A    between atoms: C_2  and  O_3
REMARK    2  A    between atoms: C_2  and  C_4
REMARK    3  A    between atoms: C_7  and  C_8
REMARK    4  A    between atoms: C_13  and  O_14
REMARK    5  A    between atoms: C_16  and  C_18
REMARK    6  A    between atoms: C_18  and  C_19
REMARK    7  A    between atoms: C_19  and  S_20
REMARK                            x       y       z     vdW  Elec       q    Type
REMARK                         _______ _______ _______ _____ _____    ______ ____
ROOT
ATOM      1  C   UNL     1       6.782   5.965  17.281  0.00  0.00    +0.000 C 
ATOM      2  C   UNL     1       6.065   7.150  17.934  0.00  0.00    +0.000 C 
ATOM      3  S   UNL     1       4.361   7.150  17.291  0.00  0.00    +0.000 S 
ATOM      4  C   UNL     1       4.449   5.427  16.737  0.00  0.00    +0.000 C 
ATOM      5  N   UNL     1       5.856   5.256  16.376  0.00  0.00    +0.000 N 
ATOM      6  C   UNL     1       6.363   4.649  15.252  0.00  0.00    +0.000 C 
ATOM      7  O   UNL     1       7.586   4.483  15.164  0.00  0.00    +0.000 OA
ENDROOT
BRANCH   4   8
ATOM      8  C   UNL     1       3.937   4.354  17.701  0.00  0.00    +0.000 A 
ATOM      9  C   UNL     1       3.506   3.128  17.150  0.00  0.00    +0.000 A 
ATOM     10  C   UNL     1       3.058   2.067  17.948  0.00  0.00    +0.000 A 
ATOM     11  C   UNL     1       3.015   2.206  19.329  0.00  0.00    +0.000 A 
ATOM     12  C   UNL     1       3.418   3.400  19.906  0.00  0.00    +0.000 A 
ATOM     13  C   UNL     1       3.880   4.449  19.104  0.00  0.00    +0.000 A 
BRANCH  13  14
ATOM     14  O   UNL     1       4.266   5.589  19.742  0.00  0.00    +0.000 OA
ATOM     15  H   UNL     1       3.920   5.595  20.651  0.00  0.00    +0.000 HD
ENDBRANCH  13  14
ENDBRANCH   4   8
BRANCH   1  17
ATOM     16  O   UNL     1       7.343   5.072  19.497  0.00  0.00    +0.000 OA
ATOM     17  C   UNL     1       7.443   5.003  18.280  0.00  0.00    +0.000 C 
BRANCH  17  18
ATOM     18  O   UNL     1       8.297   4.113  17.700  0.00  0.00    +0.000 OA
ATOM     19  H   UNL     1       8.959   3.760  18.341  0.00  0.00    +0.000 HD
ENDBRANCH  17  18
ENDBRANCH   1  17
BRANCH   6  20
ATOM     20  C   UNL     1       5.426   4.167  14.169  0.00  0.00    +0.000 C 
BRANCH  20  21
ATOM     21  C   UNL     1       6.219   3.676  12.960  0.00  0.00    +0.000 C 
BRANCH  21  22
ATOM     22  S   UNL     1       5.111   2.955  11.716  0.00  0.00    +0.000 S 
ATOM     23  H   UNL     1       4.461   4.088  11.409  0.00  0.00    +0.000 HD
ENDBRANCH  21  22
ENDBRANCH  20  21
ENDBRANCH   6  20
TORSDOF 7
ENDMDL
MODEL 2
REMARK VINA RESULT:      -6.5      2.750      5.928
REMARK  Name = 
REMARK  7 active torsions:
REMARK  status: ('A' for Active; 'I' for Inactive)
REMARK    1  A    between atoms: C_2  and  O_3
REMARK    2  A    between atoms: C_2  and  C_4
REMARK    3  A    between atoms: C_7  and  C_8
REMARK    4  A    between atoms: C_13  and  O_14
REMARK    5  A    between atoms: C_16  and  C_18
REMARK    6  A    between atoms: C_18  and  C_19
REMARK    7  A    between atoms: C_19  and  S_20
REMARK                            x       y       z     vdW  Elec       q    Type
REMARK                         _______ _______ _______ _____ _____    ______ ____
ROOT
ATOM      1  C   UNL     1       2.696   3.037  19.513  0.00  0.00    +0.000 C 
ATOM      2  C   UNL     1       2.603   2.279  18.186  0.00  0.00    +0.000 C 
ATOM      3  S   UNL     1       2.733   3.522  16.862  0.00  0.00    +0.000 S 
ATOM      4  C   UNL     1       3.454   4.776  17.954  0.00  0.00    +0.000 C 
ATOM      5  N   UNL     1       2.853   4.482  19.255  0.00  0.00    +0.000 N 
ATOM      6  C   UNL     1       2.318   5.376  20.150  0.00  0.00    +0.000 C 
ATOM      7  O   UNL     1       1.960   4.967  21.261  0.00  0.00    +0.000 OA
ENDROOT
BRANCH   4   8
ATOM      8  C   UNL     1       4.981   4.869  18.001  0.00  0.00    +0.000 A 
ATOM      9  C   UNL     1       5.571   5.400  19.168  0.00  0.00    +0.000 A 
ATOM     10  C   UNL     1       6.960   5.491  19.328  0.00  0.00    +0.000 A 
ATOM     11  C   UNL     1       7.806   5.064  18.313  0.00  0.00    +0.000 A 
ATOM     12  C   UNL     1       7.264   4.548  17.146  0.00  0.00    +0.000 A 
ATOM     13  C   UNL     1       5.876   4.445  17.000  0.00  0.00    +0.000 A 
BRANCH  13  14
ATOM     14  O   UNL     1       5.416   3.921  15.830  0.00  0.00    +0.000 OA
ATOM     15  H   UNL     1       5.123   3.005  15.968  0.00  0.00    +0.000 HD
ENDBRANCH  13  14
ENDBRANCH   4   8
BRANCH   1  17
ATOM     16  O   UNL     1       4.902   2.149  20.122  0.00  0.00    +0.000 OA
ATOM     17  C   UNL     1       3.784   2.511  20.462  0.00  0.00    +0.000 C 
BRANCH  17  18
ATOM     18  O   UNL     1       3.355   2.336  21.744  0.00  0.00    +0.000 OA
ATOM     19  H   UNL     1       2.862   3.122  22.081  0.00  0.00    +0.000 HD
ENDBRANCH  17  18
ENDBRANCH   1  17
BRANCH   6  20
ATOM     20  C   UNL     1       2.209   6.838  19.780  0.00  0.00    +0.000 C 
BRANCH  20  21
ATOM     21  C   UNL     1       1.457   7.606  20.864  0.00  0.00    +0.000 C 
BRANCH  21  22
ATOM     22  S   UNL     1       0.948   9.240  20.257  0.00  0.00    +0.000 S 
ATOM     23  H   UNL     1       2.043   9.482  19.522  0.00  0.00    +0.000 HD
ENDBRANCH  21  22
ENDBRANCH  20  21
ENDBRANCH   6  20
TORSDOF 7
ENDMDL
MODEL 3
REMARK VINA RESULT:      -6.1      1.296      1.711
REMARK  Name = 
REMARK  7 active torsions:
REMARK  status: ('A' for Active; 'I' for Inactive)
REMARK    1  A    between atoms: C_2  and  O_3
REMARK    2  A    between atoms: C_2  and  C_4
REMARK    3  A    between atoms: C_7  and  C_8
REMARK    4  A    between atoms: C_13  and  O_14
REMARK    5  A    between atoms: C_16  and  C_18
REMARK    6  A    between atoms: C_18  and  C_19
REMARK    7  A    between atoms: C_19  and  S_20
REMARK                            x       y       z     vdW  Elec       q    Type
REMARK                         _______ _______ _______ _____ _____    ______ ____
ROOT
ATOM      1  C   UNL     1       6.599   6.279  17.812  0.00  0.00    +0.000 C 
ATOM      2  C   UNL     1       5.676   7.488  17.987  0.00  0.00    +0.000 C 
ATOM      3  S   UNL     1       4.158   7.128  17.045  0.00  0.00    +0.000 S 
ATOM      4  C   UNL     1       4.486   5.347  16.980  0.00  0.00    +0.000 C 
ATOM      5  N   UNL     1       5.946   5.269  16.956  0.00  0.00    +0.000 N 
ATOM      6  C   UNL     1       6.729   4.482  16.147  0.00  0.00    +0.000 C 
ATOM      7  O   UNL     1       7.950   4.451  16.345  0.00  0.00    +0.000 OA
ENDROOT
BRANCH   4   8
ATOM      8  C   UNL     1       3.851   4.477  18.068  0.00  0.00    +0.000 A 
ATOM      9  C   UNL     1       3.128   5.128  19.090  0.00  0.00    +0.000 A 
ATOM     10  C   UNL     1       2.475   4.421  20.109  0.00  0.00    +0.000 A 
ATOM     11  C   UNL     1       2.538   3.034  20.144  0.00  0.00    +0.000 A 
ATOM     12  C   UNL     1       3.251   2.360  19.165  0.00  0.00    +0.000 A 
ATOM     13  C   UNL     1       3.886   3.072  18.140  0.00  0.00    +0.000 A 
BRANCH  13  14
ATOM     14  O   UNL     1       4.560   2.341  17.209  0.00  0.00    +0.000 OA
ATOM     15  H   UNL     1       4.857   1.501  17.597  0.00  0.00    +0.000 HD
ENDBRANCH  13  14
ENDBRANCH   4   8
BRANCH   1  17
ATOM     16  O   UNL     1       6.427   4.952  19.870  0.00  0.00    +0.000 OA
ATOM     17  C   UNL     1       7.091   5.669  19.134  0.00  0.00    +0.000 C 
BRANCH  17  18
ATOM     18  O   UNL     1       8.322   6.111  19.516  0.00  0.00    +0.000 OA
ATOM     19  H   UNL     1       8.269   6.796  20.225  0.00  0.00    +0.000 HD
ENDBRANCH  17  18
ENDBRANCH   1  17
BRANCH   6  20
ATOM     20  C   UNL     1       6.088   3.646  15.062  0.00  0.00    +0.000 C 
BRANCH  20  21
ATOM     21  C   UNL     1       6.271   4.312  13.701  0.00  0.00    +0.000 C 
BRANCH  21  22
ATOM     22  S   UNL     1       5.900   3.145  12.361  0.00  0.00    +0.000 S 
ATOM     23  H   UNL     1       7.172   2.875  12.031  0.00  0.00    +0.000 HD
ENDBRANCH  21  22
ENDBRANCH  20  21
ENDBRANCH   6  20
TORSDOF 7
ENDMDL
MODEL 4
REMARK VINA RESULT:      -6.1      1.129      1.471
REMARK  Name = 
REMARK  7 active torsions:
REMARK  status: ('A' for Active; 'I' for Inactive)
REMARK    1  A    between atoms: C_2  and  O_3
REMARK    2  A    between atoms: C_2  and  C_4
REMARK    3  A    between atoms: C_7  and  C_8
REMARK    4  A    between atoms: C_13  and  O_14
REMARK    5  A    between atoms: C_16  and  C_18
REMARK    6  A    between atoms: C_18  and  C_19
REMARK    7  A    between atoms: C_19  and  S_20
REMARK                            x       y       z     vdW  Elec       q    Type
REMARK                         _______ _______ _______ _____ _____    ______ ____
ROOT
ATOM      1  C   UNL     1       6.812   6.009  17.209  0.00  0.00    +0.000 C 
ATOM      2  C   UNL     1       6.014   7.095  17.935  0.00  0.00    +0.000 C 
ATOM      3  S   UNL     1       4.288   6.939  17.376  0.00  0.00    +0.000 S 
ATOM      4  C   UNL     1       4.521   5.250  16.761  0.00  0.00    +0.000 C 
ATOM      5  N   UNL     1       5.918   5.235  16.326  0.00  0.00    +0.000 N 
ATOM      6  C   UNL     1       6.425   4.717  15.160  0.00  0.00    +0.000 C 
ATOM      7  O   UNL     1       7.652   4.680  15.007  0.00  0.00    +0.000 OA
ENDROOT
BRANCH   4   8
ATOM      8  C   UNL     1       4.171   4.103  17.711  0.00  0.00    +0.000 A 
ATOM      9  C   UNL     1       4.919   3.987  18.903  0.00  0.00    +0.000 A 
ATOM     10  C   UNL     1       4.651   2.997  19.858  0.00  0.00    +0.000 A 
ATOM     11  C   UNL     1       3.631   2.080  19.643  0.00  0.00    +0.000 A 
ATOM     12  C   UNL     1       2.883   2.155  18.478  0.00  0.00    +0.000 A 
ATOM     13  C   UNL     1       3.145   3.156  17.536  0.00  0.00    +0.000 A 
BRANCH  13  14
ATOM     14  O   UNL     1       2.364   3.171  16.420  0.00  0.00    +0.000 OA
ATOM     15  H   UNL     1       1.485   3.526  16.635  0.00  0.00    +0.000 HD
ENDBRANCH  13  14
ENDBRANCH   4   8
BRANCH   1  17
ATOM     16  O   UNL     1       7.893   5.339  19.308  0.00  0.00    +0.000 OA
ATOM     17  C   UNL     1       7.619   5.093  18.142  0.00  0.00    +0.000 C 
BRANCH  17  18
ATOM     18  O   UNL     1       8.147   4.003  17.516  0.00  0.00    +0.000 OA
ATOM     19  H   UNL     1       9.134   4.032  17.488  0.00  0.00    +0.000 HD
ENDBRANCH  17  18
ENDBRANCH   1  17
BRANCH   6  20
ATOM     20  C   UNL     1       5.487   4.172  14.107  0.00  0.00    +0.000 C 
BRANCH  20  21
ATOM     21  C   UNL     1       6.278   3.641  12.914  0.00  0.00    +0.000 C 
BRANCH  21  22
ATOM     22  S   UNL     1       5.166   2.891  11.690  0.00  0.00    +0.000 S 
ATOM     23  H   UNL     1       4.075   2.855  12.470  0.00  0.00    +0.000 HD
ENDBRANCH  21  22
ENDBRANCH  20  21
ENDBRANCH   6  20
TORSDOF 7
ENDMDL
MODEL 5
REMARK VINA RESULT:      -6.1      0.998      1.415
REMARK  Name = 
REMARK  7 active torsions:
REMARK  status: ('A' for Active; 'I' for Inactive)
REMARK    1  A    between atoms: C_2  and  O_3
REMARK    2  A    between atoms: C_2  and  C_4
REMARK    3  A    between atoms: C_7  and  C_8
REMARK    4  A    between atoms: C_13  and  O_14
REMARK    5  A    between atoms: C_16  and  C_18
REMARK    6  A    between atoms: C_18  and  C_19
REMARK    7  A    between atoms: C_19  and  S_20
REMARK                            x       y       z     vdW  Elec       q    Type
REMARK                         _______ _______ _______ _____ _____    ______ ____
ROOT
ATOM      1  C   UNL     1       6.853   5.969  17.178  0.00  0.00    +0.000 C 
ATOM      2  C   UNL     1       6.253   7.237  17.790  0.00  0.00    +0.000 C 
ATOM      3  S   UNL     1       4.579   7.412  17.094  0.00  0.00    +0.000 S 
ATOM      4  C   UNL     1       4.493   5.680  16.569  0.00  0.00    +0.000 C 
ATOM      5  N   UNL     1       5.883   5.349  16.254  0.00  0.00    +0.000 N 
ATOM      6  C   UNL     1       6.353   4.671  15.157  0.00  0.00    +0.000 C 
ATOM      7  O   UNL     1       7.552   4.371  15.110  0.00  0.00    +0.000 OA
ENDROOT
BRANCH   4   8
ATOM      8  C   UNL     1       3.838   4.687  17.532  0.00  0.00    +0.000 A 
ATOM      9  C   UNL     1       2.881   5.188  18.440  0.00  0.00    +0.000 A 
ATOM     10  C   UNL     1       2.194   4.356  19.335  0.00  0.00    +0.000 A 
ATOM     11  C   UNL     1       2.456   2.993  19.358  0.00  0.00    +0.000 A 
ATOM     12  C   UNL     1       3.399   2.466  18.490  0.00  0.00    +0.000 A 
ATOM     13  C   UNL     1       4.069   3.300  17.587  0.00  0.00    +0.000 A 
BRANCH  13  14
ATOM     14  O   UNL     1       4.976   2.710  16.759  0.00  0.00    +0.000 OA
ATOM     15  H   UNL     1       4.854   1.746  16.766  0.00  0.00    +0.000 HD
ENDBRANCH  13  14
ENDBRANCH   4   8
BRANCH   1  17
ATOM     16  O   UNL     1       7.123   4.981  19.408  0.00  0.00    +0.000 OA
ATOM     17  C   UNL     1       7.375   4.960  18.211  0.00  0.00    +0.000 C 
BRANCH  17  18
ATOM     18  O   UNL     1       8.289   4.082  17.707  0.00  0.00    +0.000 OA
ATOM     19  H   UNL     1       8.293   4.076  16.719  0.00  0.00    +0.000 HD
ENDBRANCH  17  18
ENDBRANCH   1  17
BRANCH   6  20
ATOM     20  C   UNL     1       5.401   4.274  14.051  0.00  0.00    +0.000 C 
BRANCH  20  21
ATOM     21  C   UNL     1       6.165   3.622  12.901  0.00  0.00    +0.000 C 
BRANCH  21  22
ATOM     22  S   UNL     1       5.014   2.956  11.664  0.00  0.00    +0.000 S 
ATOM     23  H   UNL     1       5.665   3.412  10.584  0.00  0.00    +0.000 HD
ENDBRANCH  21  22
ENDBRANCH  20  21
ENDBRANCH   6  20
TORSDOF 7
ENDMDL
MODEL 6
REMARK VINA RESULT:      -6.1      3.251      5.195
REMARK  Name = 
REMARK  7 active torsions:
REMARK  status: ('A' for Active; 'I' for Inactive)
REMARK    1  A    between atoms: C_2  and  O_3
REMARK    2  A    between atoms: C_2  and  C_4
REMARK    3  A    between atoms: C_7  and  C_8
REMARK    4  A    between atoms: C_13  and  O_14
REMARK    5  A    between atoms: C_16  and  C_18
REMARK    6  A    between atoms: C_18  and  C_19
REMARK    7  A    between atoms: C_19  and  S_20
REMARK                            x       y       z     vdW  Elec       q    Type
REMARK                         _______ _______ _______ _____ _____    ______ ____
ROOT
ATOM      1  C   UNL     1       2.554   3.508  18.814  0.00  0.00    +0.000 C 
ATOM      2  C   UNL     1       1.548   3.440  19.967  0.00  0.00    +0.000 C 
ATOM      3  S   UNL     1       2.162   4.562  21.264  0.00  0.00    +0.000 S 
ATOM      4  C   UNL     1       3.255   5.459  20.130  0.00  0.00    +0.000 C 
ATOM      5  N   UNL     1       3.647   4.440  19.156  0.00  0.00    +0.000 N 
ATOM      6  C   UNL     1       4.905   4.193  18.664  0.00  0.00    +0.000 C 
ATOM      7  O   UNL     1       5.038   3.370  17.751  0.00  0.00    +0.000 OA
ENDROOT
BRANCH   4   8
ATOM      8  C   UNL     1       2.702   6.732  19.484  0.00  0.00    +0.000 A 
ATOM      9  C   UNL     1       3.026   6.976  18.132  0.00  0.00    +0.000 A 
ATOM     10  C   UNL     1       2.537   8.090  17.437  0.00  0.00    +0.000 A 
ATOM     11  C   UNL     1       1.717   9.007  18.081  0.00  0.00    +0.000 A 
ATOM     12  C   UNL     1       1.389   8.809  19.412  0.00  0.00    +0.000 A 
ATOM     13  C   UNL     1       1.866   7.685  20.096  0.00  0.00    +0.000 A 
BRANCH  13  14
ATOM     14  O   UNL     1       1.495   7.552  21.400  0.00  0.00    +0.000 OA
ATOM     15  H   UNL     1       1.734   6.668  21.725  0.00  0.00    +0.000 HD
ENDBRANCH  13  14
ENDBRANCH   4   8
BRANCH   1  17
ATOM     16  O   UNL     1       0.920   4.522  17.289  0.00  0.00    +0.000 OA
ATOM     17  C   UNL     1       1.927   3.847  17.453  0.00  0.00    +0.000 C 
BRANCH  17  18
ATOM     18  O   UNL     1       2.513   3.202  16.405  0.00  0.00    +0.000 OA
ATOM     19  H   UNL     1       2.020   2.386  16.147  0.00  0.00    +0.000 HD
ENDBRANCH  17  18
ENDBRANCH   1  17
BRANCH   6  20
ATOM     20  C   UNL     1       6.091   4.952  19.216  0.00  0.00    +0.000 C 
BRANCH  20  21
ATOM     21  C   UNL     1       7.156   5.131  18.137  0.00  0.00    +0.000 C 
BRANCH  21  22
ATOM     22  S   UNL     1       6.825   6.620  17.152  0.00  0.00    +0.000 S 
ATOM     23  H   UNL     1       7.843   7.353  17.628  0.00  0.00    +0.000 HD
ENDBRANCH  21  22
ENDBRANCH  20  21
ENDBRANCH   6  20
TORSDOF 7
ENDMDL
MODEL 7
REMARK VINA RESULT:      -6.0      2.808      5.707
REMARK  Name = 
REMARK  7 active torsions:
REMARK  status: ('A' for Active; 'I' for Inactive)
REMARK    1  A    between atoms: C_2  and  O_3
REMARK    2  A    between atoms: C_2  and  C_4
REMARK    3  A    between atoms: C_7  and  C_8
REMARK    4  A    between atoms: C_13  and  O_14
REMARK    5  A    between atoms: C_16  and  C_18
REMARK    6  A    between atoms: C_18  and  C_19
REMARK    7  A    between atoms: C_19  and  S_20
REMARK                            x       y       z     vdW  Elec       q    Type
REMARK                         _______ _______ _______ _____ _____    ______ ____
ROOT
ATOM      1  C   UNL     1       2.559   3.075  19.575  0.00  0.00    +0.000 C 
ATOM      2  C   UNL     1       2.272   2.247  18.320  0.00  0.00    +0.000 C 
ATOM      3  S   UNL     1       2.311   3.401  16.911  0.00  0.00    +0.000 S 
ATOM      4  C   UNL     1       3.219   4.671  17.830  0.00  0.00    +0.000 C 
ATOM      5  N   UNL     1       2.759   4.491  19.207  0.00  0.00    +0.000 N 
ATOM      6  C   UNL     1       2.379   5.466  20.096  0.00  0.00    +0.000 C 
ATOM      7  O   UNL     1       2.132   5.145  21.265  0.00  0.00    +0.000 OA
ENDROOT
BRANCH   4   8
ATOM      8  C   UNL     1       4.744   4.677  17.698  0.00  0.00    +0.000 A 
ATOM      9  C   UNL     1       5.299   4.246  16.474  0.00  0.00    +0.000 A 
ATOM     10  C   UNL     1       6.680   4.251  16.237  0.00  0.00    +0.000 A 
ATOM     11  C   UNL     1       7.554   4.678  17.228  0.00  0.00    +0.000 A 
ATOM     12  C   UNL     1       7.047   5.096  18.449  0.00  0.00    +0.000 A 
ATOM     13  C   UNL     1       5.666   5.104  18.672  0.00  0.00    +0.000 A 
BRANCH  13  14
ATOM     14  O   UNL     1       5.242   5.535  19.893  0.00  0.00    +0.000 OA
ATOM     15  H   UNL     1       5.907   6.126  20.286  0.00  0.00    +0.000 HD
ENDBRANCH  13  14
ENDBRANCH   4   8
BRANCH   1  17
ATOM     16  O   UNL     1       4.828   2.243  20.002  0.00  0.00    +0.000 OA
ATOM     17  C   UNL     1       3.721   2.542  20.427  0.00  0.00    +0.000 C 
BRANCH  17  18
ATOM     18  O   UNL     1       3.377   2.284  21.721  0.00  0.00    +0.000 OA
ATOM     19  H   UNL     1       4.146   2.367  22.334  0.00  0.00    +0.000 HD
ENDBRANCH  17  18
ENDBRANCH   1  17
BRANCH   6  20
ATOM     20  C   UNL     1       2.304   6.908  19.647  0.00  0.00    +0.000 C 
BRANCH  20  21
ATOM     21  C   UNL     1       1.603   7.758  20.704  0.00  0.00    +0.000 C 
BRANCH  21  22
ATOM     22  S   UNL     1       0.985   9.303  19.977  0.00  0.00    +0.000 S 
ATOM     23  H   UNL     1       0.157   9.628  20.981  0.00  0.00    +0.000 HD
ENDBRANCH  21  22
ENDBRANCH  20  21
ENDBRANCH   6  20
TORSDOF 7
ENDMDL
MODEL 8
REMARK VINA RESULT:      -5.8      3.266      5.293
REMARK  Name = 
REMARK  7 active torsions:
REMARK  status: ('A' for Active; 'I' for Inactive)
REMARK    1  A    between atoms: C_2  and  O_3
REMARK    2  A    between atoms: C_2  and  C_4
REMARK    3  A    between atoms: C_7  and  C_8
REMARK    4  A    between atoms: C_13  and  O_14
REMARK    5  A    between atoms: C_16  and  C_18
REMARK    6  A    between atoms: C_18  and  C_19
REMARK    7  A    between atoms: C_19  and  S_20
REMARK                            x       y       z     vdW  Elec       q    Type
REMARK                         _______ _______ _______ _____ _____    ______ ____
ROOT
ATOM      1  C   UNL     1       2.595   3.504  18.802  0.00  0.00    +0.000 C 
ATOM      2  C   UNL     1       1.628   3.409  19.985  0.00  0.00    +0.000 C 
ATOM      3  S   UNL     1       2.253   4.544  21.264  0.00  0.00    +0.000 S 
ATOM      4  C   UNL     1       3.287   5.470  20.099  0.00  0.00    +0.000 C 
ATOM      5  N   UNL     1       3.674   4.463  19.112  0.00  0.00    +0.000 N 
ATOM      6  C   UNL     1       4.922   4.249  18.581  0.00  0.00    +0.000 C 
ATOM      7  O   UNL     1       5.048   3.430  17.662  0.00  0.00    +0.000 OA
ENDROOT
BRANCH   4   8
ATOM      8  C   UNL     1       2.682   6.730  19.474  0.00  0.00    +0.000 A 
ATOM      9  C   UNL     1       1.778   7.481  20.254  0.00  0.00    +0.000 A 
ATOM     10  C   UNL     1       1.201   8.671  19.790  0.00  0.00    +0.000 A 
ATOM     11  C   UNL     1       1.502   9.140  18.519  0.00  0.00    +0.000 A 
ATOM     12  C   UNL     1       2.376   8.423  17.718  0.00  0.00    +0.000 A 
ATOM     13  C   UNL     1       2.962   7.244  18.194  0.00  0.00    +0.000 A 
BRANCH  13  14
ATOM     14  O   UNL     1       3.817   6.597  17.354  0.00  0.00    +0.000 OA
ATOM     15  H   UNL     1       4.713   6.963  17.445  0.00  0.00    +0.000 HD
ENDBRANCH  13  14
ENDBRANCH   4   8
BRANCH   1  17
ATOM     16  O   UNL     1       0.927   4.533  17.324  0.00  0.00    +0.000 OA
ATOM     17  C   UNL     1       1.917   3.829  17.462  0.00  0.00    +0.000 C 
BRANCH  17  18
ATOM     18  O   UNL     1       2.434   3.138  16.406  0.00  0.00    +0.000 OA
ATOM     19  H   UNL     1       1.731   2.712  15.860  0.00  0.00    +0.000 HD
ENDBRANCH  17  18
ENDBRANCH   1  17
BRANCH   6  20
ATOM     20  C   UNL     1       6.106   5.036  19.097  0.00  0.00    +0.000 C 
BRANCH  20  21
ATOM     21  C   UNL     1       7.158   5.193  18.003  0.00  0.00    +0.000 C 
BRANCH  21  22
ATOM     22  S   UNL     1       7.417   6.946  17.608  0.00  0.00    +0.000 S 
ATOM     23  H   UNL     1       6.290   7.402  18.174  0.00  0.00    +0.000 HD
ENDBRANCH  21  22
ENDBRANCH  20  21
ENDBRANCH   6  20
TORSDOF 7
ENDMDL
MODEL 9
REMARK VINA RESULT:      -5.8      2.780      4.325
REMARK  Name = 
REMARK  7 active torsions:
REMARK  status: ('A' for Active; 'I' for Inactive)
REMARK    1  A    between atoms: C_2  and  O_3
REMARK    2  A    between atoms: C_2  and  C_4
REMARK    3  A    between atoms: C_7  and  C_8
REMARK    4  A    between atoms: C_13  and  O_14
REMARK    5  A    between atoms: C_16  and  C_18
REMARK    6  A    between atoms: C_18  and  C_19
REMARK    7  A    between atoms: C_19  and  S_20
REMARK                            x       y       z     vdW  Elec       q    Type
REMARK                         _______ _______ _______ _____ _____    ______ ____
ROOT
ATOM      1  C   UNL     1       5.726   5.833  16.953  0.00  0.00    +0.000 C 
ATOM      2  C   UNL     1       6.821   5.233  17.840  0.00  0.00    +0.000 C 
ATOM      3  S   UNL     1       6.176   5.241  19.544  0.00  0.00    +0.000 S 
ATOM      4  C   UNL     1       4.454   5.424  19.013  0.00  0.00    +0.000 C 
ATOM      5  N   UNL     1       4.558   6.201  17.777  0.00  0.00    +0.000 N 
ATOM      6  C   UNL     1       3.796   7.280  17.401  0.00  0.00    +0.000 C 
ATOM      7  O   UNL     1       3.940   7.745  16.263  0.00  0.00    +0.000 OA
ENDROOT
BRANCH   4   8
ATOM      8  C   UNL     1       3.629   4.145  18.854  0.00  0.00    +0.000 A 
ATOM      9  C   UNL     1       2.301   4.273  18.391  0.00  0.00    +0.000 A 
ATOM     10  C   UNL     1       1.477   3.161  18.173  0.00  0.00    +0.000 A 
ATOM     11  C   UNL     1       1.952   1.882  18.427  0.00  0.00    +0.000 A 
ATOM     12  C   UNL     1       3.246   1.717  18.896  0.00  0.00    +0.000 A 
ATOM     13  C   UNL     1       4.070   2.830  19.095  0.00  0.00    +0.000 A 
BRANCH  13  14
ATOM     14  O   UNL     1       5.332   2.590  19.549  0.00  0.00    +0.000 OA
ATOM     15  H   UNL     1       5.483   1.633  19.619  0.00  0.00    +0.000 HD
ENDBRANCH  13  14
ENDBRANCH   4   8
BRANCH   1  17
ATOM     16  O   UNL     1       5.095   3.745  15.828  0.00  0.00    +0.000 OA
ATOM     17  C   UNL     1       5.324   4.945  15.766  0.00  0.00    +0.000 C 
BRANCH  17  18
ATOM     18  O   UNL     1       5.375   5.584  14.563  0.00  0.00    +0.000 OA
ATOM     19  H   UNL     1       5.605   6.539  14.658  0.00  0.00    +0.000 HD
ENDBRANCH  17  18
ENDBRANCH   1  17
BRANCH   6  20
ATOM     20  C   UNL     1       2.778   7.855  18.360  0.00  0.00    +0.000 C 
BRANCH  20  21
ATOM     21  C   UNL     1       2.054   9.036  17.720  0.00  0.00    +0.000 C 
BRANCH  21  22
ATOM     22  S   UNL     1       0.985   9.865  18.932  0.00  0.00    +0.000 S 
ATOM     23  H   UNL     1       0.099   8.867  19.069  0.00  0.00    +0.000 HD
ENDBRANCH  21  22
ENDBRANCH  20  21
ENDBRANCH   6  20
TORSDOF 7
ENDMDL
