MODEL 1
REMARK VINA RESULT:      -7.7      0.000      0.000
REMARK  Name = 
REMARK  4 active torsions:
REMARK  status: ('A' for Active; 'I' for Inactive)
REMARK    1  A    between atoms: O_1  and  C_2
REMARK    2  A    between atoms: C_5  and  C_6
REMARK    3  A    between atoms: C_10  and  C_11
REMARK    4  A    between atoms: C_17  and  O_18
REMARK                            x       y       z     vdW  Elec       q    Type
REMARK                         _______ _______ _______ _____ _____    ______ ____
ROOT
ATOM      1  C   UNL     1       2.530   6.760  19.592  0.00  0.00    +0.000 A 
ATOM      2  C   UNL     1       3.899   6.699  19.312  0.00  0.00    +0.000 A 
ATOM      3  C   UNL     1       4.603   5.543  19.532  0.00  0.00    +0.000 A 
ATOM      4  C   UNL     1       3.892   4.385  19.308  0.00  0.00    +0.000 A 
ATOM      5  C   UNL     1       4.358   3.447  18.366  0.00  0.00    +0.000 A 
ATOM      6  C   UNL     1       3.768   2.187  18.394  0.00  0.00    +0.000 A 
ATOM      7  C   UNL     1       2.684   1.927  19.228  0.00  0.00    +0.000 A 
ATOM      8  C   UNL     1       2.049   2.994  19.885  0.00  0.00    +0.000 A 
ATOM      9  C   UNL     1       2.594   4.294  19.809  0.00  0.00    +0.000 A 
ATOM     10  C   UNL     1       1.915   5.551  20.008  0.00  0.00    +0.000 A 
ENDROOT
BRANCH   1  14
ATOM     11  C   UNL     1       0.382  10.364  18.660  0.00  0.00    +0.000 A 
ATOM     12  C   UNL     1       0.363   9.886  19.966  0.00  0.00    +0.000 A 
ATOM     13  C   UNL     1       1.100   8.737  20.308  0.00  0.00    +0.000 A 
ATOM     14  C   UNL     1       1.871   8.066  19.348  0.00  0.00    +0.000 A 
ATOM     15  C   UNL     1       1.874   8.610  18.039  0.00  0.00    +0.000 A 
ATOM     16  C   UNL     1       1.125   9.730  17.690  0.00  0.00    +0.000 A 
BRANCH  11  17
ATOM     17  O   UNL     1      -0.334  11.459  18.270  0.00  0.00    +0.000 OA
ATOM     18  H   UNL     1      -0.211  12.162  18.939  0.00  0.00    +0.000 HD
ENDBRANCH  11  17
ENDBRANCH   1  14
BRANCH   5  19
ATOM     19  C   UNL     1       5.190   3.928  17.245  0.00  0.00    +0.000 A 
ATOM     20  C   UNL     1       4.734   4.276  15.989  0.00  0.00    +0.000 A 
ATOM     21  N   UNL     1       5.509   4.833  15.031  0.00  0.00    +0.000 NA
ATOM     22  C   UNL     1       6.804   5.018  15.344  0.00  0.00    +0.000 A 
ATOM     23  N   UNL     1       7.384   4.685  16.499  0.00  0.00    +0.000 NA
ATOM     24  C   UNL     1       6.558   4.149  17.419  0.00  0.00    +0.000 A 
ENDBRANCH   5  19
BRANCH   6  25
ATOM     25  O   UNL     1       4.123   1.174  17.523  0.00  0.00    +0.000 OA
ATOM     26  H   UNL     1       3.994   1.490  16.609  0.00  0.00    +0.000 HD
ENDBRANCH   6  25
TORSDOF 4
ENDMDL
MODEL 2
REMARK VINA RESULT:      -7.7      0.313      1.406
REMARK  Name = 
REMARK  4 active torsions:
REMARK  status: ('A' for Active; 'I' for Inactive)
REMARK    1  A    between atoms: O_1  and  C_2
REMARK    2  A    between atoms: C_5  and  C_6
REMARK    3  A    between atoms: C_10  and  C_11
REMARK    4  A    between atoms: C_17  and  O_18
REMARK                            x       y       z     vdW  Elec       q    Type
REMARK                         _______ _______ _______ _____ _____    ______ ____
ROOT
ATOM      1  C   UNL     1       2.465   6.727  19.529  0.00  0.00    +0.000 A 
ATOM      2  C   UNL     1       3.845   6.699  19.304  0.00  0.00    +0.000 A 
ATOM      3  C   UNL     1       4.563   5.553  19.531  0.00  0.00    +0.000 A 
ATOM      4  C   UNL     1       3.886   4.386  19.257  0.00  0.00    +0.000 A 
ATOM      5  C   UNL     1       4.410   3.475  18.319  0.00  0.00    +0.000 A 
ATOM      6  C   UNL     1       3.845   2.203  18.299  0.00  0.00    +0.000 A 
ATOM      7  C   UNL     1       2.734   1.906  19.084  0.00  0.00    +0.000 A 
ATOM      8  C   UNL     1       2.051   2.947  19.734  0.00  0.00    +0.000 A 
ATOM      9  C   UNL     1       2.572   4.259  19.703  0.00  0.00    +0.000 A 
ATOM     10  C   UNL     1       1.859   5.498  19.898  0.00  0.00    +0.000 A 
ENDROOT
BRANCH   1  14
ATOM     11  C   UNL     1       0.762  10.643  19.039  0.00  0.00    +0.000 A 
ATOM     12  C   UNL     1       1.330  10.012  17.938  0.00  0.00    +0.000 A 
ATOM     13  C   UNL     1       1.848   8.709  18.061  0.00  0.00    +0.000 A 
ATOM     14  C   UNL     1       1.789   8.024  19.282  0.00  0.00    +0.000 A 
ATOM     15  C   UNL     1       1.177   8.704  20.365  0.00  0.00    +0.000 A 
ATOM     16  C   UNL     1       0.689  10.003  20.256  0.00  0.00    +0.000 A 
BRANCH  11  17
ATOM     17  O   UNL     1       0.267  11.913  18.981  0.00  0.00    +0.000 OA
ATOM     18  H   UNL     1      -0.708  11.862  18.927  0.00  0.00    +0.000 HD
ENDBRANCH  11  17
ENDBRANCH   1  14
BRANCH   5  19
ATOM     19  C   UNL     1       5.275   3.994  17.241  0.00  0.00    +0.000 A 
ATOM     20  C   UNL     1       6.625   4.263  17.344  0.00  0.00    +0.000 A 
ATOM     21  N   UNL     1       7.407   4.615  16.299  0.00  0.00    +0.000 NA
ATOM     22  C   UNL     1       6.796   4.729  15.107  0.00  0.00    +0.000 A 
ATOM     23  N   UNL     1       5.494   4.543  14.875  0.00  0.00    +0.000 NA
ATOM     24  C   UNL     1       4.769   4.179  15.952  0.00  0.00    +0.000 A 
ENDBRANCH   5  19
BRANCH   6  25
ATOM     25  O   UNL     1       4.256   1.214  17.425  0.00  0.00    +0.000 OA
ATOM     26  H   UNL     1       4.154   0.349  17.864  0.00  0.00    +0.000 HD
ENDBRANCH   6  25
TORSDOF 4
ENDMDL
MODEL 3
REMARK VINA RESULT:      -7.5      9.996     11.582
REMARK  Name = 
REMARK  4 active torsions:
REMARK  status: ('A' for Active; 'I' for Inactive)
REMARK    1  A    between atoms: O_1  and  C_2
REMARK    2  A    between atoms: C_5  and  C_6
REMARK    3  A    between atoms: C_10  and  C_11
REMARK    4  A    between atoms: C_17  and  O_18
REMARK                            x       y       z     vdW  Elec       q    Type
REMARK                         _______ _______ _______ _____ _____    ______ ____
ROOT
ATOM      1  C   UNL     1       9.575  13.121  21.823  0.00  0.00    +0.000 A 
ATOM      2  C   UNL     1      10.036  14.421  21.593  0.00  0.00    +0.000 A 
ATOM      3  C   UNL     1      11.041  14.653  20.690  0.00  0.00    +0.000 A 
ATOM      4  C   UNL     1      11.037  13.816  19.597  0.00  0.00    +0.000 A 
ATOM      5  C   UNL     1      10.947  14.357  18.300  0.00  0.00    +0.000 A 
ATOM      6  C   UNL     1      11.237  13.499  17.242  0.00  0.00    +0.000 A 
ATOM      7  C   UNL     1      11.475  12.146  17.469  0.00  0.00    +0.000 A 
ATOM      8  C   UNL     1      11.211  11.603  18.738  0.00  0.00    +0.000 A 
ATOM      9  C   UNL     1      10.845  12.451  19.805  0.00  0.00    +0.000 A 
ATOM     10  C   UNL     1      10.128  12.100  21.007  0.00  0.00    +0.000 A 
ENDROOT
BRANCH   1  14
ATOM     11  C   UNL     1       6.264  12.917  24.556  0.00  0.00    +0.000 A 
ATOM     12  C   UNL     1       6.691  11.754  23.927  0.00  0.00    +0.000 A 
ATOM     13  C   UNL     1       7.806  11.784  23.068  0.00  0.00    +0.000 A 
ATOM     14  C   UNL     1       8.506  12.977  22.842  0.00  0.00    +0.000 A 
ATOM     15  C   UNL     1       8.043  14.128  23.527  0.00  0.00    +0.000 A 
ATOM     16  C   UNL     1       6.925  14.109  24.356  0.00  0.00    +0.000 A 
BRANCH  11  17
ATOM     17  O   UNL     1       5.176  12.949  25.379  0.00  0.00    +0.000 OA
ATOM     18  H   UNL     1       4.517  12.307  25.045  0.00  0.00    +0.000 HD
ENDBRANCH  11  17
ENDBRANCH   1  14
BRANCH   5  19
ATOM     19  C   UNL     1      10.273  15.659  18.125  0.00  0.00    +0.000 A 
ATOM     20  C   UNL     1       8.920  15.896  18.260  0.00  0.00    +0.000 A 
ATOM     21  N   UNL     1       8.361  17.127  18.218  0.00  0.00    +0.000 NA
ATOM     22  C   UNL     1       9.198  18.156  18.000  0.00  0.00    +0.000 A 
ATOM     23  N   UNL     1      10.516  18.064  17.807  0.00  0.00    +0.000 NA
ATOM     24  C   UNL     1      11.017  16.815  17.876  0.00  0.00    +0.000 A 
ENDBRANCH   5  19
BRANCH   6  25
ATOM     25  O   UNL     1      11.180  13.895  15.919  0.00  0.00    +0.000 OA
ATOM     26  H   UNL     1      11.936  13.502  15.445  0.00  0.00    +0.000 HD
ENDBRANCH   6  25
TORSDOF 4
ENDMDL
MODEL 4
REMARK VINA RESULT:      -7.4      9.743     11.342
REMARK  Name = 
REMARK  4 active torsions:
REMARK  status: ('A' for Active; 'I' for Inactive)
REMARK    1  A    between atoms: O_1  and  C_2
REMARK    2  A    between atoms: C_5  and  C_6
REMARK    3  A    between atoms: C_10  and  C_11
REMARK    4  A    between atoms: C_17  and  O_18
REMARK                            x       y       z     vdW  Elec       q    Type
REMARK                         _______ _______ _______ _____ _____    ______ ____
ROOT
ATOM      1  C   UNL     1       9.158  12.726  21.753  0.00  0.00    +0.000 A 
ATOM      2  C   UNL     1       9.715  14.007  21.681  0.00  0.00    +0.000 A 
ATOM      3  C   UNL     1      10.789  14.252  20.864  0.00  0.00    +0.000 A 
ATOM      4  C   UNL     1      10.801  13.525  19.695  0.00  0.00    +0.000 A 
ATOM      5  C   UNL     1      10.828  14.192  18.454  0.00  0.00    +0.000 A 
ATOM      6  C   UNL     1      11.128  13.420  17.335  0.00  0.00    +0.000 A 
ATOM      7  C   UNL     1      11.264  12.038  17.440  0.00  0.00    +0.000 A 
ATOM      8  C   UNL     1      10.887  11.397  18.631  0.00  0.00    +0.000 A 
ATOM      9  C   UNL     1      10.509  12.163  19.755  0.00  0.00    +0.000 A 
ATOM     10  C   UNL     1       9.696  11.751  20.873  0.00  0.00    +0.000 A 
ENDROOT
BRANCH   1  14
ATOM     11  C   UNL     1       6.093  12.358  24.744  0.00  0.00    +0.000 A 
ATOM     12  C   UNL     1       5.949  13.314  23.745  0.00  0.00    +0.000 A 
ATOM     13  C   UNL     1       6.913  13.419  22.725  0.00  0.00    +0.000 A 
ATOM     14  C   UNL     1       8.020  12.561  22.691  0.00  0.00    +0.000 A 
ATOM     15  C   UNL     1       8.105  11.589  23.719  0.00  0.00    +0.000 A 
ATOM     16  C   UNL     1       7.169  11.498  24.745  0.00  0.00    +0.000 A 
BRANCH  11  17
ATOM     17  O   UNL     1       5.201  12.228  25.768  0.00  0.00    +0.000 OA
ATOM     18  H   UNL     1       5.638  12.514  26.596  0.00  0.00    +0.000 HD
ENDBRANCH  11  17
ENDBRANCH   1  14
BRANCH   5  19
ATOM     19  C   UNL     1      10.251  15.549  18.371  0.00  0.00    +0.000 A 
ATOM     20  C   UNL     1      10.957  16.718  18.170  0.00  0.00    +0.000 A 
ATOM     21  N   UNL     1      10.379  17.925  17.972  0.00  0.00    +0.000 NA
ATOM     22  C   UNL     1       9.036  17.957  18.009  0.00  0.00    +0.000 A 
ATOM     23  N   UNL     1       8.235  16.914  18.241  0.00  0.00    +0.000 NA
ATOM     24  C   UNL     1       8.868  15.736  18.414  0.00  0.00    +0.000 A 
ENDBRANCH   5  19
BRANCH   6  25
ATOM     25  O   UNL     1      11.181  13.943  16.056  0.00  0.00    +0.000 OA
ATOM     26  H   UNL     1      11.962  14.524  15.991  0.00  0.00    +0.000 HD
ENDBRANCH   6  25
TORSDOF 4
ENDMDL
MODEL 5
REMARK VINA RESULT:      -7.3      2.659      4.102
REMARK  Name = 
REMARK  4 active torsions:
REMARK  status: ('A' for Active; 'I' for Inactive)
REMARK    1  A    between atoms: O_1  and  C_2
REMARK    2  A    between atoms: C_5  and  C_6
REMARK    3  A    between atoms: C_10  and  C_11
REMARK    4  A    between atoms: C_17  and  O_18
REMARK                            x       y       z     vdW  Elec       q    Type
REMARK                         _______ _______ _______ _____ _____    ______ ____
ROOT
ATOM      1  C   UNL     1       2.225   8.100  18.166  0.00  0.00    +0.000 A 
ATOM      2  C   UNL     1       1.426   6.952  18.183  0.00  0.00    +0.000 A 
ATOM      3  C   UNL     1       1.900   5.768  17.677  0.00  0.00    +0.000 A 
ATOM      4  C   UNL     1       3.249   5.563  17.859  0.00  0.00    +0.000 A 
ATOM      5  C   UNL     1       3.698   4.425  18.558  0.00  0.00    +0.000 A 
ATOM      6  C   UNL     1       5.053   4.125  18.459  0.00  0.00    +0.000 A 
ATOM      7  C   UNL     1       5.928   4.989  17.806  0.00  0.00    +0.000 A 
ATOM      8  C   UNL     1       5.482   6.268  17.434  0.00  0.00    +0.000 A 
ATOM      9  C   UNL     1       4.124   6.616  17.594  0.00  0.00    +0.000 A 
ATOM     10  C   UNL     1       3.556   7.938  17.701  0.00  0.00    +0.000 A 
ENDROOT
BRANCH   1  14
ATOM     11  C   UNL     1       0.669  11.648  20.026  0.00  0.00    +0.000 A 
ATOM     12  C   UNL     1       1.317  11.758  18.802  0.00  0.00    +0.000 A 
ATOM     13  C   UNL     1       1.790  10.605  18.147  0.00  0.00    +0.000 A 
ATOM     14  C   UNL     1       1.606   9.334  18.709  0.00  0.00    +0.000 A 
ATOM     15  C   UNL     1       0.917   9.277  19.947  0.00  0.00    +0.000 A 
ATOM     16  C   UNL     1       0.472  10.417  20.611  0.00  0.00    +0.000 A 
BRANCH  11  17
ATOM     17  O   UNL     1       0.212  12.735  20.714  0.00  0.00    +0.000 OA
ATOM     18  H   UNL     1      -0.431  12.428  21.384  0.00  0.00    +0.000 HD
ENDBRANCH  11  17
ENDBRANCH   1  14
BRANCH   5  19
ATOM     19  C   UNL     1       2.805   3.821  19.567  0.00  0.00    +0.000 A 
ATOM     20  C   UNL     1       1.940   2.766  19.356  0.00  0.00    +0.000 A 
ATOM     21  N   UNL     1       1.235   2.160  20.338  0.00  0.00    +0.000 NA
ATOM     22  C   UNL     1       1.385   2.658  21.578  0.00  0.00    +0.000 A 
ATOM     23  N   UNL     1       2.150   3.701  21.912  0.00  0.00    +0.000 NA
ATOM     24  C   UNL     1       2.840   4.253  20.895  0.00  0.00    +0.000 A 
ENDBRANCH   5  19
BRANCH   6  25
ATOM     25  O   UNL     1       5.629   3.043  19.099  0.00  0.00    +0.000 OA
ATOM     26  H   UNL     1       4.923   2.523  19.526  0.00  0.00    +0.000 HD
ENDBRANCH   6  25
TORSDOF 4
ENDMDL
MODEL 6
REMARK VINA RESULT:      -7.3      2.620      4.152
REMARK  Name = 
REMARK  4 active torsions:
REMARK  status: ('A' for Active; 'I' for Inactive)
REMARK    1  A    between atoms: O_1  and  C_2
REMARK    2  A    between atoms: C_5  and  C_6
REMARK    3  A    between atoms: C_10  and  C_11
REMARK    4  A    between atoms: C_17  and  O_18
REMARK                            x       y       z     vdW  Elec       q    Type
REMARK                         _______ _______ _______ _____ _____    ______ ____
ROOT
ATOM      1  C   UNL     1       2.161   8.237  18.172  0.00  0.00    +0.000 A 
ATOM      2  C   UNL     1       1.443   7.039  18.235  0.00  0.00    +0.000 A 
ATOM      3  C   UNL     1       1.957   5.891  17.688  0.00  0.00    +0.000 A 
ATOM      4  C   UNL     1       3.326   5.775  17.775  0.00  0.00    +0.000 A 
ATOM      5  C   UNL     1       3.896   4.667  18.431  0.00  0.00    +0.000 A 
ATOM      6  C   UNL     1       5.259   4.458  18.236  0.00  0.00    +0.000 A 
ATOM      7  C   UNL     1       6.027   5.380  17.531  0.00  0.00    +0.000 A 
ATOM      8  C   UNL     1       5.473   6.628  17.200  0.00  0.00    +0.000 A 
ATOM      9  C   UNL     1       4.109   6.885  17.457  0.00  0.00    +0.000 A 
ATOM     10  C   UNL     1       3.464   8.165  17.615  0.00  0.00    +0.000 A 
ENDROOT
BRANCH   1  14
ATOM     11  C   UNL     1       0.503  11.663  20.169  0.00  0.00    +0.000 A 
ATOM     12  C   UNL     1       1.081  11.828  18.915  0.00  0.00    +0.000 A 
ATOM     13  C   UNL     1       1.584  10.713  18.218  0.00  0.00    +0.000 A 
ATOM     14  C   UNL     1       1.501   9.426  18.766  0.00  0.00    +0.000 A 
ATOM     15  C   UNL     1       0.880   9.312  20.036  0.00  0.00    +0.000 A 
ATOM     16  C   UNL     1       0.406  10.414  20.741  0.00  0.00    +0.000 A 
BRANCH  11  17
ATOM     17  O   UNL     1       0.021  12.712  20.897  0.00  0.00    +0.000 OA
ATOM     18  H   UNL     1       0.753  13.343  21.051  0.00  0.00    +0.000 HD
ENDBRANCH  11  17
ENDBRANCH   1  14
BRANCH   5  19
ATOM     19  C   UNL     1       3.118   4.002  19.495  0.00  0.00    +0.000 A 
ATOM     20  C   UNL     1       2.917   4.482  20.774  0.00  0.00    +0.000 A 
ATOM     21  N   UNL     1       2.093   3.905  21.677  0.00  0.00    +0.000 NA
ATOM     22  C   UNL     1       1.469   2.780  21.283  0.00  0.00    +0.000 A 
ATOM     23  N   UNL     1       1.609   2.184  20.097  0.00  0.00    +0.000 NA
ATOM     24  C   UNL     1       2.431   2.814  19.234  0.00  0.00    +0.000 A 
ENDBRANCH   5  19
BRANCH   6  25
ATOM     25  O   UNL     1       5.948   3.414  18.826  0.00  0.00    +0.000 OA
ATOM     26  H   UNL     1       6.618   3.089  18.196  0.00  0.00    +0.000 HD
ENDBRANCH   6  25
TORSDOF 4
ENDMDL
MODEL 7
REMARK VINA RESULT:      -7.2      3.985      8.263
REMARK  Name = 
REMARK  4 active torsions:
REMARK  status: ('A' for Active; 'I' for Inactive)
REMARK    1  A    between atoms: O_1  and  C_2
REMARK    2  A    between atoms: C_5  and  C_6
REMARK    3  A    between atoms: C_10  and  C_11
REMARK    4  A    between atoms: C_17  and  O_18
REMARK                            x       y       z     vdW  Elec       q    Type
REMARK                         _______ _______ _______ _____ _____    ______ ____
ROOT
ATOM      1  C   UNL     1       1.477   8.225  19.520  0.00  0.00    +0.000 A 
ATOM      2  C   UNL     1       1.033   9.302  18.745  0.00  0.00    +0.000 A 
ATOM      3  C   UNL     1      -0.038  10.055  19.152  0.00  0.00    +0.000 A 
ATOM      4  C   UNL     1      -0.147  10.211  20.516  0.00  0.00    +0.000 A 
ATOM      5  C   UNL     1      -0.151  11.504  21.076  0.00  0.00    +0.000 A 
ATOM      6  C   UNL     1      -0.550  11.609  22.405  0.00  0.00    +0.000 A 
ATOM      7  C   UNL     1      -0.804  10.469  23.163  0.00  0.00    +0.000 A 
ATOM      8  C   UNL     1      -0.450   9.209  22.653  0.00  0.00    +0.000 A 
ATOM      9  C   UNL     1       0.026   9.093  21.329  0.00  0.00    +0.000 A 
ATOM     10  C   UNL     1       0.831   8.035  20.769  0.00  0.00    +0.000 A 
ENDROOT
BRANCH   1  14
ATOM     11  C   UNL     1       4.554   5.724  17.860  0.00  0.00    +0.000 A 
ATOM     12  C   UNL     1       4.238   6.918  17.222  0.00  0.00    +0.000 A 
ATOM     13  C   UNL     1       3.272   7.780  17.774  0.00  0.00    +0.000 A 
ATOM     14  C   UNL     1       2.623   7.457  18.974  0.00  0.00    +0.000 A 
ATOM     15  C   UNL     1       3.000   6.239  19.595  0.00  0.00    +0.000 A 
ATOM     16  C   UNL     1       3.935   5.371  19.039  0.00  0.00    +0.000 A 
BRANCH  11  17
ATOM     17  O   UNL     1       5.465   4.842  17.356  0.00  0.00    +0.000 OA
ATOM     18  H   UNL     1       5.994   5.301  16.673  0.00  0.00    +0.000 HD
ENDBRANCH  11  17
ENDBRANCH   1  14
BRANCH   5  19
ATOM     19  C   UNL     1       0.540  12.588  20.349  0.00  0.00    +0.000 A 
ATOM     20  C   UNL     1       1.905  12.785  20.292  0.00  0.00    +0.000 A 
ATOM     21  N   UNL     1       2.503  13.713  19.512  0.00  0.00    +0.000 NA
ATOM     22  C   UNL     1       1.688  14.495  18.782  0.00  0.00    +0.000 A 
ATOM     23  N   UNL     1       0.354  14.444  18.779  0.00  0.00    +0.000 NA
ATOM     24  C   UNL     1      -0.183  13.489  19.564  0.00  0.00    +0.000 A 
ENDBRANCH   5  19
BRANCH   6  25
ATOM     25  O   UNL     1      -0.594  12.814  23.081  0.00  0.00    +0.000 OA
ATOM     26  H   UNL     1      -1.527  13.078  23.185  0.00  0.00    +0.000 HD
ENDBRANCH   6  25
TORSDOF 4
ENDMDL
MODEL 8
REMARK VINA RESULT:      -7.2      2.564      4.016
REMARK  Name = 
REMARK  4 active torsions:
REMARK  status: ('A' for Active; 'I' for Inactive)
REMARK    1  A    between atoms: O_1  and  C_2
REMARK    2  A    between atoms: C_5  and  C_6
REMARK    3  A    between atoms: C_10  and  C_11
REMARK    4  A    between atoms: C_17  and  O_18
REMARK                            x       y       z     vdW  Elec       q    Type
REMARK                         _______ _______ _______ _____ _____    ______ ____
ROOT
ATOM      1  C   UNL     1       1.935   8.146  18.224  0.00  0.00    +0.000 A 
ATOM      2  C   UNL     1       1.318   6.891  18.237  0.00  0.00    +0.000 A 
ATOM      3  C   UNL     1       1.934   5.808  17.666  0.00  0.00    +0.000 A 
ATOM      4  C   UNL     1       3.307   5.803  17.774  0.00  0.00    +0.000 A 
ATOM      5  C   UNL     1       3.957   4.726  18.408  0.00  0.00    +0.000 A 
ATOM      6  C   UNL     1       5.335   4.636  18.232  0.00  0.00    +0.000 A 
ATOM      7  C   UNL     1       6.034   5.641  17.569  0.00  0.00    +0.000 A 
ATOM      8  C   UNL     1       5.384   6.848  17.266  0.00  0.00    +0.000 A 
ATOM      9  C   UNL     1       3.999   6.983  17.505  0.00  0.00    +0.000 A 
ATOM     10  C   UNL     1       3.248   8.200  17.688  0.00  0.00    +0.000 A 
ENDROOT
BRANCH   1  14
ATOM     11  C   UNL     1      -0.597  11.177  19.920  0.00  0.00    +0.000 A 
ATOM     12  C   UNL     1       0.241  10.451  20.759  0.00  0.00    +0.000 A 
ATOM     13  C   UNL     1       1.117   9.490  20.222  0.00  0.00    +0.000 A 
ATOM     14  C   UNL     1       1.168   9.257  18.841  0.00  0.00    +0.000 A 
ATOM     15  C   UNL     1       0.311  10.042  18.029  0.00  0.00    +0.000 A 
ATOM     16  C   UNL     1      -0.577  10.974  18.558  0.00  0.00    +0.000 A 
BRANCH  11  17
ATOM     17  O   UNL     1      -1.482  12.104  20.390  0.00  0.00    +0.000 OA
ATOM     18  H   UNL     1      -2.176  11.638  20.898  0.00  0.00    +0.000 HD
ENDBRANCH  11  17
ENDBRANCH   1  14
BRANCH   5  19
ATOM     19  C   UNL     1       3.220   3.965  19.437  0.00  0.00    +0.000 A 
ATOM     20  C   UNL     1       2.930   4.401  20.714  0.00  0.00    +0.000 A 
ATOM     21  N   UNL     1       2.142   3.725  21.582  0.00  0.00    +0.000 NA
ATOM     22  C   UNL     1       1.653   2.548  21.153  0.00  0.00    +0.000 A 
ATOM     23  N   UNL     1       1.892   1.990  19.964  0.00  0.00    +0.000 NA
ATOM     24  C   UNL     1       2.670   2.716  19.138  0.00  0.00    +0.000 A 
ENDBRANCH   5  19
BRANCH   6  25
ATOM     25  O   UNL     1       6.099   3.635  18.803  0.00  0.00    +0.000 OA
ATOM     26  H   UNL     1       6.654   3.234  18.108  0.00  0.00    +0.000 HD
ENDBRANCH   6  25
TORSDOF 4
ENDMDL
MODEL 9
REMARK VINA RESULT:      -7.2      2.427      3.696
REMARK  Name = 
REMARK  4 active torsions:
REMARK  status: ('A' for Active; 'I' for Inactive)
REMARK    1  A    between atoms: O_1  and  C_2
REMARK    2  A    between atoms: C_5  and  C_6
REMARK    3  A    between atoms: C_10  and  C_11
REMARK    4  A    between atoms: C_17  and  O_18
REMARK                            x       y       z     vdW  Elec       q    Type
REMARK                         _______ _______ _______ _____ _____    ______ ____
ROOT
ATOM      1  C   UNL     1       2.279   7.488  18.734  0.00  0.00    +0.000 A 
ATOM      2  C   UNL     1       1.827   6.165  18.703  0.00  0.00    +0.000 A 
ATOM      3  C   UNL     1       2.189   5.330  17.678  0.00  0.00    +0.000 A 
ATOM      4  C   UNL     1       3.457   5.542  17.184  0.00  0.00    +0.000 A 
ATOM      5  C   UNL     1       4.399   4.495  17.194  0.00  0.00    +0.000 A 
ATOM      6  C   UNL     1       5.547   4.678  16.429  0.00  0.00    +0.000 A 
ATOM      7  C   UNL     1       5.794   5.895  15.798  0.00  0.00    +0.000 A 
ATOM      8  C   UNL     1       4.994   7.007  16.107  0.00  0.00    +0.000 A 
ATOM      9  C   UNL     1       3.865   6.853  16.941  0.00  0.00    +0.000 A 
ATOM     10  C   UNL     1       3.196   7.866  17.719  0.00  0.00    +0.000 A 
ENDROOT
BRANCH   1  14
ATOM     11  C   UNL     1       0.562   9.887  21.860  0.00  0.00    +0.000 A 
ATOM     12  C   UNL     1       1.005   8.604  22.160  0.00  0.00    +0.000 A 
ATOM     13  C   UNL     1       1.618   7.818  21.167  0.00  0.00    +0.000 A 
ATOM     14  C   UNL     1       1.803   8.315  19.870  0.00  0.00    +0.000 A 
ATOM     15  C   UNL     1       1.356   9.638  19.624  0.00  0.00    +0.000 A 
ATOM     16  C   UNL     1       0.724  10.409  20.596  0.00  0.00    +0.000 A 
BRANCH  11  17
ATOM     17  O   UNL     1      -0.060  10.682  22.778  0.00  0.00    +0.000 OA
ATOM     18  H   UNL     1      -1.003  10.760  22.530  0.00  0.00    +0.000 HD
ENDBRANCH  11  17
ENDBRANCH   1  14
BRANCH   5  19
ATOM     19  C   UNL     1       4.268   3.440  18.219  0.00  0.00    +0.000 A 
ATOM     20  C   UNL     1       3.652   2.216  18.049  0.00  0.00    +0.000 A 
ATOM     21  N   UNL     1       3.667   1.229  18.973  0.00  0.00    +0.000 NA
ATOM     22  C   UNL     1       4.302   1.499  20.127  0.00  0.00    +0.000 A 
ATOM     23  N   UNL     1       4.897   2.653  20.439  0.00  0.00    +0.000 NA
ATOM     24  C   UNL     1       4.864   3.592  19.474  0.00  0.00    +0.000 A 
ENDBRANCH   5  19
BRANCH   6  25
ATOM     25  O   UNL     1       6.556   3.736  16.354  0.00  0.00    +0.000 OA
ATOM     26  H   UNL     1       6.732   3.398  17.252  0.00  0.00    +0.000 HD
ENDBRANCH   6  25
TORSDOF 4
ENDMDL
