MODEL 1
REMARK VINA RESULT:      -8.3      0.000      0.000
REMARK  Name = 
REMARK  5 active torsions:
REMARK  status: ('A' for Active; 'I' for Inactive)
REMARK    1  A    between atoms: C_2  and  O_3
REMARK    2  A    between atoms: C_2  and  C_4
REMARK    3  A    between atoms: C_4  and  N_5
REMARK    4  A    between atoms: C_10  and  C_11
REMARK    5  A    between atoms: N_21  and  C_22
REMARK                            x       y       z     vdW  Elec       q    Type
REMARK                         _______ _______ _______ _____ _____    ______ ____
ROOT
ATOM      1  C   UNL     1       1.397   8.563  20.098  0.00  0.00    +0.000 C 
ATOM      2  O   UNL     1       1.007   8.140  21.191  0.00  0.00    +0.000 OA
ATOM      3  N   UNL     1       1.153   9.872  19.673  0.00  0.00    +0.000 N 
ATOM      4  C   UNL     1       0.653  10.849  20.635  0.00  0.00    +0.000 C 
ATOM      5  C   UNL     1       1.546  12.094  20.620  0.00  0.00    +0.000 C 
ATOM      6  C   UNL     1       1.738  12.682  19.195  0.00  0.00    +0.000 C 
ATOM      7  C   UNL     1       2.147  11.574  18.208  0.00  0.00    +0.000 C 
ATOM      8  C   UNL     1       1.213  10.366  18.296  0.00  0.00    +0.000 C 
ATOM      9  C   UNL     1       2.799  13.813  19.220  0.00  0.00    +0.000 C 
ATOM     10  C   UNL     1       2.093  15.057  18.688  0.00  0.00    +0.000 C 
ATOM     11  N   UNL     1       0.701  14.781  19.001  0.00  0.00    +0.000 N 
ATOM     12  C   UNL     1       0.437  13.376  18.731  0.00  0.00    +0.000 C 
ENDROOT
BRANCH   1  18
ATOM     13  N   UNL     1       4.670   4.998  17.231  0.00  0.00    +0.000 N 
ATOM     14  C   UNL     1       4.603   3.883  18.024  0.00  0.00    +0.000 A 
ATOM     15  C   UNL     1       3.722   4.143  19.051  0.00  0.00    +0.000 A 
ATOM     16  C   UNL     1       3.250   5.475  18.896  0.00  0.00    +0.000 A 
ATOM     17  C   UNL     1       2.395   6.309  19.654  0.00  0.00    +0.000 A 
ATOM     18  C   UNL     1       2.212   7.643  19.255  0.00  0.00    +0.000 A 
ATOM     19  C   UNL     1       2.885   8.120  18.130  0.00  0.00    +0.000 A 
ATOM     20  C   UNL     1       3.633   7.289  17.302  0.00  0.00    +0.000 A 
ATOM     21  C   UNL     1       3.847   5.982  17.737  0.00  0.00    +0.000 A 
BRANCH  13  22
ATOM     22  C   UNL     1       5.589   5.169  16.110  0.00  0.00    +0.000 C 
BRANCH  22  24
ATOM     23  O   UNL     1       7.429   6.635  16.536  0.00  0.00    +0.000 OA
ATOM     24  C   UNL     1       7.019   5.478  16.468  0.00  0.00    +0.000 C 
BRANCH  24  25
ATOM     25  O   UNL     1       7.849   4.440  16.703  0.00  0.00    +0.000 OA
ATOM     26  H   UNL     1       8.748   4.665  17.018  0.00  0.00    +0.000 HD
ENDBRANCH  24  25
ENDBRANCH  22  24
ENDBRANCH  13  22
ENDBRANCH   1  18
BRANCH  11  27
ATOM     27  C   UNL     1      -0.289  15.732  19.067  0.00  0.00    +0.000 A 
ATOM     28  C   UNL     1      -0.343  16.808  18.180  0.00  0.00    +0.000 A 
ATOM     29  C   UNL     1      -1.332  17.774  18.319  0.00  0.00    +0.000 A 
ATOM     30  N   UNL     1      -2.273  17.756  19.281  0.00  0.00    +0.000 NA
ATOM     31  C   UNL     1      -2.209  16.727  20.144  0.00  0.00    +0.000 A 
ATOM     32  C   UNL     1      -1.260  15.717  20.075  0.00  0.00    +0.000 A 
ENDBRANCH  11  27
TORSDOF 5
ENDMDL
MODEL 2
REMARK VINA RESULT:      -7.9      0.600      1.147
REMARK  Name = 
REMARK  5 active torsions:
REMARK  status: ('A' for Active; 'I' for Inactive)
REMARK    1  A    between atoms: C_2  and  O_3
REMARK    2  A    between atoms: C_2  and  C_4
REMARK    3  A    between atoms: C_4  and  N_5
REMARK    4  A    between atoms: C_10  and  C_11
REMARK    5  A    between atoms: N_21  and  C_22
REMARK                            x       y       z     vdW  Elec       q    Type
REMARK                         _______ _______ _______ _____ _____    ______ ____
ROOT
ATOM      1  C   UNL     1       1.198   8.829  20.147  0.00  0.00    +0.000 C 
ATOM      2  O   UNL     1       0.719   8.384  21.195  0.00  0.00    +0.000 OA
ATOM      3  N   UNL     1       1.003  10.152  19.739  0.00  0.00    +0.000 N 
ATOM      4  C   UNL     1       0.440  11.110  20.684  0.00  0.00    +0.000 C 
ATOM      5  C   UNL     1       1.345  12.344  20.771  0.00  0.00    +0.000 C 
ATOM      6  C   UNL     1       1.654  12.965  19.381  0.00  0.00    +0.000 C 
ATOM      7  C   UNL     1       2.127  11.877  18.401  0.00  0.00    +0.000 C 
ATOM      8  C   UNL     1       1.176  10.679  18.384  0.00  0.00    +0.000 C 
ATOM      9  C   UNL     1       2.723  14.081  19.518  0.00  0.00    +0.000 C 
ATOM     10  C   UNL     1       2.074  15.347  18.966  0.00  0.00    +0.000 C 
ATOM     11  N   UNL     1       0.659  15.081  19.161  0.00  0.00    +0.000 N 
ATOM     12  C   UNL     1       0.401  13.687  18.835  0.00  0.00    +0.000 C 
ENDROOT
BRANCH   1  18
ATOM     13  N   UNL     1       4.697   5.358  17.436  0.00  0.00    +0.000 N 
ATOM     14  C   UNL     1       4.788   4.324  18.331  0.00  0.00    +0.000 A 
ATOM     15  C   UNL     1       3.935   4.591  19.379  0.00  0.00    +0.000 A 
ATOM     16  C   UNL     1       3.315   5.846  19.129  0.00  0.00    +0.000 A 
ATOM     17  C   UNL     1       2.411   6.657  19.855  0.00  0.00    +0.000 A 
ATOM     18  C   UNL     1       2.066   7.920  19.347  0.00  0.00    +0.000 A 
ATOM     19  C   UNL     1       2.630   8.352  18.146  0.00  0.00    +0.000 A 
ATOM     20  C   UNL     1       3.423   7.526  17.356  0.00  0.00    +0.000 A 
ATOM     21  C   UNL     1       3.797   6.296  17.897  0.00  0.00    +0.000 A 
BRANCH  13  22
ATOM     22  C   UNL     1       5.538   5.512  16.253  0.00  0.00    +0.000 C 
BRANCH  22  24
ATOM     23  O   UNL     1       6.166   3.396  15.337  0.00  0.00    +0.000 OA
ATOM     24  C   UNL     1       6.503   4.390  15.976  0.00  0.00    +0.000 C 
BRANCH  24  25
ATOM     25  O   UNL     1       7.757   4.503  16.463  0.00  0.00    +0.000 OA
ATOM     26  H   UNL     1       8.198   3.669  16.726  0.00  0.00    +0.000 HD
ENDBRANCH  24  25
ENDBRANCH  22  24
ENDBRANCH  13  22
ENDBRANCH   1  18
BRANCH  11  27
ATOM     27  C   UNL     1      -0.322  16.043  19.174  0.00  0.00    +0.000 A 
ATOM     28  C   UNL     1      -1.337  16.053  20.133  0.00  0.00    +0.000 A 
ATOM     29  C   UNL     1      -2.337  17.015  20.075  0.00  0.00    +0.000 A 
ATOM     30  N   UNL     1      -2.412  17.970  19.128  0.00  0.00    +0.000 NA
ATOM     31  C   UNL     1      -1.442  17.949  18.198  0.00  0.00    +0.000 A 
ATOM     32  C   UNL     1      -0.403  17.029  18.183  0.00  0.00    +0.000 A 
ENDBRANCH  11  27
TORSDOF 5
ENDMDL
MODEL 3
REMARK VINA RESULT:      -7.9      1.065      1.286
REMARK  Name = 
REMARK  5 active torsions:
REMARK  status: ('A' for Active; 'I' for Inactive)
REMARK    1  A    between atoms: C_2  and  O_3
REMARK    2  A    between atoms: C_2  and  C_4
REMARK    3  A    between atoms: C_4  and  N_5
REMARK    4  A    between atoms: C_10  and  C_11
REMARK    5  A    between atoms: N_21  and  C_22
REMARK                            x       y       z     vdW  Elec       q    Type
REMARK                         _______ _______ _______ _____ _____    ______ ____
ROOT
ATOM      1  C   UNL     1       0.893   8.980  21.083  0.00  0.00    +0.000 C 
ATOM      2  O   UNL     1       0.637   8.812  22.279  0.00  0.00    +0.000 OA
ATOM      3  N   UNL     1       0.704  10.210  20.445  0.00  0.00    +0.000 N 
ATOM      4  C   UNL     1       0.444  11.397  21.254  0.00  0.00    +0.000 C 
ATOM      5  C   UNL     1       1.432  12.506  20.876  0.00  0.00    +0.000 C 
ATOM      6  C   UNL     1       1.456  12.799  19.351  0.00  0.00    +0.000 C 
ATOM      7  C   UNL     1       1.611  11.491  18.556  0.00  0.00    +0.000 C 
ATOM      8  C   UNL     1       0.598  10.436  19.002  0.00  0.00    +0.000 C 
ATOM      9  C   UNL     1       2.605  13.785  19.013  0.00  0.00    +0.000 C 
ATOM     10  C   UNL     1       1.940  14.985  18.346  0.00  0.00    +0.000 C 
ATOM     11  N   UNL     1       0.592  14.934  18.887  0.00  0.00    +0.000 N 
ATOM     12  C   UNL     1       0.167  13.544  18.935  0.00  0.00    +0.000 C 
ENDROOT
BRANCH   1  18
ATOM     13  N   UNL     1       3.308   4.554  18.591  0.00  0.00    +0.000 N 
ATOM     14  C   UNL     1       3.017   3.557  19.486  0.00  0.00    +0.000 A 
ATOM     15  C   UNL     1       2.223   4.091  20.476  0.00  0.00    +0.000 A 
ATOM     16  C   UNL     1       2.041   5.473  20.192  0.00  0.00    +0.000 A 
ATOM     17  C   UNL     1       1.389   6.535  20.861  0.00  0.00    +0.000 A 
ATOM     18  C   UNL     1       1.486   7.834  20.337  0.00  0.00    +0.000 A 
ATOM     19  C   UNL     1       2.231   8.051  19.178  0.00  0.00    +0.000 A 
ATOM     20  C   UNL     1       2.777   7.008  18.438  0.00  0.00    +0.000 A 
ATOM     21  C   UNL     1       2.716   5.732  18.996  0.00  0.00    +0.000 A 
BRANCH  13  22
ATOM     22  C   UNL     1       4.229   4.421  17.467  0.00  0.00    +0.000 C 
BRANCH  22  24
ATOM     23  O   UNL     1       6.074   5.926  17.259  0.00  0.00    +0.000 OA
ATOM     24  C   UNL     1       5.646   4.869  17.715  0.00  0.00    +0.000 C 
BRANCH  24  25
ATOM     25  O   UNL     1       6.442   4.064  18.451  0.00  0.00    +0.000 OA
ATOM     26  H   UNL     1       5.991   3.453  19.067  0.00  0.00    +0.000 HD
ENDBRANCH  24  25
ENDBRANCH  22  24
ENDBRANCH  13  22
ENDBRANCH   1  18
BRANCH  11  27
ATOM     27  C   UNL     1      -0.288  15.989  18.895  0.00  0.00    +0.000 A 
ATOM     28  C   UNL     1      -0.263  16.982  17.915  0.00  0.00    +0.000 A 
ATOM     29  C   UNL     1      -1.137  18.059  17.994  0.00  0.00    +0.000 A 
ATOM     30  N   UNL     1      -2.036  18.229  18.982  0.00  0.00    +0.000 NA
ATOM     31  C   UNL     1      -2.048  17.279  19.933  0.00  0.00    +0.000 A 
ATOM     32  C   UNL     1      -1.215  16.169  19.929  0.00  0.00    +0.000 A 
ENDBRANCH  11  27
TORSDOF 5
ENDMDL
MODEL 4
REMARK VINA RESULT:      -7.9      1.054      1.204
REMARK  Name = 
REMARK  5 active torsions:
REMARK  status: ('A' for Active; 'I' for Inactive)
REMARK    1  A    between atoms: C_2  and  O_3
REMARK    2  A    between atoms: C_2  and  C_4
REMARK    3  A    between atoms: C_4  and  N_5
REMARK    4  A    between atoms: C_10  and  C_11
REMARK    5  A    between atoms: N_21  and  C_22
REMARK                            x       y       z     vdW  Elec       q    Type
REMARK                         _______ _______ _______ _____ _____    ______ ____
ROOT
ATOM      1  C   UNL     1       1.557   7.819  20.209  0.00  0.00    +0.000 C 
ATOM      2  O   UNL     1       1.394   7.267  21.301  0.00  0.00    +0.000 OA
ATOM      3  N   UNL     1       1.081   9.107  19.944  0.00  0.00    +0.000 N 
ATOM      4  C   UNL     1       0.607   9.929  21.052  0.00  0.00    +0.000 C 
ATOM      5  C   UNL     1       1.316  11.288  21.029  0.00  0.00    +0.000 C 
ATOM      6  C   UNL     1       1.212  11.999  19.651  0.00  0.00    +0.000 C 
ATOM      7  C   UNL     1       1.612  11.036  18.520  0.00  0.00    +0.000 C 
ATOM      8  C   UNL     1       0.869   9.703  18.624  0.00  0.00    +0.000 C 
ATOM      9  C   UNL     1       2.107  13.266  19.634  0.00  0.00    +0.000 C 
ATOM     10  C   UNL     1       1.172  14.431  19.322  0.00  0.00    +0.000 C 
ATOM     11  N   UNL     1      -0.109  13.935  19.797  0.00  0.00    +0.000 N 
ATOM     12  C   UNL     1      -0.223  12.531  19.437  0.00  0.00    +0.000 C 
ENDROOT
BRANCH   1  18
ATOM     13  N   UNL     1       4.707   4.859  16.610  0.00  0.00    +0.000 N 
ATOM     14  C   UNL     1       4.442   3.578  17.021  0.00  0.00    +0.000 A 
ATOM     15  C   UNL     1       3.495   3.637  18.019  0.00  0.00    +0.000 A 
ATOM     16  C   UNL     1       3.185   5.007  18.246  0.00  0.00    +0.000 A 
ATOM     17  C   UNL     1       2.350   5.685  19.165  0.00  0.00    +0.000 A 
ATOM     18  C   UNL     1       2.350   7.089  19.180  0.00  0.00    +0.000 A 
ATOM     19  C   UNL     1       3.181   7.783  18.299  0.00  0.00    +0.000 A 
ATOM     20  C   UNL     1       3.916   7.142  17.307  0.00  0.00    +0.000 A 
ATOM     21  C   UNL     1       3.945   5.749  17.338  0.00  0.00    +0.000 A 
BRANCH  13  22
ATOM     22  C   UNL     1       5.747   5.230  15.655  0.00  0.00    +0.000 C 
BRANCH  22  24
ATOM     23  O   UNL     1       7.535   6.628  16.403  0.00  0.00    +0.000 OA
ATOM     24  C   UNL     1       7.114   5.486  16.233  0.00  0.00    +0.000 C 
BRANCH  24  25
ATOM     25  O   UNL     1       7.875   4.417  16.551  0.00  0.00    +0.000 OA
ATOM     26  H   UNL     1       8.799   4.429  16.225  0.00  0.00    +0.000 HD
ENDBRANCH  24  25
ENDBRANCH  22  24
ENDBRANCH  13  22
ENDBRANCH   1  18
BRANCH  11  27
ATOM     27  C   UNL     1      -1.194  14.727  20.087  0.00  0.00    +0.000 A 
ATOM     28  C   UNL     1      -1.166  16.112  19.919  0.00  0.00    +0.000 A 
ATOM     29  C   UNL     1      -2.270  16.877  20.275  0.00  0.00    +0.000 A 
ATOM     30  N   UNL     1      -3.404  16.369  20.795  0.00  0.00    +0.000 NA
ATOM     31  C   UNL     1      -3.422  15.036  20.970  0.00  0.00    +0.000 A 
ATOM     32  C   UNL     1      -2.368  14.197  20.636  0.00  0.00    +0.000 A 
ENDBRANCH  11  27
TORSDOF 5
ENDMDL
MODEL 5
REMARK VINA RESULT:      -7.8      3.826      5.417
REMARK  Name = 
REMARK  5 active torsions:
REMARK  status: ('A' for Active; 'I' for Inactive)
REMARK    1  A    between atoms: C_2  and  O_3
REMARK    2  A    between atoms: C_2  and  C_4
REMARK    3  A    between atoms: C_4  and  N_5
REMARK    4  A    between atoms: C_10  and  C_11
REMARK    5  A    between atoms: N_21  and  C_22
REMARK                            x       y       z     vdW  Elec       q    Type
REMARK                         _______ _______ _______ _____ _____    ______ ____
ROOT
ATOM      1  C   UNL     1      -0.337  11.345  19.436  0.00  0.00    +0.000 C 
ATOM      2  O   UNL     1      -0.642  11.677  18.286  0.00  0.00    +0.000 OA
ATOM      3  N   UNL     1      -0.766  12.059  20.559  0.00  0.00    +0.000 N 
ATOM      4  C   UNL     1      -1.808  13.069  20.402  0.00  0.00    +0.000 C 
ATOM      5  C   UNL     1      -2.939  12.804  21.402  0.00  0.00    +0.000 C 
ATOM      6  C   UNL     1      -2.432  12.670  22.864  0.00  0.00    +0.000 C 
ATOM      7  C   UNL     1      -1.256  11.681  22.936  0.00  0.00    +0.000 C 
ATOM      8  C   UNL     1      -0.179  12.009  21.899  0.00  0.00    +0.000 C 
ATOM      9  C   UNL     1      -3.589  12.213  23.792  0.00  0.00    +0.000 C 
ATOM     10  C   UNL     1      -3.716  13.294  24.861  0.00  0.00    +0.000 C 
ATOM     11  N   UNL     1      -3.179  14.464  24.185  0.00  0.00    +0.000 N 
ATOM     12  C   UNL     1      -2.018  14.056  23.409  0.00  0.00    +0.000 C 
ENDROOT
BRANCH   1  18
ATOM     13  N   UNL     1       2.538   6.519  19.729  0.00  0.00    +0.000 N 
ATOM     14  C   UNL     1       3.139   6.495  18.498  0.00  0.00    +0.000 A 
ATOM     15  C   UNL     1       2.829   7.670  17.849  0.00  0.00    +0.000 A 
ATOM     16  C   UNL     1       1.986   8.432  18.705  0.00  0.00    +0.000 A 
ATOM     17  C   UNL     1       1.312   9.669  18.572  0.00  0.00    +0.000 A 
ATOM     18  C   UNL     1       0.461  10.097  19.603  0.00  0.00    +0.000 A 
ATOM     19  C   UNL     1       0.290   9.290  20.729  0.00  0.00    +0.000 A 
ATOM     20  C   UNL     1       1.034   8.134  20.937  0.00  0.00    +0.000 A 
ATOM     21  C   UNL     1       1.835   7.695  19.883  0.00  0.00    +0.000 A 
BRANCH  13  22
ATOM     22  C   UNL     1       2.521   5.403  20.670  0.00  0.00    +0.000 C 
BRANCH  22  24
ATOM     23  O   UNL     1       0.690   3.997  20.051  0.00  0.00    +0.000 OA
ATOM     24  C   UNL     1       1.907   4.123  20.167  0.00  0.00    +0.000 C 
BRANCH  24  25
ATOM     25  O   UNL     1       2.737   3.105  19.855  0.00  0.00    +0.000 OA
ATOM     26  H   UNL     1       2.548   2.243  20.280  0.00  0.00    +0.000 HD
ENDBRANCH  24  25
ENDBRANCH  22  24
ENDBRANCH  13  22
ENDBRANCH   1  18
BRANCH  11  27
ATOM     27  C   UNL     1      -3.406  15.763  24.571  0.00  0.00    +0.000 A 
ATOM     28  C   UNL     1      -2.372  16.604  24.983  0.00  0.00    +0.000 A 
ATOM     29  C   UNL     1      -2.656  17.893  25.415  0.00  0.00    +0.000 A 
ATOM     30  N   UNL     1      -3.898  18.412  25.476  0.00  0.00    +0.000 NA
ATOM     31  C   UNL     1      -4.893  17.594  25.093  0.00  0.00    +0.000 A 
ATOM     32  C   UNL     1      -4.698  16.296  24.643  0.00  0.00    +0.000 A 
ENDBRANCH  11  27
TORSDOF 5
ENDMDL
MODEL 6
REMARK VINA RESULT:      -7.8      3.783      4.577
REMARK  Name = 
REMARK  5 active torsions:
REMARK  status: ('A' for Active; 'I' for Inactive)
REMARK    1  A    between atoms: C_2  and  O_3
REMARK    2  A    between atoms: C_2  and  C_4
REMARK    3  A    between atoms: C_4  and  N_5
REMARK    4  A    between atoms: C_10  and  C_11
REMARK    5  A    between atoms: N_21  and  C_22
REMARK                            x       y       z     vdW  Elec       q    Type
REMARK                         _______ _______ _______ _____ _____    ______ ____
ROOT
ATOM      1  C   UNL     1       1.078  10.708  18.932  0.00  0.00    +0.000 C 
ATOM      2  O   UNL     1       1.897  11.632  18.964  0.00  0.00    +0.000 OA
ATOM      3  N   UNL     1      -0.302  10.934  18.904  0.00  0.00    +0.000 N 
ATOM      4  C   UNL     1      -0.795  12.283  18.647  0.00  0.00    +0.000 C 
ATOM      5  C   UNL     1      -1.806  12.253  17.495  0.00  0.00    +0.000 C 
ATOM      6  C   UNL     1      -2.943  11.218  17.716  0.00  0.00    +0.000 C 
ATOM      7  C   UNL     1      -2.354   9.850  18.102  0.00  0.00    +0.000 C 
ATOM      8  C   UNL     1      -1.349   9.970  19.248  0.00  0.00    +0.000 C 
ATOM      9  C   UNL     1      -3.814  11.099  16.438  0.00  0.00    +0.000 C 
ATOM     10  C   UNL     1      -5.236  11.445  16.872  0.00  0.00    +0.000 C 
ATOM     11  N   UNL     1      -5.010  12.288  18.034  0.00  0.00    +0.000 N 
ATOM     12  C   UNL     1      -3.914  11.724  18.807  0.00  0.00    +0.000 C 
ENDROOT
BRANCH   1  18
ATOM     13  N   UNL     1       3.240   5.515  18.978  0.00  0.00    +0.000 N 
ATOM     14  C   UNL     1       2.826   5.070  20.207  0.00  0.00    +0.000 A 
ATOM     15  C   UNL     1       2.033   6.044  20.770  0.00  0.00    +0.000 A 
ATOM     16  C   UNL     1       1.977   7.139  19.864  0.00  0.00    +0.000 A 
ATOM     17  C   UNL     1       1.383   8.422  19.909  0.00  0.00    +0.000 A 
ATOM     18  C   UNL     1       1.610   9.318  18.853  0.00  0.00    +0.000 A 
ATOM     19  C   UNL     1       2.425   8.930  17.788  0.00  0.00    +0.000 A 
ATOM     20  C   UNL     1       2.918   7.635  17.663  0.00  0.00    +0.000 A 
ATOM     21  C   UNL     1       2.727   6.774  18.742  0.00  0.00    +0.000 A 
BRANCH  13  22
ATOM     22  C   UNL     1       4.199   4.826  18.121  0.00  0.00    +0.000 C 
BRANCH  22  24
ATOM     23  O   UNL     1       3.581   2.530  17.886  0.00  0.00    +0.000 OA
ATOM     24  C   UNL     1       4.362   3.349  18.365  0.00  0.00    +0.000 C 
BRANCH  24  25
ATOM     25  O   UNL     1       5.393   2.947  19.138  0.00  0.00    +0.000 OA
ATOM     26  H   UNL     1       5.392   3.267  20.064  0.00  0.00    +0.000 HD
ENDBRANCH  24  25
ENDBRANCH  22  24
ENDBRANCH  13  22
ENDBRANCH   1  18
BRANCH  11  27
ATOM     27  C   UNL     1      -5.936  13.153  18.564  0.00  0.00    +0.000 A 
ATOM     28  C   UNL     1      -6.869  13.819  17.768  0.00  0.00    +0.000 A 
ATOM     29  C   UNL     1      -7.752  14.724  18.343  0.00  0.00    +0.000 A 
ATOM     30  N   UNL     1      -7.775  15.025  19.655  0.00  0.00    +0.000 NA
ATOM     31  C   UNL     1      -6.866  14.393  20.417  0.00  0.00    +0.000 A 
ATOM     32  C   UNL     1      -5.952  13.471  19.928  0.00  0.00    +0.000 A 
ENDBRANCH  11  27
TORSDOF 5
ENDMDL
MODEL 7
REMARK VINA RESULT:      -7.8      1.393      2.103
REMARK  Name = 
REMARK  5 active torsions:
REMARK  status: ('A' for Active; 'I' for Inactive)
REMARK    1  A    between atoms: C_2  and  O_3
REMARK    2  A    between atoms: C_2  and  C_4
REMARK    3  A    between atoms: C_4  and  N_5
REMARK    4  A    between atoms: C_10  and  C_11
REMARK    5  A    between atoms: N_21  and  C_22
REMARK                            x       y       z     vdW  Elec       q    Type
REMARK                         _______ _______ _______ _____ _____    ______ ____
ROOT
ATOM      1  C   UNL     1       0.596   9.288  20.734  0.00  0.00    +0.000 C 
ATOM      2  O   UNL     1      -0.012   9.018  21.775  0.00  0.00    +0.000 OA
ATOM      3  N   UNL     1       0.547  10.557  20.149  0.00  0.00    +0.000 N 
ATOM      4  C   UNL     1      -0.019  11.667  20.908  0.00  0.00    +0.000 C 
ATOM      5  C   UNL     1       0.973  12.835  20.933  0.00  0.00    +0.000 C 
ATOM      6  C   UNL     1       1.457  13.247  19.515  0.00  0.00    +0.000 C 
ATOM      7  C   UNL     1       1.926  12.011  18.729  0.00  0.00    +0.000 C 
ATOM      8  C   UNL     1       0.885  10.891  18.764  0.00  0.00    +0.000 C 
ATOM      9  C   UNL     1       2.597  14.294  19.621  0.00  0.00    +0.000 C 
ATOM     10  C   UNL     1       2.107  15.520  18.856  0.00  0.00    +0.000 C 
ATOM     11  N   UNL     1       0.662  15.382  18.939  0.00  0.00    +0.000 N 
ATOM     12  C   UNL     1       0.322  13.978  18.762  0.00  0.00    +0.000 C 
ENDROOT
BRANCH   1  18
ATOM     13  N   UNL     1       3.671   5.341  18.164  0.00  0.00    +0.000 N 
ATOM     14  C   UNL     1       4.122   6.031  17.069  0.00  0.00    +0.000 A 
ATOM     15  C   UNL     1       3.692   7.335  17.180  0.00  0.00    +0.000 A 
ATOM     16  C   UNL     1       2.928   7.443  18.374  0.00  0.00    +0.000 A 
ATOM     17  C   UNL     1       2.195   8.491  18.979  0.00  0.00    +0.000 A 
ATOM     18  C   UNL     1       1.455   8.224  20.142  0.00  0.00    +0.000 A 
ATOM     19  C   UNL     1       1.450   6.932  20.669  0.00  0.00    +0.000 A 
ATOM     20  C   UNL     1       2.257   5.918  20.163  0.00  0.00    +0.000 A 
ATOM     21  C   UNL     1       2.945   6.184  18.980  0.00  0.00    +0.000 A 
BRANCH  13  22
ATOM     22  C   UNL     1       3.808   3.901  18.356  0.00  0.00    +0.000 C 
BRANCH  22  24
ATOM     23  O   UNL     1       5.961   4.182  19.355  0.00  0.00    +0.000 OA
ATOM     24  C   UNL     1       4.989   3.452  19.177  0.00  0.00    +0.000 C 
BRANCH  24  25
ATOM     25  O   UNL     1       4.953   2.211  19.707  0.00  0.00    +0.000 OA
ATOM     26  H   UNL     1       5.597   2.024  20.420  0.00  0.00    +0.000 HD
ENDBRANCH  24  25
ENDBRANCH  22  24
ENDBRANCH  13  22
ENDBRANCH   1  18
BRANCH  11  27
ATOM     27  C   UNL     1      -0.234  16.403  18.736  0.00  0.00    +0.000 A 
ATOM     28  C   UNL     1      -0.077  17.332  17.707  0.00  0.00    +0.000 A 
ATOM     29  C   UNL     1      -0.980  18.380  17.573  0.00  0.00    +0.000 A 
ATOM     30  N   UNL     1      -2.030  18.579  18.392  0.00  0.00    +0.000 NA
ATOM     31  C   UNL     1      -2.170  17.692  19.392  0.00  0.00    +0.000 A 
ATOM     32  C   UNL     1      -1.319  16.614  19.595  0.00  0.00    +0.000 A 
ENDBRANCH  11  27
TORSDOF 5
ENDMDL
MODEL 8
REMARK VINA RESULT:      -7.8      3.956      5.062
REMARK  Name = 
REMARK  5 active torsions:
REMARK  status: ('A' for Active; 'I' for Inactive)
REMARK    1  A    between atoms: C_2  and  O_3
REMARK    2  A    between atoms: C_2  and  C_4
REMARK    3  A    between atoms: C_4  and  N_5
REMARK    4  A    between atoms: C_10  and  C_11
REMARK    5  A    between atoms: N_21  and  C_22
REMARK                            x       y       z     vdW  Elec       q    Type
REMARK                         _______ _______ _______ _____ _____    ______ ____
ROOT
ATOM      1  C   UNL     1       1.071  10.767  19.196  0.00  0.00    +0.000 C 
ATOM      2  O   UNL     1       1.861  11.714  19.268  0.00  0.00    +0.000 OA
ATOM      3  N   UNL     1      -0.303  10.953  19.012  0.00  0.00    +0.000 N 
ATOM      4  C   UNL     1      -0.797  12.274  18.638  0.00  0.00    +0.000 C 
ATOM      5  C   UNL     1      -1.678  12.163  17.389  0.00  0.00    +0.000 C 
ATOM      6  C   UNL     1      -2.808  11.108  17.541  0.00  0.00    +0.000 C 
ATOM      7  C   UNL     1      -2.233   9.776  18.053  0.00  0.00    +0.000 C 
ATOM      8  C   UNL     1      -1.359   9.978  19.292  0.00  0.00    +0.000 C 
ATOM      9  C   UNL     1      -3.537  10.905  16.186  0.00  0.00    +0.000 C 
ATOM     10  C   UNL     1      -5.003  11.231  16.450  0.00  0.00    +0.000 C 
ATOM     11  N   UNL     1      -4.921  12.134  17.586  0.00  0.00    +0.000 N 
ATOM     12  C   UNL     1      -3.901  11.638  18.497  0.00  0.00    +0.000 C 
ENDROOT
BRANCH   1  18
ATOM     13  N   UNL     1       3.057   5.508  19.026  0.00  0.00    +0.000 N 
ATOM     14  C   UNL     1       3.620   5.479  17.777  0.00  0.00    +0.000 A 
ATOM     15  C   UNL     1       3.509   6.739  17.231  0.00  0.00    +0.000 A 
ATOM     16  C   UNL     1       2.831   7.564  18.169  0.00  0.00    +0.000 A 
ATOM     17  C   UNL     1       2.382   8.906  18.153  0.00  0.00    +0.000 A 
ATOM     18  C   UNL     1       1.639   9.391  19.242  0.00  0.00    +0.000 A 
ATOM     19  C   UNL     1       1.351   8.538  20.308  0.00  0.00    +0.000 A 
ATOM     20  C   UNL     1       1.884   7.257  20.402  0.00  0.00    +0.000 A 
ATOM     21  C   UNL     1       2.575   6.772  19.293  0.00  0.00    +0.000 A 
BRANCH  13  22
ATOM     22  C   UNL     1       2.862   4.339  19.879  0.00  0.00    +0.000 C 
BRANCH  22  24
ATOM     23  O   UNL     1       1.616   2.746  18.606  0.00  0.00    +0.000 OA
ATOM     24  C   UNL     1       1.651   3.495  19.579  0.00  0.00    +0.000 C 
BRANCH  24  25
ATOM     25  O   UNL     1       0.591   3.595  20.410  0.00  0.00    +0.000 OA
ATOM     26  H   UNL     1       0.084   2.773  20.568  0.00  0.00    +0.000 HD
ENDBRANCH  24  25
ENDBRANCH  22  24
ENDBRANCH  13  22
ENDBRANCH   1  18
BRANCH  11  27
ATOM     27  C   UNL     1      -5.918  12.997  17.973  0.00  0.00    +0.000 A 
ATOM     28  C   UNL     1      -6.803  13.565  17.056  0.00  0.00    +0.000 A 
ATOM     29  C   UNL     1      -7.762  14.473  17.487  0.00  0.00    +0.000 A 
ATOM     30  N   UNL     1      -7.905  14.868  18.767  0.00  0.00    +0.000 NA
ATOM     31  C   UNL     1      -7.042  14.330  19.646  0.00  0.00    +0.000 A 
ATOM     32  C   UNL     1      -6.059  13.413  19.303  0.00  0.00    +0.000 A 
ENDBRANCH  11  27
TORSDOF 5
ENDMDL
MODEL 9
REMARK VINA RESULT:      -7.7      5.776      8.231
REMARK  Name = 
REMARK  5 active torsions:
REMARK  status: ('A' for Active; 'I' for Inactive)
REMARK    1  A    between atoms: C_2  and  O_3
REMARK    2  A    between atoms: C_2  and  C_4
REMARK    3  A    between atoms: C_4  and  N_5
REMARK    4  A    between atoms: C_10  and  C_11
REMARK    5  A    between atoms: N_21  and  C_22
REMARK                            x       y       z     vdW  Elec       q    Type
REMARK                         _______ _______ _______ _____ _____    ______ ____
ROOT
ATOM      1  C   UNL     1       3.252  16.268  18.448  0.00  0.00    +0.000 C 
ATOM      2  O   UNL     1       2.819  17.152  17.703  0.00  0.00    +0.000 OA
ATOM      3  N   UNL     1       2.408  15.437  19.191  0.00  0.00    +0.000 N 
ATOM      4  C   UNL     1       0.979  15.429  18.895  0.00  0.00    +0.000 C 
ATOM      5  C   UNL     1       0.508  13.990  18.659  0.00  0.00    +0.000 C 
ATOM      6  C   UNL     1       0.897  13.030  19.817  0.00  0.00    +0.000 C 
ATOM      7  C   UNL     1       2.391  13.179  20.156  0.00  0.00    +0.000 C 
ATOM      8  C   UNL     1       2.780  14.643  20.364  0.00  0.00    +0.000 C 
ATOM      9  C   UNL     1       0.567  11.564  19.431  0.00  0.00    +0.000 C 
ATOM     10  C   UNL     1      -0.393  11.059  20.505  0.00  0.00    +0.000 C 
ATOM     11  N   UNL     1      -1.006  12.289  20.977  0.00  0.00    +0.000 N 
ATOM     12  C   UNL     1       0.022  13.316  21.058  0.00  0.00    +0.000 C 
ENDROOT
BRANCH   1  18
ATOM     13  N   UNL     1       8.859  15.820  18.407  0.00  0.00    +0.000 N 
ATOM     14  C   UNL     1       9.224  17.042  18.909  0.00  0.00    +0.000 A 
ATOM     15  C   UNL     1       8.077  17.722  19.253  0.00  0.00    +0.000 A 
ATOM     16  C   UNL     1       6.966  16.897  18.927  0.00  0.00    +0.000 A 
ATOM     17  C   UNL     1       5.563  17.068  18.990  0.00  0.00    +0.000 A 
ATOM     18  C   UNL     1       4.727  16.060  18.484  0.00  0.00    +0.000 A 
ATOM     19  C   UNL     1       5.297  14.918  17.919  0.00  0.00    +0.000 A 
ATOM     20  C   UNL     1       6.666  14.673  17.956  0.00  0.00    +0.000 A 
ATOM     21  C   UNL     1       7.485  15.704  18.415  0.00  0.00    +0.000 A 
BRANCH  13  22
ATOM     22  C   UNL     1       9.779  14.854  17.813  0.00  0.00    +0.000 C 
BRANCH  22  24
ATOM     23  O   UNL     1      12.087  15.424  17.574  0.00  0.00    +0.000 OA
ATOM     24  C   UNL     1      10.962  15.430  17.081  0.00  0.00    +0.000 C 
BRANCH  24  25
ATOM     25  O   UNL     1      10.748  15.969  15.861  0.00  0.00    +0.000 OA
ATOM     26  H   UNL     1       9.980  16.571  15.781  0.00  0.00    +0.000 HD
ENDBRANCH  24  25
ENDBRANCH  22  24
ENDBRANCH  13  22
ENDBRANCH   1  18
BRANCH  11  27
ATOM     27  C   UNL     1      -2.191  12.356  21.670  0.00  0.00    +0.000 A 
ATOM     28  C   UNL     1      -3.393  12.700  21.050  0.00  0.00    +0.000 A 
ATOM     29  C   UNL     1      -4.556  12.806  21.801  0.00  0.00    +0.000 A 
ATOM     30  N   UNL     1      -4.616  12.603  23.131  0.00  0.00    +0.000 NA
ATOM     31  C   UNL     1      -3.454  12.287  23.728  0.00  0.00    +0.000 A 
ATOM     32  C   UNL     1      -2.248  12.154  23.054  0.00  0.00    +0.000 A 
ENDBRANCH  11  27
TORSDOF 5
ENDMDL
