MODEL 1
REMARK VINA RESULT:      -8.7      0.000      0.000
REMARK  Name = 
REMARK  3 active torsions:
REMARK  status: ('A' for Active; 'I' for Inactive)
REMARK    1  A    between atoms: C_1  and  O_2
REMARK    2  A    between atoms: O_2  and  C_3
REMARK    3  A    between atoms: C_3  and  C_5
REMARK                            x       y       z     vdW  Elec       q    Type
REMARK                         _______ _______ _______ _____ _____    ______ ____
ROOT
ATOM      1  C   UNL     1       5.977   5.259  17.460  0.00  0.00    +0.000 C 
ATOM      2  C   UNL     1       5.842   5.217  18.987  0.00  0.00    +0.000 C 
ATOM      3  C   UNL     1       4.500   5.442  19.701  0.00  0.00    +0.000 C 
ATOM      4  C   UNL     1       3.210   5.716  19.390  0.00  0.00    +0.000 C 
ATOM      5  C   UNL     1       2.401   5.762  18.084  0.00  0.00    +0.000 C 
ATOM      6  C   UNL     1       2.406   4.330  17.521  0.00  0.00    +0.000 A 
ATOM      7  C   UNL     1       1.309   3.532  17.891  0.00  0.00    +0.000 A 
ATOM      8  C   UNL     1       1.559   2.330  18.527  0.00  0.00    +0.000 A 
ATOM      9  C   UNL     1       2.884   1.914  18.679  0.00  0.00    +0.000 A 
ATOM     10  C   UNL     1       3.948   2.599  18.035  0.00  0.00    +0.000 A 
ATOM     11  C   UNL     1       3.712   3.796  17.347  0.00  0.00    +0.000 A 
ATOM     12  C   UNL     1       4.708   4.790  16.713  0.00  0.00    +0.000 C 
ATOM     13  C   UNL     1       5.171   4.417  15.316  0.00  0.00    +0.000 C 
ATOM     14  N   UNL     1       6.528   4.028  15.501  0.00  0.00    +0.000 N 
ATOM     15  C   UNL     1       7.013   4.377  16.759  0.00  0.00    +0.000 C 
ATOM     16  O   UNL     1       8.172   4.145  17.111  0.00  0.00    +0.000 OA
ATOM     17  H   UNL     1       7.151   3.756  14.748  0.00  0.00    +0.000 HD
ENDROOT
BRANCH   1  18
ATOM     18  C   UNL     1       6.504   6.697  17.138  0.00  0.00    +0.000 C 
ATOM     19  O   UNL     1       5.987   7.417  16.279  0.00  0.00    +0.000 OA
BRANCH  18  21
ATOM     20  C   UNL     1       7.894   8.466  17.754  0.00  0.00    +0.000 C 
ATOM     21  O   UNL     1       7.534   7.085  17.906  0.00  0.00    +0.000 OA
ENDBRANCH  18  21
ENDBRANCH   1  18
TORSDOF 2
ENDMDL
MODEL 2
REMARK VINA RESULT:      -8.2      3.295      5.277
REMARK  Name = 
REMARK  3 active torsions:
REMARK  status: ('A' for Active; 'I' for Inactive)
REMARK    1  A    between atoms: C_1  and  O_2
REMARK    2  A    between atoms: O_2  and  C_3
REMARK    3  A    between atoms: C_3  and  C_5
REMARK                            x       y       z     vdW  Elec       q    Type
REMARK                         _______ _______ _______ _____ _____    ______ ____
ROOT
ATOM      1  C   UNL     1       2.515   3.973  18.773  0.00  0.00    +0.000 C 
ATOM      2  C   UNL     1       2.326   5.311  18.047  0.00  0.00    +0.000 C 
ATOM      3  C   UNL     1       3.459   6.340  17.910  0.00  0.00    +0.000 C 
ATOM      4  C   UNL     1       4.754   6.490  18.280  0.00  0.00    +0.000 C 
ATOM      5  C   UNL     1       5.814   5.565  18.899  0.00  0.00    +0.000 C 
ATOM      6  C   UNL     1       6.063   4.445  17.874  0.00  0.00    +0.000 A 
ATOM      7  C   UNL     1       7.127   4.669  16.982  0.00  0.00    +0.000 A 
ATOM      8  C   UNL     1       6.862   4.633  15.625  0.00  0.00    +0.000 A 
ATOM      9  C   UNL     1       5.580   4.276  15.201  0.00  0.00    +0.000 A 
ATOM     10  C   UNL     1       4.617   3.772  16.115  0.00  0.00    +0.000 A 
ATOM     11  C   UNL     1       4.880   3.757  17.491  0.00  0.00    +0.000 A 
ATOM     12  C   UNL     1       3.952   3.414  18.676  0.00  0.00    +0.000 C 
ATOM     13  C   UNL     1       3.833   1.930  18.977  0.00  0.00    +0.000 C 
ATOM     14  N   UNL     1       2.511   1.604  18.562  0.00  0.00    +0.000 N 
ATOM     15  C   UNL     1       1.739   2.737  18.313  0.00  0.00    +0.000 C 
ATOM     16  O   UNL     1       0.559   2.672  17.961  0.00  0.00    +0.000 OA
ATOM     17  H   UNL     1       2.090   0.687  18.664  0.00  0.00    +0.000 HD
ENDROOT
BRANCH   1  18
ATOM     18  C   UNL     1       1.935   4.205  20.209  0.00  0.00    +0.000 C 
ATOM     19  O   UNL     1       2.132   5.244  20.844  0.00  0.00    +0.000 OA
BRANCH  18  21
ATOM     20  C   UNL     1       1.623   2.636  21.905  0.00  0.00    +0.000 C 
ATOM     21  O   UNL     1       1.178   3.194  20.659  0.00  0.00    +0.000 OA
ENDBRANCH  18  21
ENDBRANCH   1  18
TORSDOF 2
ENDMDL
MODEL 3
REMARK VINA RESULT:      -8.2      1.682      3.544
REMARK  Name = 
REMARK  3 active torsions:
REMARK  status: ('A' for Active; 'I' for Inactive)
REMARK    1  A    between atoms: C_1  and  O_2
REMARK    2  A    between atoms: O_2  and  C_3
REMARK    3  A    between atoms: C_3  and  C_5
REMARK                            x       y       z     vdW  Elec       q    Type
REMARK                         _______ _______ _______ _____ _____    ______ ____
ROOT
ATOM      1  C   UNL     1       5.482   4.891  17.259  0.00  0.00    +0.000 C 
ATOM      2  C   UNL     1       4.136   4.681  16.554  0.00  0.00    +0.000 C 
ATOM      3  C   UNL     1       3.179   3.541  16.934  0.00  0.00    +0.000 C 
ATOM      4  C   UNL     1       3.120   2.499  17.799  0.00  0.00    +0.000 C 
ATOM      5  C   UNL     1       3.963   2.048  19.002  0.00  0.00    +0.000 C 
ATOM      6  C   UNL     1       3.829   3.153  20.064  0.00  0.00    +0.000 A 
ATOM      7  C   UNL     1       2.809   2.960  21.012  0.00  0.00    +0.000 A 
ATOM      8  C   UNL     1       1.849   3.945  21.151  0.00  0.00    +0.000 A 
ATOM      9  C   UNL     1       1.992   5.129  20.422  0.00  0.00    +0.000 A 
ATOM     10  C   UNL     1       3.184   5.409  19.703  0.00  0.00    +0.000 A 
ATOM     11  C   UNL     1       4.190   4.442  19.586  0.00  0.00    +0.000 A 
ATOM     12  C   UNL     1       5.482   4.450  18.740  0.00  0.00    +0.000 C 
ATOM     13  C   UNL     1       6.654   5.171  19.382  0.00  0.00    +0.000 C 
ATOM     14  N   UNL     1       6.791   6.354  18.602  0.00  0.00    +0.000 N 
ATOM     15  C   UNL     1       6.047   6.304  17.425  0.00  0.00    +0.000 C 
ATOM     16  O   UNL     1       6.044   7.221  16.601  0.00  0.00    +0.000 OA
ATOM     17  H   UNL     1       7.518   7.048  18.740  0.00  0.00    +0.000 HD
ENDROOT
BRANCH   1  18
ATOM     18  C   UNL     1       6.542   4.226  16.317  0.00  0.00    +0.000 C 
ATOM     19  O   UNL     1       7.754   4.279  16.541  0.00  0.00    +0.000 OA
BRANCH  18  21
ATOM     20  C   UNL     1       6.448   4.035  13.995  0.00  0.00    +0.000 C 
ATOM     21  O   UNL     1       6.009   3.566  15.279  0.00  0.00    +0.000 OA
ENDBRANCH  18  21
ENDBRANCH   1  18
TORSDOF 2
ENDMDL
MODEL 4
REMARK VINA RESULT:      -7.9      3.046      5.489
REMARK  Name = 
REMARK  3 active torsions:
REMARK  status: ('A' for Active; 'I' for Inactive)
REMARK    1  A    between atoms: C_1  and  O_2
REMARK    2  A    between atoms: O_2  and  C_3
REMARK    3  A    between atoms: C_3  and  C_5
REMARK                            x       y       z     vdW  Elec       q    Type
REMARK                         _______ _______ _______ _____ _____    ______ ____
ROOT
ATOM      1  C   UNL     1       3.330   4.077  18.553  0.00  0.00    +0.000 C 
ATOM      2  C   UNL     1       4.340   3.157  17.856  0.00  0.00    +0.000 C 
ATOM      3  C   UNL     1       5.215   3.632  16.686  0.00  0.00    +0.000 C 
ATOM      4  C   UNL     1       5.414   4.749  15.945  0.00  0.00    +0.000 C 
ATOM      5  C   UNL     1       4.951   6.211  16.052  0.00  0.00    +0.000 C 
ATOM      6  C   UNL     1       5.559   6.763  17.354  0.00  0.00    +0.000 A 
ATOM      7  C   UNL     1       6.796   7.417  17.212  0.00  0.00    +0.000 A 
ATOM      8  C   UNL     1       7.868   6.958  17.956  0.00  0.00    +0.000 A 
ATOM      9  C   UNL     1       7.651   5.938  18.886  0.00  0.00    +0.000 A 
ATOM     10  C   UNL     1       6.338   5.508  19.212  0.00  0.00    +0.000 A 
ATOM     11  C   UNL     1       5.232   5.992  18.501  0.00  0.00    +0.000 A 
ATOM     12  C   UNL     1       3.750   5.565  18.559  0.00  0.00    +0.000 C 
ATOM     13  C   UNL     1       2.949   6.211  19.676  0.00  0.00    +0.000 C 
ATOM     14  N   UNL     1       2.720   5.143  20.590  0.00  0.00    +0.000 N 
ATOM     15  C   UNL     1       3.034   3.900  20.044  0.00  0.00    +0.000 C 
ATOM     16  O   UNL     1       2.891   2.846  20.667  0.00  0.00    +0.000 OA
ATOM     17  H   UNL     1       2.171   5.226  21.439  0.00  0.00    +0.000 HD
ENDROOT
BRANCH   1  18
ATOM     18  C   UNL     1       1.949   3.729  17.904  0.00  0.00    +0.000 C 
ATOM     19  O   UNL     1       1.213   4.586  17.408  0.00  0.00    +0.000 OA
BRANCH  18  21
ATOM     20  C   UNL     1       0.490   2.071  18.653  0.00  0.00    +0.000 C 
ATOM     21  O   UNL     1       1.663   2.418  17.903  0.00  0.00    +0.000 OA
ENDBRANCH  18  21
ENDBRANCH   1  18
TORSDOF 2
ENDMDL
MODEL 5
REMARK VINA RESULT:      -7.7      1.140      1.454
REMARK  Name = 
REMARK  3 active torsions:
REMARK  status: ('A' for Active; 'I' for Inactive)
REMARK    1  A    between atoms: C_1  and  O_2
REMARK    2  A    between atoms: O_2  and  C_3
REMARK    3  A    between atoms: C_3  and  C_5
REMARK                            x       y       z     vdW  Elec       q    Type
REMARK                         _______ _______ _______ _____ _____    ______ ____
ROOT
ATOM      1  C   UNL     1       6.339   5.513  17.484  0.00  0.00    +0.000 C 
ATOM      2  C   UNL     1       6.304   4.572  18.695  0.00  0.00    +0.000 C 
ATOM      3  C   UNL     1       5.161   4.595  19.722  0.00  0.00    +0.000 C 
ATOM      4  C   UNL     1       4.013   5.274  19.960  0.00  0.00    +0.000 C 
ATOM      5  C   UNL     1       3.174   6.287  19.164  0.00  0.00    +0.000 C 
ATOM      6  C   UNL     1       2.673   5.545  17.912  0.00  0.00    +0.000 A 
ATOM      7  C   UNL     1       1.404   4.951  18.030  0.00  0.00    +0.000 A 
ATOM      8  C   UNL     1       1.292   3.594  17.788  0.00  0.00    +0.000 A 
ATOM      9  C   UNL     1       2.416   2.898  17.338  0.00  0.00    +0.000 A 
ATOM     10  C   UNL     1       3.598   3.583  16.949  0.00  0.00    +0.000 A 
ATOM     11  C   UNL     1       3.718   4.964  17.144  0.00  0.00    +0.000 A 
ATOM     12  C   UNL     1       4.937   5.892  16.955  0.00  0.00    +0.000 C 
ATOM     13  C   UNL     1       5.154   6.368  15.529  0.00  0.00    +0.000 C 
ATOM     14  N   UNL     1       6.319   5.664  15.111  0.00  0.00    +0.000 N 
ATOM     15  C   UNL     1       6.979   5.050  16.173  0.00  0.00    +0.000 C 
ATOM     16  O   UNL     1       8.020   4.406  16.026  0.00  0.00    +0.000 OA
ATOM     17  H   UNL     1       6.766   5.785  14.208  0.00  0.00    +0.000 HD
ENDROOT
BRANCH   1  18
ATOM     18  C   UNL     1       7.282   6.687  17.909  0.00  0.00    +0.000 C 
ATOM     19  O   UNL     1       8.091   6.587  18.836  0.00  0.00    +0.000 OA
BRANCH  18  21
ATOM     20  C   UNL     1       7.890   8.922  17.637  0.00  0.00    +0.000 C 
ATOM     21  O   UNL     1       7.157   7.787  17.152  0.00  0.00    +0.000 OA
ENDBRANCH  18  21
ENDBRANCH   1  18
TORSDOF 2
ENDMDL
MODEL 6
REMARK VINA RESULT:      -7.7      3.227      5.066
REMARK  Name = 
REMARK  3 active torsions:
REMARK  status: ('A' for Active; 'I' for Inactive)
REMARK    1  A    between atoms: C_1  and  O_2
REMARK    2  A    between atoms: O_2  and  C_3
REMARK    3  A    between atoms: C_3  and  C_5
REMARK                            x       y       z     vdW  Elec       q    Type
REMARK                         _______ _______ _______ _____ _____    ______ ____
ROOT
ATOM      1  C   UNL     1       2.508   4.039  18.780  0.00  0.00    +0.000 C 
ATOM      2  C   UNL     1       2.309   5.289  17.914  0.00  0.00    +0.000 C 
ATOM      3  C   UNL     1       3.417   6.332  17.708  0.00  0.00    +0.000 C 
ATOM      4  C   UNL     1       4.694   6.560  18.103  0.00  0.00    +0.000 C 
ATOM      5  C   UNL     1       5.755   5.736  18.849  0.00  0.00    +0.000 C 
ATOM      6  C   UNL     1       6.072   4.525  17.954  0.00  0.00    +0.000 A 
ATOM      7  C   UNL     1       7.160   4.689  17.079  0.00  0.00    +0.000 A 
ATOM      8  C   UNL     1       6.945   4.506  15.726  0.00  0.00    +0.000 A 
ATOM      9  C   UNL     1       5.690   4.067  15.299  0.00  0.00    +0.000 A 
ATOM     10  C   UNL     1       4.709   3.630  16.229  0.00  0.00    +0.000 A 
ATOM     11  C   UNL     1       4.923   3.765  17.606  0.00  0.00    +0.000 A 
ATOM     12  C   UNL     1       3.962   3.517  18.789  0.00  0.00    +0.000 C 
ATOM     13  C   UNL     1       3.874   2.069  19.239  0.00  0.00    +0.000 C 
ATOM     14  N   UNL     1       2.577   1.662  18.816  0.00  0.00    +0.000 N 
ATOM     15  C   UNL     1       1.783   2.738  18.426  0.00  0.00    +0.000 C 
ATOM     16  O   UNL     1       0.619   2.601  18.044  0.00  0.00    +0.000 OA
ATOM     17  H   UNL     1       2.178   0.747  19.000  0.00  0.00    +0.000 HD
ENDROOT
BRANCH   1  18
ATOM     18  C   UNL     1       1.871   4.399  20.164  0.00  0.00    +0.000 C 
ATOM     19  O   UNL     1       0.984   3.716  20.685  0.00  0.00    +0.000 OA
BRANCH  18  21
ATOM     20  C   UNL     1       1.480   6.569  20.923  0.00  0.00    +0.000 C 
ATOM     21  O   UNL     1       2.404   5.485  20.743  0.00  0.00    +0.000 OA
ENDBRANCH  18  21
ENDBRANCH   1  18
TORSDOF 2
ENDMDL
MODEL 7
REMARK VINA RESULT:      -7.3      1.678      2.682
REMARK  Name = 
REMARK  3 active torsions:
REMARK  status: ('A' for Active; 'I' for Inactive)
REMARK    1  A    between atoms: C_1  and  O_2
REMARK    2  A    between atoms: O_2  and  C_3
REMARK    3  A    between atoms: C_3  and  C_5
REMARK                            x       y       z     vdW  Elec       q    Type
REMARK                         _______ _______ _______ _____ _____    ______ ____
ROOT
ATOM      1  C   UNL     1       4.819   5.619  17.487  0.00  0.00    +0.000 C 
ATOM      2  C   UNL     1       3.909   6.785  17.893  0.00  0.00    +0.000 C 
ATOM      3  C   UNL     1       2.379   6.655  17.949  0.00  0.00    +0.000 C 
ATOM      4  C   UNL     1       1.423   5.724  17.713  0.00  0.00    +0.000 C 
ATOM      5  C   UNL     1       1.434   4.213  17.428  0.00  0.00    +0.000 C 
ATOM      6  C   UNL     1       2.014   3.540  18.685  0.00  0.00    +0.000 A 
ATOM      7  C   UNL     1       1.067   3.111  19.631  0.00  0.00    +0.000 A 
ATOM      8  C   UNL     1       1.172   3.588  20.924  0.00  0.00    +0.000 A 
ATOM      9  C   UNL     1       2.268   4.388  21.258  0.00  0.00    +0.000 A 
ATOM     10  C   UNL     1       3.354   4.557  20.359  0.00  0.00    +0.000 A 
ATOM     11  C   UNL     1       3.289   4.045  19.057  0.00  0.00    +0.000 A 
ATOM     12  C   UNL     1       4.254   4.232  17.867  0.00  0.00    +0.000 C 
ATOM     13  C   UNL     1       5.447   3.291  17.866  0.00  0.00    +0.000 C 
ATOM     14  N   UNL     1       6.547   4.139  18.179  0.00  0.00    +0.000 N 
ATOM     15  C   UNL     1       6.217   5.489  18.096  0.00  0.00    +0.000 C 
ATOM     16  O   UNL     1       7.034   6.387  18.311  0.00  0.00    +0.000 OA
ATOM     17  H   UNL     1       7.512   3.830  18.218  0.00  0.00    +0.000 HD
ENDROOT
BRANCH   1  18
ATOM     18  C   UNL     1       5.145   5.866  15.975  0.00  0.00    +0.000 C 
ATOM     19  O   UNL     1       5.270   6.998  15.500  0.00  0.00    +0.000 OA
BRANCH  18  21
ATOM     20  C   UNL     1       6.535   4.699  14.512  0.00  0.00    +0.000 C 
ATOM     21  O   UNL     1       5.313   4.742  15.264  0.00  0.00    +0.000 OA
ENDBRANCH  18  21
ENDBRANCH   1  18
TORSDOF 2
ENDMDL
MODEL 8
REMARK VINA RESULT:      -7.2      0.841      1.241
REMARK  Name = 
REMARK  3 active torsions:
REMARK  status: ('A' for Active; 'I' for Inactive)
REMARK    1  A    between atoms: C_1  and  O_2
REMARK    2  A    between atoms: O_2  and  C_3
REMARK    3  A    between atoms: C_3  and  C_5
REMARK                            x       y       z     vdW  Elec       q    Type
REMARK                         _______ _______ _______ _____ _____    ______ ____
ROOT
ATOM      1  C   UNL     1       5.670   5.170  17.464  0.00  0.00    +0.000 C 
ATOM      2  C   UNL     1       5.533   5.345  18.982  0.00  0.00    +0.000 C 
ATOM      3  C   UNL     1       4.169   5.481  19.675  0.00  0.00    +0.000 C 
ATOM      4  C   UNL     1       2.854   5.516  19.347  0.00  0.00    +0.000 C 
ATOM      5  C   UNL     1       2.055   5.242  18.062  0.00  0.00    +0.000 C 
ATOM      6  C   UNL     1       2.271   3.756  17.726  0.00  0.00    +0.000 A 
ATOM      7  C   UNL     1       1.299   2.875  18.232  0.00  0.00    +0.000 A 
ATOM      8  C   UNL     1       1.716   1.835  19.041  0.00  0.00    +0.000 A 
ATOM      9  C   UNL     1       3.087   1.643  19.234  0.00  0.00    +0.000 A 
ATOM     10  C   UNL     1       4.044   2.366  18.474  0.00  0.00    +0.000 A 
ATOM     11  C   UNL     1       3.641   3.396  17.615  0.00  0.00    +0.000 A 
ATOM     12  C   UNL     1       4.487   4.414  16.820  0.00  0.00    +0.000 C 
ATOM     13  C   UNL     1       5.007   3.900  15.488  0.00  0.00    +0.000 C 
ATOM     14  N   UNL     1       6.405   3.743  15.709  0.00  0.00    +0.000 N 
ATOM     15  C   UNL     1       6.827   4.349  16.890  0.00  0.00    +0.000 C 
ATOM     16  O   UNL     1       8.005   4.343  17.255  0.00  0.00    +0.000 OA
ATOM     17  H   UNL     1       7.065   3.451  14.997  0.00  0.00    +0.000 HD
ENDROOT
BRANCH   1  18
ATOM     18  C   UNL     1       5.985   6.602  16.916  0.00  0.00    +0.000 C 
ATOM     19  O   UNL     1       7.082   7.146  17.072  0.00  0.00    +0.000 OA
BRANCH  18  21
ATOM     20  C   UNL     1       4.102   7.972  17.032  0.00  0.00    +0.000 C 
ATOM     21  O   UNL     1       4.974   7.158  16.233  0.00  0.00    +0.000 OA
ENDBRANCH  18  21
ENDBRANCH   1  18
TORSDOF 2
ENDMDL
MODEL 9
REMARK VINA RESULT:      -7.2      2.330      4.482
REMARK  Name = 
REMARK  3 active torsions:
REMARK  status: ('A' for Active; 'I' for Inactive)
REMARK    1  A    between atoms: C_1  and  O_2
REMARK    2  A    between atoms: O_2  and  C_3
REMARK    3  A    between atoms: C_3  and  C_5
REMARK                            x       y       z     vdW  Elec       q    Type
REMARK                         _______ _______ _______ _____ _____    ______ ____
ROOT
ATOM      1  C   UNL     1       4.008   3.836  18.113  0.00  0.00    +0.000 C 
ATOM      2  C   UNL     1       2.617   3.766  17.471  0.00  0.00    +0.000 C 
ATOM      3  C   UNL     1       1.349   4.233  18.202  0.00  0.00    +0.000 C 
ATOM      4  C   UNL     1       0.992   4.750  19.403  0.00  0.00    +0.000 C 
ATOM      5  C   UNL     1       1.764   5.309  20.609  0.00  0.00    +0.000 C 
ATOM      6  C   UNL     1       2.509   6.558  20.105  0.00  0.00    +0.000 A 
ATOM      7  C   UNL     1       1.830   7.777  20.279  0.00  0.00    +0.000 A 
ATOM      8  C   UNL     1       1.595   8.560  19.164  0.00  0.00    +0.000 A 
ATOM      9  C   UNL     1       2.130   8.159  17.938  0.00  0.00    +0.000 A 
ATOM     10  C   UNL     1       3.054   7.084  17.855  0.00  0.00    +0.000 A 
ATOM     11  C   UNL     1       3.342   6.303  18.982  0.00  0.00    +0.000 A 
ATOM     12  C   UNL     1       4.172   5.008  19.107  0.00  0.00    +0.000 C 
ATOM     13  C   UNL     1       5.670   5.227  19.236  0.00  0.00    +0.000 C 
ATOM     14  N   UNL     1       6.186   4.784  17.986  0.00  0.00    +0.000 N 
ATOM     15  C   UNL     1       5.242   4.081  17.241  0.00  0.00    +0.000 C 
ATOM     16  O   UNL     1       5.495   3.596  16.136  0.00  0.00    +0.000 OA
ATOM     17  H   UNL     1       7.173   4.756  17.754  0.00  0.00    +0.000 HD
ENDROOT
BRANCH   1  18
ATOM     18  C   UNL     1       4.277   2.394  18.660  0.00  0.00    +0.000 C 
ATOM     19  O   UNL     1       3.798   1.385  18.134  0.00  0.00    +0.000 OA
BRANCH  18  21
ATOM     20  C   UNL     1       4.526   1.771  20.893  0.00  0.00    +0.000 C 
ATOM     21  O   UNL     1       5.102   2.358  19.716  0.00  0.00    +0.000 OA
ENDBRANCH  18  21
ENDBRANCH   1  18
TORSDOF 2
ENDMDL
