MODEL 1
REMARK VINA RESULT:      -6.7      0.000      0.000
REMARK  Name = 
REMARK  9 active torsions:
REMARK  status: ('A' for Active; 'I' for Inactive)
REMARK    1  A    between atoms: C_1  and  C_2
REMARK    2  A    between atoms: C_6  and  C_7
REMARK    3  A    between atoms: C_8  and  O_9
REMARK    4  A    between atoms: O_9  and  C_10
REMARK    5  A    between atoms: C_10  and  C_11
REMARK    6  A    between atoms: N_13  and  C_14
REMARK    7  A    between atoms: C_15  and  C_16
REMARK    8  A    between atoms: N_18  and  C_19
REMARK    9  A    between atoms: C_20  and  C_21
REMARK                            x       y       z     vdW  Elec       q    Type
REMARK                         _______ _______ _______ _____ _____    ______ ____
ROOT
ATOM      1  C   UNL     1       2.225   7.280  19.725  0.00  0.00    +0.000 C 
ATOM      2  O   UNL     1       2.085   7.339  18.505  0.00  0.00    +0.000 OA
ATOM      3  N   UNL     1       2.757   6.195  20.419  0.00  0.00    +0.000 N 
ATOM      4  H   UNL     1       2.403   6.066  21.358  0.00  0.00    +0.000 HD
ENDROOT
BRANCH   3   5
ATOM      5  C   UNL     1       3.158   5.052  19.740  0.00  0.00    +0.000 A 
ATOM      6  C   UNL     1       4.407   4.715  19.153  0.00  0.00    +0.000 A 
ATOM      7  C   UNL     1       5.703   5.433  19.207  0.00  0.00    +0.000 C 
ATOM      8  N   UNL     1       4.362   3.511  18.568  0.00  0.00    +0.000 NA
ATOM      9  N   UNL     1       3.093   3.101  18.753  0.00  0.00    +0.000 N 
ATOM     10  C   UNL     1       2.646   1.896  18.097  0.00  0.00    +0.000 C 
ATOM     11  C   UNL     1       2.354   3.945  19.545  0.00  0.00    +0.000 A 
ATOM     12  C   UNL     1       0.951   3.679  19.945  0.00  0.00    +0.000 C 
ENDBRANCH   3   5
BRANCH   1  13
ATOM     13  C   UNL     1       1.822   8.444  20.640  0.00  0.00    +0.000 C 
BRANCH  13  14
ATOM     14  O   UNL     1       0.425   8.525  20.856  0.00  0.00    +0.000 OA
BRANCH  14  22
ATOM     15  C   UNL     1      -0.487  10.120  18.273  0.00  0.00    +0.000 C 
ATOM     16  C   UNL     1      -0.640  10.503  19.719  0.00  0.00    +0.000 A 
ATOM     17  C   UNL     1      -1.268  11.752  19.940  0.00  0.00    +0.000 A 
ATOM     18  C   UNL     1      -1.495  12.248  21.218  0.00  0.00    +0.000 A 
ATOM     19  C   UNL     1      -1.103  11.496  22.315  0.00  0.00    +0.000 A 
ATOM     20  C   UNL     1      -0.476  10.251  22.138  0.00  0.00    +0.000 A 
ATOM     21  C   UNL     1      -0.087   9.479  23.372  0.00  0.00    +0.000 C 
ATOM     22  C   UNL     1      -0.226   9.739  20.834  0.00  0.00    +0.000 A 
ENDBRANCH  14  22
ENDBRANCH  13  14
ENDBRANCH   1  13
TORSDOF 4
ENDMDL
MODEL 2
REMARK VINA RESULT:      -6.7      5.521      6.989
REMARK  Name = 
REMARK  9 active torsions:
REMARK  status: ('A' for Active; 'I' for Inactive)
REMARK    1  A    between atoms: C_1  and  C_2
REMARK    2  A    between atoms: C_6  and  C_7
REMARK    3  A    between atoms: C_8  and  O_9
REMARK    4  A    between atoms: O_9  and  C_10
REMARK    5  A    between atoms: C_10  and  C_11
REMARK    6  A    between atoms: N_13  and  C_14
REMARK    7  A    between atoms: C_15  and  C_16
REMARK    8  A    between atoms: N_18  and  C_19
REMARK    9  A    between atoms: C_20  and  C_21
REMARK                            x       y       z     vdW  Elec       q    Type
REMARK                         _______ _______ _______ _____ _____    ______ ____
ROOT
ATOM      1  C   UNL     1       4.002   3.516  17.037  0.00  0.00    +0.000 C 
ATOM      2  O   UNL     1       3.372   4.569  17.118  0.00  0.00    +0.000 OA
ATOM      3  N   UNL     1       5.387   3.418  16.930  0.00  0.00    +0.000 N 
ATOM      4  H   UNL     1       5.726   2.611  16.422  0.00  0.00    +0.000 HD
ENDROOT
BRANCH   3   5
ATOM      5  C   UNL     1       6.174   4.561  16.882  0.00  0.00    +0.000 A 
ATOM      6  C   UNL     1       6.841   5.180  15.791  0.00  0.00    +0.000 A 
ATOM      7  C   UNL     1       6.787   4.861  14.344  0.00  0.00    +0.000 C 
ATOM      8  N   UNL     1       7.519   6.266  16.186  0.00  0.00    +0.000 NA
ATOM      9  N   UNL     1       7.312   6.319  17.515  0.00  0.00    +0.000 N 
ATOM     10  C   UNL     1       8.042   7.286  18.297  0.00  0.00    +0.000 C 
ATOM     11  C   UNL     1       6.422   5.377  17.969  0.00  0.00    +0.000 A 
ATOM     12  C   UNL     1       5.982   5.275  19.383  0.00  0.00    +0.000 C 
ENDBRANCH   3   5
BRANCH   1  13
ATOM     13  C   UNL     1       3.298   2.153  17.058  0.00  0.00    +0.000 C 
BRANCH  13  14
ATOM     14  O   UNL     1       3.295   1.548  18.337  0.00  0.00    +0.000 OA
BRANCH  14  22
ATOM     15  C   UNL     1       0.274   2.505  18.415  0.00  0.00    +0.000 C 
ATOM     16  C   UNL     1       1.322   2.605  19.489  0.00  0.00    +0.000 A 
ATOM     17  C   UNL     1       0.889   3.223  20.687  0.00  0.00    +0.000 A 
ATOM     18  C   UNL     1       1.732   3.384  21.780  0.00  0.00    +0.000 A 
ATOM     19  C   UNL     1       3.035   2.920  21.704  0.00  0.00    +0.000 A 
ATOM     20  C   UNL     1       3.504   2.301  20.533  0.00  0.00    +0.000 A 
ATOM     21  C   UNL     1       4.928   1.808  20.520  0.00  0.00    +0.000 C 
ATOM     22  C   UNL     1       2.655   2.143  19.402  0.00  0.00    +0.000 A 
ENDBRANCH  14  22
ENDBRANCH  13  14
ENDBRANCH   1  13
TORSDOF 4
ENDMDL
MODEL 3
REMARK VINA RESULT:      -6.7      0.157      1.915
REMARK  Name = 
REMARK  9 active torsions:
REMARK  status: ('A' for Active; 'I' for Inactive)
REMARK    1  A    between atoms: C_1  and  C_2
REMARK    2  A    between atoms: C_6  and  C_7
REMARK    3  A    between atoms: C_8  and  O_9
REMARK    4  A    between atoms: O_9  and  C_10
REMARK    5  A    between atoms: C_10  and  C_11
REMARK    6  A    between atoms: N_13  and  C_14
REMARK    7  A    between atoms: C_15  and  C_16
REMARK    8  A    between atoms: N_18  and  C_19
REMARK    9  A    between atoms: C_20  and  C_21
REMARK                            x       y       z     vdW  Elec       q    Type
REMARK                         _______ _______ _______ _____ _____    ______ ____
ROOT
ATOM      1  C   UNL     1       2.239   7.266  19.679  0.00  0.00    +0.000 C 
ATOM      2  O   UNL     1       2.275   7.360  18.453  0.00  0.00    +0.000 OA
ATOM      3  N   UNL     1       2.645   6.150  20.408  0.00  0.00    +0.000 N 
ATOM      4  H   UNL     1       2.158   6.006  21.284  0.00  0.00    +0.000 HD
ENDROOT
BRANCH   3   5
ATOM      5  C   UNL     1       3.113   5.016  19.760  0.00  0.00    +0.000 A 
ATOM      6  C   UNL     1       4.387   4.729  19.202  0.00  0.00    +0.000 A 
ATOM      7  C   UNL     1       5.647   5.510  19.264  0.00  0.00    +0.000 C 
ATOM      8  N   UNL     1       4.412   3.513  18.640  0.00  0.00    +0.000 NA
ATOM      9  N   UNL     1       3.161   3.045  18.811  0.00  0.00    +0.000 N 
ATOM     10  C   UNL     1       2.786   1.807  18.172  0.00  0.00    +0.000 C 
ATOM     11  C   UNL     1       2.368   3.867  19.573  0.00  0.00    +0.000 A 
ATOM     12  C   UNL     1       0.972   3.540  19.954  0.00  0.00    +0.000 C 
ENDBRANCH   3   5
BRANCH   1  13
ATOM     13  C   UNL     1       1.736   8.415  20.561  0.00  0.00    +0.000 C 
BRANCH  13  14
ATOM     14  O   UNL     1       0.342   8.633  20.451  0.00  0.00    +0.000 OA
BRANCH  14  22
ATOM     15  C   UNL     1      -0.028   9.522  23.471  0.00  0.00    +0.000 C 
ATOM     16  C   UNL     1      -0.438  10.247  22.218  0.00  0.00    +0.000 A 
ATOM     17  C   UNL     1      -1.086  11.487  22.434  0.00  0.00    +0.000 A 
ATOM     18  C   UNL     1      -1.518  12.286  21.382  0.00  0.00    +0.000 A 
ATOM     19  C   UNL     1      -1.304  11.864  20.079  0.00  0.00    +0.000 A 
ATOM     20  C   UNL     1      -0.665  10.639  19.823  0.00  0.00    +0.000 A 
ATOM     21  C   UNL     1      -0.453  10.245  18.384  0.00  0.00    +0.000 C 
ATOM     22  C   UNL     1      -0.230   9.806  20.891  0.00  0.00    +0.000 A 
ENDBRANCH  14  22
ENDBRANCH  13  14
ENDBRANCH   1  13
TORSDOF 4
ENDMDL
MODEL 4
REMARK VINA RESULT:      -6.6      1.828      3.209
REMARK  Name = 
REMARK  9 active torsions:
REMARK  status: ('A' for Active; 'I' for Inactive)
REMARK    1  A    between atoms: C_1  and  C_2
REMARK    2  A    between atoms: C_6  and  C_7
REMARK    3  A    between atoms: C_8  and  O_9
REMARK    4  A    between atoms: O_9  and  C_10
REMARK    5  A    between atoms: C_10  and  C_11
REMARK    6  A    between atoms: N_13  and  C_14
REMARK    7  A    between atoms: C_15  and  C_16
REMARK    8  A    between atoms: N_18  and  C_19
REMARK    9  A    between atoms: C_20  and  C_21
REMARK                            x       y       z     vdW  Elec       q    Type
REMARK                         _______ _______ _______ _____ _____    ______ ____
ROOT
ATOM      1  C   UNL     1       2.216   5.866  20.122  0.00  0.00    +0.000 C 
ATOM      2  O   UNL     1       2.720   4.956  20.779  0.00  0.00    +0.000 OA
ATOM      3  N   UNL     1       2.328   6.013  18.742  0.00  0.00    +0.000 N 
ATOM      4  H   UNL     1       2.297   6.968  18.405  0.00  0.00    +0.000 HD
ENDROOT
BRANCH   3   5
ATOM      5  C   UNL     1       3.071   5.110  17.994  0.00  0.00    +0.000 A 
ATOM      6  C   UNL     1       2.883   3.721  17.766  0.00  0.00    +0.000 A 
ATOM      7  C   UNL     1       1.754   2.842  18.155  0.00  0.00    +0.000 C 
ATOM      8  N   UNL     1       3.855   3.216  16.994  0.00  0.00    +0.000 NA
ATOM      9  N   UNL     1       4.667   4.264  16.760  0.00  0.00    +0.000 N 
ATOM     10  C   UNL     1       5.922   4.037  16.086  0.00  0.00    +0.000 C 
ATOM     11  C   UNL     1       4.185   5.452  17.250  0.00  0.00    +0.000 A 
ATOM     12  C   UNL     1       4.867   6.757  17.063  0.00  0.00    +0.000 C 
ENDBRANCH   3   5
BRANCH   1  13
ATOM     13  C   UNL     1       1.373   6.964  20.782  0.00  0.00    +0.000 C 
BRANCH  13  14
ATOM     14  O   UNL     1       1.785   8.271  20.429  0.00  0.00    +0.000 OA
BRANCH  14  22
ATOM     15  C   UNL     1       0.182   9.462  22.890  0.00  0.00    +0.000 C 
ATOM     16  C   UNL     1       0.130   9.873  21.444  0.00  0.00    +0.000 A 
ATOM     17  C   UNL     1      -0.770  10.928  21.158  0.00  0.00    +0.000 A 
ATOM     18  C   UNL     1      -0.929  11.432  19.872  0.00  0.00    +0.000 A 
ATOM     19  C   UNL     1      -0.181  10.896  18.837  0.00  0.00    +0.000 A 
ATOM     20  C   UNL     1       0.723   9.848  19.080  0.00  0.00    +0.000 A 
ATOM     21  C   UNL     1       1.514   9.317  17.912  0.00  0.00    +0.000 C 
ATOM     22  C   UNL     1       0.885   9.313  20.388  0.00  0.00    +0.000 A 
ENDBRANCH  14  22
ENDBRANCH  13  14
ENDBRANCH   1  13
TORSDOF 4
ENDMDL
MODEL 5
REMARK VINA RESULT:      -6.6      1.846      2.778
REMARK  Name = 
REMARK  9 active torsions:
REMARK  status: ('A' for Active; 'I' for Inactive)
REMARK    1  A    between atoms: C_1  and  C_2
REMARK    2  A    between atoms: C_6  and  C_7
REMARK    3  A    between atoms: C_8  and  O_9
REMARK    4  A    between atoms: O_9  and  C_10
REMARK    5  A    between atoms: C_10  and  C_11
REMARK    6  A    between atoms: N_13  and  C_14
REMARK    7  A    between atoms: C_15  and  C_16
REMARK    8  A    between atoms: N_18  and  C_19
REMARK    9  A    between atoms: C_20  and  C_21
REMARK                            x       y       z     vdW  Elec       q    Type
REMARK                         _______ _______ _______ _____ _____    ______ ____
ROOT
ATOM      1  C   UNL     1       2.311   5.708  19.989  0.00  0.00    +0.000 C 
ATOM      2  O   UNL     1       2.985   4.950  20.684  0.00  0.00    +0.000 OA
ATOM      3  N   UNL     1       2.379   5.795  18.600  0.00  0.00    +0.000 N 
ATOM      4  H   UNL     1       2.164   6.705  18.213  0.00  0.00    +0.000 HD
ENDROOT
BRANCH   3   5
ATOM      5  C   UNL     1       3.274   5.008  17.888  0.00  0.00    +0.000 A 
ATOM      6  C   UNL     1       3.256   3.618  17.597  0.00  0.00    +0.000 A 
ATOM      7  C   UNL     1       2.200   2.610  17.856  0.00  0.00    +0.000 C 
ATOM      8  N   UNL     1       4.336   3.252  16.894  0.00  0.00    +0.000 NA
ATOM      9  N   UNL     1       5.047   4.388  16.767  0.00  0.00    +0.000 N 
ATOM     10  C   UNL     1       6.370   4.322  16.195  0.00  0.00    +0.000 C 
ATOM     11  C   UNL     1       4.402   5.496  17.255  0.00  0.00    +0.000 A 
ATOM     12  C   UNL     1       4.952   6.872  17.173  0.00  0.00    +0.000 C 
ENDBRANCH   3   5
BRANCH   1  13
ATOM     13  C   UNL     1       1.280   6.663  20.605  0.00  0.00    +0.000 C 
BRANCH  13  14
ATOM     14  O   UNL     1       1.764   7.984  20.755  0.00  0.00    +0.000 OA
BRANCH  14  22
ATOM     15  C   UNL     1       1.781   9.039  17.766  0.00  0.00    +0.000 C 
ATOM     16  C   UNL     1       1.037   9.585  18.954  0.00  0.00    +0.000 A 
ATOM     17  C   UNL     1       0.252  10.732  18.687  0.00  0.00    +0.000 A 
ATOM     18  C   UNL     1      -0.505  11.354  19.673  0.00  0.00    +0.000 A 
ATOM     19  C   UNL     1      -0.501  10.833  20.958  0.00  0.00    +0.000 A 
ATOM     20  C   UNL     1       0.266   9.696  21.263  0.00  0.00    +0.000 A 
ATOM     21  C   UNL     1       0.217   9.175  22.676  0.00  0.00    +0.000 C 
ATOM     22  C   UNL     1       1.055   9.059  20.266  0.00  0.00    +0.000 A 
ENDBRANCH  14  22
ENDBRANCH  13  14
ENDBRANCH   1  13
TORSDOF 4
ENDMDL
MODEL 6
REMARK VINA RESULT:      -6.6      3.297      7.746
REMARK  Name = 
REMARK  9 active torsions:
REMARK  status: ('A' for Active; 'I' for Inactive)
REMARK    1  A    between atoms: C_1  and  C_2
REMARK    2  A    between atoms: C_6  and  C_7
REMARK    3  A    between atoms: C_8  and  O_9
REMARK    4  A    between atoms: O_9  and  C_10
REMARK    5  A    between atoms: C_10  and  C_11
REMARK    6  A    between atoms: N_13  and  C_14
REMARK    7  A    between atoms: C_15  and  C_16
REMARK    8  A    between atoms: N_18  and  C_19
REMARK    9  A    between atoms: C_20  and  C_21
REMARK                            x       y       z     vdW  Elec       q    Type
REMARK                         _______ _______ _______ _____ _____    ______ ____
ROOT
ATOM      1  C   UNL     1       1.526   9.071  18.708  0.00  0.00    +0.000 C 
ATOM      2  O   UNL     1       1.314   8.848  19.898  0.00  0.00    +0.000 OA
ATOM      3  N   UNL     1       1.038  10.167  17.999  0.00  0.00    +0.000 N 
ATOM      4  H   UNL     1       0.876  10.006  17.012  0.00  0.00    +0.000 HD
ENDROOT
BRANCH   3   5
ATOM      5  C   UNL     1       0.225  11.104  18.621  0.00  0.00    +0.000 A 
ATOM      6  C   UNL     1       0.556  12.255  19.383  0.00  0.00    +0.000 A 
ATOM      7  C   UNL     1       1.878  12.879  19.632  0.00  0.00    +0.000 C 
ATOM      8  N   UNL     1      -0.543  12.879  19.829  0.00  0.00    +0.000 NA
ATOM      9  N   UNL     1      -1.559  12.116  19.383  0.00  0.00    +0.000 N 
ATOM     10  C   UNL     1      -2.900  12.411  19.826  0.00  0.00    +0.000 C 
ATOM     11  C   UNL     1      -1.156  11.093  18.560  0.00  0.00    +0.000 A 
ATOM     12  C   UNL     1      -2.093  10.157  17.893  0.00  0.00    +0.000 C 
ENDBRANCH   3   5
BRANCH   1  13
ATOM     13  C   UNL     1       2.391   8.134  17.854  0.00  0.00    +0.000 C 
BRANCH  13  14
ATOM     14  O   UNL     1       3.166   7.236  18.624  0.00  0.00    +0.000 OA
BRANCH  14  22
ATOM     15  C   UNL     1       5.087   6.500  16.213  0.00  0.00    +0.000 C 
ATOM     16  C   UNL     1       4.279   5.581  17.087  0.00  0.00    +0.000 A 
ATOM     17  C   UNL     1       4.394   4.206  16.771  0.00  0.00    +0.000 A 
ATOM     18  C   UNL     1       3.720   3.226  17.490  0.00  0.00    +0.000 A 
ATOM     19  C   UNL     1       2.916   3.599  18.555  0.00  0.00    +0.000 A 
ATOM     20  C   UNL     1       2.776   4.954  18.900  0.00  0.00    +0.000 A 
ATOM     21  C   UNL     1       1.896   5.292  20.077  0.00  0.00    +0.000 C 
ATOM     22  C   UNL     1       3.449   5.968  18.164  0.00  0.00    +0.000 A 
ENDBRANCH  14  22
ENDBRANCH  13  14
ENDBRANCH   1  13
TORSDOF 4
ENDMDL
MODEL 7
REMARK VINA RESULT:      -6.5      3.130      8.000
REMARK  Name = 
REMARK  9 active torsions:
REMARK  status: ('A' for Active; 'I' for Inactive)
REMARK    1  A    between atoms: C_1  and  C_2
REMARK    2  A    between atoms: C_6  and  C_7
REMARK    3  A    between atoms: C_8  and  O_9
REMARK    4  A    between atoms: O_9  and  C_10
REMARK    5  A    between atoms: C_10  and  C_11
REMARK    6  A    between atoms: N_13  and  C_14
REMARK    7  A    between atoms: C_15  and  C_16
REMARK    8  A    between atoms: N_18  and  C_19
REMARK    9  A    between atoms: C_20  and  C_21
REMARK                            x       y       z     vdW  Elec       q    Type
REMARK                         _______ _______ _______ _____ _____    ______ ____
ROOT
ATOM      1  C   UNL     1       1.643   9.008  18.593  0.00  0.00    +0.000 C 
ATOM      2  O   UNL     1       1.982   9.403  17.479  0.00  0.00    +0.000 OA
ATOM      3  N   UNL     1       0.706   9.632  19.414  0.00  0.00    +0.000 N 
ATOM      4  H   UNL     1       0.855   9.513  20.408  0.00  0.00    +0.000 HD
ENDROOT
BRANCH   3   5
ATOM      5  C   UNL     1       0.087  10.807  19.010  0.00  0.00    +0.000 A 
ATOM      6  C   UNL     1      -1.020  11.020  18.146  0.00  0.00    +0.000 A 
ATOM      7  C   UNL     1      -1.934  10.037  17.517  0.00  0.00    +0.000 C 
ATOM      8  N   UNL     1      -1.283  12.326  18.003  0.00  0.00    +0.000 NA
ATOM      9  N   UNL     1      -0.337  12.936  18.741  0.00  0.00    +0.000 N 
ATOM     10  C   UNL     1      -0.222  14.373  18.679  0.00  0.00    +0.000 C 
ATOM     11  C   UNL     1       0.449  12.065  19.454  0.00  0.00    +0.000 A 
ATOM     12  C   UNL     1       1.517  12.497  20.389  0.00  0.00    +0.000 C 
ENDBRANCH   3   5
BRANCH   1  13
ATOM     13  C   UNL     1       2.234   7.733  19.210  0.00  0.00    +0.000 C 
BRANCH  13  14
ATOM     14  O   UNL     1       2.235   6.633  18.321  0.00  0.00    +0.000 OA
BRANCH  14  22
ATOM     15  C   UNL     1       1.157   4.493  20.396  0.00  0.00    +0.000 C 
ATOM     16  C   UNL     1       2.425   4.466  19.589  0.00  0.00    +0.000 A 
ATOM     17  C   UNL     1       3.242   3.330  19.804  0.00  0.00    +0.000 A 
ATOM     18  C   UNL     1       4.443   3.147  19.128  0.00  0.00    +0.000 A 
ATOM     19  C   UNL     1       4.854   4.099  18.207  0.00  0.00    +0.000 A 
ATOM     20  C   UNL     1       4.071   5.240  17.966  0.00  0.00    +0.000 A 
ATOM     21  C   UNL     1       4.569   6.230  16.945  0.00  0.00    +0.000 C 
ATOM     22  C   UNL     1       2.847   5.446  18.661  0.00  0.00    +0.000 A 
ENDBRANCH  14  22
ENDBRANCH  13  14
ENDBRANCH   1  13
TORSDOF 4
ENDMDL
MODEL 8
REMARK VINA RESULT:      -6.5      3.311      7.928
REMARK  Name = 
REMARK  9 active torsions:
REMARK  status: ('A' for Active; 'I' for Inactive)
REMARK    1  A    between atoms: C_1  and  C_2
REMARK    2  A    between atoms: C_6  and  C_7
REMARK    3  A    between atoms: C_8  and  O_9
REMARK    4  A    between atoms: O_9  and  C_10
REMARK    5  A    between atoms: C_10  and  C_11
REMARK    6  A    between atoms: N_13  and  C_14
REMARK    7  A    between atoms: C_15  and  C_16
REMARK    8  A    between atoms: N_18  and  C_19
REMARK    9  A    between atoms: C_20  and  C_21
REMARK                            x       y       z     vdW  Elec       q    Type
REMARK                         _______ _______ _______ _____ _____    ______ ____
ROOT
ATOM      1  C   UNL     1       1.468   9.101  18.702  0.00  0.00    +0.000 C 
ATOM      2  O   UNL     1       1.206   8.899  19.886  0.00  0.00    +0.000 OA
ATOM      3  N   UNL     1       0.918  10.117  17.922  0.00  0.00    +0.000 N 
ATOM      4  H   UNL     1       0.834   9.907  16.935  0.00  0.00    +0.000 HD
ENDROOT
BRANCH   3   5
ATOM      5  C   UNL     1      -0.021  10.987  18.458  0.00  0.00    +0.000 A 
ATOM      6  C   UNL     1      -1.439  10.973  18.392  0.00  0.00    +0.000 A 
ATOM      7  C   UNL     1      -2.352   9.943  17.838  0.00  0.00    +0.000 C 
ATOM      8  N   UNL     1      -1.969  12.024  19.032  0.00  0.00    +0.000 NA
ATOM      9  N   UNL     1      -0.901  12.714  19.473  0.00  0.00    +0.000 N 
ATOM     10  C   UNL     1      -1.106  14.009  20.074  0.00  0.00    +0.000 C 
ATOM     11  C   UNL     1       0.295  12.078  19.247  0.00  0.00    +0.000 A 
ATOM     12  C   UNL     1       1.606  12.606  19.697  0.00  0.00    +0.000 C 
ENDBRANCH   3   5
BRANCH   1  13
ATOM     13  C   UNL     1       2.472   8.228  17.938  0.00  0.00    +0.000 C 
BRANCH  13  14
ATOM     14  O   UNL     1       3.100   7.258  18.754  0.00  0.00    +0.000 OA
BRANCH  14  22
ATOM     15  C   UNL     1       4.975   6.512  16.310  0.00  0.00    +0.000 C 
ATOM     16  C   UNL     1       4.164   5.599  17.188  0.00  0.00    +0.000 A 
ATOM     17  C   UNL     1       4.252   4.225  16.859  0.00  0.00    +0.000 A 
ATOM     18  C   UNL     1       3.573   3.249  17.579  0.00  0.00    +0.000 A 
ATOM     19  C   UNL     1       2.790   3.627  18.659  0.00  0.00    +0.000 A 
ATOM     20  C   UNL     1       2.677   4.980  19.017  0.00  0.00    +0.000 A 
ATOM     21  C   UNL     1       1.819   5.322  20.209  0.00  0.00    +0.000 C 
ATOM     22  C   UNL     1       3.356   5.990  18.280  0.00  0.00    +0.000 A 
ENDBRANCH  14  22
ENDBRANCH  13  14
ENDBRANCH   1  13
TORSDOF 4
ENDMDL
MODEL 9
REMARK VINA RESULT:      -6.4      2.767      7.276
REMARK  Name = 
REMARK  9 active torsions:
REMARK  status: ('A' for Active; 'I' for Inactive)
REMARK    1  A    between atoms: C_1  and  C_2
REMARK    2  A    between atoms: C_6  and  C_7
REMARK    3  A    between atoms: C_8  and  O_9
REMARK    4  A    between atoms: O_9  and  C_10
REMARK    5  A    between atoms: C_10  and  C_11
REMARK    6  A    between atoms: N_13  and  C_14
REMARK    7  A    between atoms: C_15  and  C_16
REMARK    8  A    between atoms: N_18  and  C_19
REMARK    9  A    between atoms: C_20  and  C_21
REMARK                            x       y       z     vdW  Elec       q    Type
REMARK                         _______ _______ _______ _____ _____    ______ ____
ROOT
ATOM      1  C   UNL     1       1.362   9.171  18.444  0.00  0.00    +0.000 C 
ATOM      2  O   UNL     1       0.399   9.683  17.875  0.00  0.00    +0.000 OA
ATOM      3  N   UNL     1       1.703   9.372  19.779  0.00  0.00    +0.000 N 
ATOM      4  H   UNL     1       2.692   9.304  19.988  0.00  0.00    +0.000 HD
ENDROOT
BRANCH   3   5
ATOM      5  C   UNL     1       0.953  10.224  20.579  0.00  0.00    +0.000 A 
ATOM      6  C   UNL     1       0.976  11.639  20.699  0.00  0.00    +0.000 A 
ATOM      7  C   UNL     1       1.723  12.645  19.906  0.00  0.00    +0.000 C 
ATOM      8  N   UNL     1       0.096  12.066  21.614  0.00  0.00    +0.000 NA
ATOM      9  N   UNL     1      -0.458  10.935  22.092  0.00  0.00    +0.000 N 
ATOM     10  C   UNL     1      -1.345  11.018  23.226  0.00  0.00    +0.000 C 
ATOM     11  C   UNL     1      -0.054   9.804  21.427  0.00  0.00    +0.000 A 
ATOM     12  C   UNL     1      -0.572   8.446  21.725  0.00  0.00    +0.000 C 
ENDBRANCH   3   5
BRANCH   1  13
ATOM     13  C   UNL     1       2.312   8.213  17.714  0.00  0.00    +0.000 C 
BRANCH  13  14
ATOM     14  O   UNL     1       3.013   7.349  18.588  0.00  0.00    +0.000 OA
BRANCH  14  22
ATOM     15  C   UNL     1       5.003   6.562  16.251  0.00  0.00    +0.000 C 
ATOM     16  C   UNL     1       4.216   5.660  17.161  0.00  0.00    +0.000 A 
ATOM     17  C   UNL     1       4.389   4.276  16.921  0.00  0.00    +0.000 A 
ATOM     18  C   UNL     1       3.740   3.309  17.680  0.00  0.00    +0.000 A 
ATOM     19  C   UNL     1       2.904   3.707  18.711  0.00  0.00    +0.000 A 
ATOM     20  C   UNL     1       2.705   5.071  18.981  0.00  0.00    +0.000 A 
ATOM     21  C   UNL     1       1.792   5.436  20.123  0.00  0.00    +0.000 C 
ATOM     22  C   UNL     1       3.352   6.071  18.202  0.00  0.00    +0.000 A 
ENDBRANCH  14  22
ENDBRANCH  13  14
ENDBRANCH   1  13
TORSDOF 4
ENDMDL
