MODEL 1
REMARK VINA RESULT:      -9.0      0.000      0.000
REMARK  Name = 
REMARK  8 active torsions:
REMARK  status: ('A' for Active; 'I' for Inactive)
REMARK    1  A    between atoms: C_2  and  C_3
REMARK    2  A    between atoms: N_5  and  C_6
REMARK    3  A    between atoms: C_6  and  C_7
REMARK    4  A    between atoms: C_11  and  N_12
REMARK    5  A    between atoms: C_15  and  C_16
REMARK    6  A    between atoms: C_18  and  S_19
REMARK    7  A    between atoms: S_19  and  C_20
REMARK    8  A    between atoms: C_22  and  C_23
REMARK                            x       y       z     vdW  Elec       q    Type
REMARK                         _______ _______ _______ _____ _____    ______ ____
ROOT
ATOM      1  N   UNL     1       8.174   9.702  17.920  0.00  0.00    +0.000 N 
ATOM      2  C   UNL     1       8.033   8.293  18.021  0.00  0.00    +0.000 A 
ATOM      3  C   UNL     1       7.397   7.594  16.992  0.00  0.00    +0.000 A 
ATOM      4  C   UNL     1       7.241   6.205  17.089  0.00  0.00    +0.000 A 
ATOM      5  C   UNL     1       7.708   5.570  18.239  0.00  0.00    +0.000 A 
ATOM      6  C   UNL     1       8.268   6.337  19.240  0.00  0.00    +0.000 A 
ATOM      7  N   UNL     1       8.441   7.668  19.145  0.00  0.00    +0.000 NA
ATOM      8  H   UNL     1       8.139   9.979  16.944  0.00  0.00    +0.000 HD
ENDROOT
BRANCH   1  13
ATOM      9  C   UNL     1      10.022  11.791  20.396  0.00  0.00    +0.000 A 
ATOM     10  C   UNL     1      11.164  12.131  19.658  0.00  0.00    +0.000 A 
ATOM     11  C   UNL     1      11.345  11.634  18.369  0.00  0.00    +0.000 A 
ATOM     12  C   UNL     1      10.380  10.801  17.804  0.00  0.00    +0.000 A 
ATOM     13  C   UNL     1       9.235  10.432  18.522  0.00  0.00    +0.000 A 
ATOM     14  C   UNL     1       9.056  10.954  19.810  0.00  0.00    +0.000 A 
BRANCH   9  15
ATOM     15  C   UNL     1       9.812  12.361  21.774  0.00  0.00    +0.000 C 
BRANCH  15  18
ATOM     16  C   UNL     1       7.650  12.481  22.904  0.00  0.00    +0.000 C 
ATOM     17  O   UNL     1       7.584  13.699  22.822  0.00  0.00    +0.000 OA
ATOM     18  N   UNL     1       8.695  11.729  22.430  0.00  0.00    +0.000 N 
ATOM     19  H   UNL     1       8.685  10.723  22.501  0.00  0.00    +0.000 HD
BRANCH  16  21
ATOM     20  C   UNL     1       6.610  11.397  24.846  0.00  0.00    +0.000 C 
ATOM     21  C   UNL     1       6.581  11.660  23.536  0.00  0.00    +0.000 C 
ENDBRANCH  16  21
ENDBRANCH  15  18
ENDBRANCH   9  15
ENDBRANCH   1  13
BRANCH   4  22
ATOM     22  C   UNL     1       6.590   5.432  16.027  0.00  0.00    +0.000 A 
ATOM     23  N   UNL     1       7.170   5.205  14.797  0.00  0.00    +0.000 N 
ATOM     24  C   UNL     1       6.357   4.386  14.076  0.00  0.00    +0.000 A 
ATOM     25  N   UNL     1       5.273   4.069  14.735  0.00  0.00    +0.000 NA
ATOM     26  C   UNL     1       5.379   4.741  15.939  0.00  0.00    +0.000 A 
ATOM     27  H   UNL     1       8.063   5.547  14.475  0.00  0.00    +0.000 HD
BRANCH  26  28
ATOM     28  C   UNL     1       4.325   4.691  16.943  0.00  0.00    +0.000 A 
ATOM     29  C   UNL     1       3.787   5.883  17.452  0.00  0.00    +0.000 A 
ATOM     30  C   UNL     1       2.764   5.846  18.405  0.00  0.00    +0.000 A 
ATOM     31  C   UNL     1       2.275   4.620  18.842  0.00  0.00    +0.000 A 
ATOM     32  F   UNL     1       1.291   4.585  19.749  0.00  0.00    +0.000 F 
ATOM     33  C   UNL     1       2.796   3.430  18.356  0.00  0.00    +0.000 A 
ATOM     34  C   UNL     1       3.836   3.466  17.427  0.00  0.00    +0.000 A 
ENDBRANCH  26  28
BRANCH  24  35
ATOM     35  S   UNL     1       6.829   3.909  12.490  0.00  0.00    +0.000 S 
ATOM     36  C   UNL     1       5.326   3.092  11.906  0.00  0.00    +0.000 C 
ENDBRANCH  24  35
ENDBRANCH   4  22
TORSDOF 7
ENDMDL
MODEL 2
REMARK VINA RESULT:      -8.6      5.560      7.822
REMARK  Name = 
REMARK  8 active torsions:
REMARK  status: ('A' for Active; 'I' for Inactive)
REMARK    1  A    between atoms: C_2  and  C_3
REMARK    2  A    between atoms: N_5  and  C_6
REMARK    3  A    between atoms: C_6  and  C_7
REMARK    4  A    between atoms: C_11  and  N_12
REMARK    5  A    between atoms: C_15  and  C_16
REMARK    6  A    between atoms: C_18  and  S_19
REMARK    7  A    between atoms: S_19  and  C_20
REMARK    8  A    between atoms: C_22  and  C_23
REMARK                            x       y       z     vdW  Elec       q    Type
REMARK                         _______ _______ _______ _____ _____    ______ ____
ROOT
ATOM      1  N   UNL     1       1.547   8.331  21.224  0.00  0.00    +0.000 N 
ATOM      2  C   UNL     1       1.990   8.169  19.885  0.00  0.00    +0.000 A 
ATOM      3  C   UNL     1       2.549   6.951  19.493  0.00  0.00    +0.000 A 
ATOM      4  C   UNL     1       3.001   6.785  18.178  0.00  0.00    +0.000 A 
ATOM      5  C   UNL     1       2.898   7.869  17.306  0.00  0.00    +0.000 A 
ATOM      6  C   UNL     1       2.393   9.059  17.785  0.00  0.00    +0.000 A 
ATOM      7  N   UNL     1       1.937   9.220  19.040  0.00  0.00    +0.000 NA
ATOM      8  H   UNL     1       1.340   7.424  21.627  0.00  0.00    +0.000 HD
ENDROOT
BRANCH   1  13
ATOM      9  C   UNL     1      -0.904  11.139  21.061  0.00  0.00    +0.000 A 
ATOM     10  C   UNL     1      -1.377  11.157  22.379  0.00  0.00    +0.000 A 
ATOM     11  C   UNL     1      -0.925  10.217  23.304  0.00  0.00    +0.000 A 
ATOM     12  C   UNL     1       0.011   9.258  22.919  0.00  0.00    +0.000 A 
ATOM     13  C   UNL     1       0.491   9.206  21.604  0.00  0.00    +0.000 A 
ATOM     14  C   UNL     1       0.043  10.169  20.689  0.00  0.00    +0.000 A 
BRANCH   9  15
ATOM     15  C   UNL     1      -1.366  12.179  20.075  0.00  0.00    +0.000 C 
BRANCH  15  18
ATOM     16  C   UNL     1      -3.073  11.541  18.449  0.00  0.00    +0.000 C 
ATOM     17  O   UNL     1      -3.993  11.995  19.115  0.00  0.00    +0.000 OA
ATOM     18  N   UNL     1      -1.755  11.573  18.827  0.00  0.00    +0.000 N 
ATOM     19  H   UNL     1      -1.034  11.206  18.224  0.00  0.00    +0.000 HD
BRANCH  16  21
ATOM     20  C   UNL     1      -2.428   9.972  16.674  0.00  0.00    +0.000 C 
ATOM     21  C   UNL     1      -3.286  10.892  17.126  0.00  0.00    +0.000 C 
ENDBRANCH  16  21
ENDBRANCH  15  18
ENDBRANCH   9  15
ENDBRANCH   1  13
BRANCH   4  22
ATOM     22  C   UNL     1       3.584   5.519  17.722  0.00  0.00    +0.000 A 
ATOM     23  N   UNL     1       4.398   5.421  16.613  0.00  0.00    +0.000 N 
ATOM     24  C   UNL     1       4.844   4.139  16.512  0.00  0.00    +0.000 A 
ATOM     25  N   UNL     1       4.368   3.379  17.464  0.00  0.00    +0.000 NA
ATOM     26  C   UNL     1       3.551   4.210  18.208  0.00  0.00    +0.000 A 
ATOM     27  H   UNL     1       4.664   6.166  15.988  0.00  0.00    +0.000 HD
BRANCH  26  28
ATOM     28  C   UNL     1       2.780   3.717  19.342  0.00  0.00    +0.000 A 
ATOM     29  C   UNL     1       1.382   3.642  19.257  0.00  0.00    +0.000 A 
ATOM     30  C   UNL     1       0.634   3.156  20.334  0.00  0.00    +0.000 A 
ATOM     31  C   UNL     1       1.284   2.738  21.490  0.00  0.00    +0.000 A 
ATOM     32  F   UNL     1       0.568   2.266  22.519  0.00  0.00    +0.000 F 
ATOM     33  C   UNL     1       2.665   2.809  21.597  0.00  0.00    +0.000 A 
ATOM     34  C   UNL     1       3.409   3.320  20.533  0.00  0.00    +0.000 A 
ENDBRANCH  26  28
BRANCH  24  35
ATOM     35  S   UNL     1       5.901   3.711  15.222  0.00  0.00    +0.000 S 
ATOM     36  C   UNL     1       7.064   5.094  15.248  0.00  0.00    +0.000 C 
ENDBRANCH  24  35
ENDBRANCH   4  22
TORSDOF 7
ENDMDL
MODEL 3
REMARK VINA RESULT:      -8.5      5.423      7.751
REMARK  Name = 
REMARK  8 active torsions:
REMARK  status: ('A' for Active; 'I' for Inactive)
REMARK    1  A    between atoms: C_2  and  C_3
REMARK    2  A    between atoms: N_5  and  C_6
REMARK    3  A    between atoms: C_6  and  C_7
REMARK    4  A    between atoms: C_11  and  N_12
REMARK    5  A    between atoms: C_15  and  C_16
REMARK    6  A    between atoms: C_18  and  S_19
REMARK    7  A    between atoms: S_19  and  C_20
REMARK    8  A    between atoms: C_22  and  C_23
REMARK                            x       y       z     vdW  Elec       q    Type
REMARK                         _______ _______ _______ _____ _____    ______ ____
ROOT
ATOM      1  N   UNL     1       1.646   8.356  21.233  0.00  0.00    +0.000 N 
ATOM      2  C   UNL     1       2.006   8.169  19.873  0.00  0.00    +0.000 A 
ATOM      3  C   UNL     1       2.595   6.964  19.482  0.00  0.00    +0.000 A 
ATOM      4  C   UNL     1       2.966   6.775  18.144  0.00  0.00    +0.000 A 
ATOM      5  C   UNL     1       2.756   7.824  17.249  0.00  0.00    +0.000 A 
ATOM      6  C   UNL     1       2.228   9.006  17.725  0.00  0.00    +0.000 A 
ATOM      7  N   UNL     1       1.849   9.188  19.003  0.00  0.00    +0.000 NA
ATOM      8  H   UNL     1       1.508   7.454  21.677  0.00  0.00    +0.000 HD
ENDROOT
BRANCH   1  13
ATOM      9  C   UNL     1      -0.880  11.101  21.189  0.00  0.00    +0.000 A 
ATOM     10  C   UNL     1      -1.319  11.080  22.519  0.00  0.00    +0.000 A 
ATOM     11  C   UNL     1      -0.820  10.134  23.412  0.00  0.00    +0.000 A 
ATOM     12  C   UNL     1       0.130   9.208  22.985  0.00  0.00    +0.000 A 
ATOM     13  C   UNL     1       0.578   9.195  21.657  0.00  0.00    +0.000 A 
ATOM     14  C   UNL     1       0.082  10.163  20.774  0.00  0.00    +0.000 A 
BRANCH   9  15
ATOM     15  C   UNL     1      -1.393  12.148  20.236  0.00  0.00    +0.000 C 
BRANCH  15  18
ATOM     16  C   UNL     1      -2.044  11.778  17.912  0.00  0.00    +0.000 C 
ATOM     17  O   UNL     1      -1.133  12.458  17.463  0.00  0.00    +0.000 OA
ATOM     18  N   UNL     1      -2.266  11.566  19.248  0.00  0.00    +0.000 N 
ATOM     19  H   UNL     1      -3.020  10.973  19.561  0.00  0.00    +0.000 HD
BRANCH  16  21
ATOM     20  C   UNL     1      -2.773  10.883  15.744  0.00  0.00    +0.000 C 
ATOM     21  C   UNL     1      -3.034  11.088  17.039  0.00  0.00    +0.000 C 
ENDBRANCH  16  21
ENDBRANCH  15  18
ENDBRANCH   9  15
ENDBRANCH   1  13
BRANCH   4  22
ATOM     22  C   UNL     1       3.576   5.522  17.688  0.00  0.00    +0.000 A 
ATOM     23  N   UNL     1       4.404   5.444  16.588  0.00  0.00    +0.000 N 
ATOM     24  C   UNL     1       4.872   4.170  16.486  0.00  0.00    +0.000 A 
ATOM     25  N   UNL     1       4.400   3.398  17.429  0.00  0.00    +0.000 NA
ATOM     26  C   UNL     1       3.560   4.210  18.167  0.00  0.00    +0.000 A 
ATOM     27  H   UNL     1       4.663   6.197  15.970  0.00  0.00    +0.000 HD
BRANCH  26  28
ATOM     28  C   UNL     1       2.785   3.698  19.290  0.00  0.00    +0.000 A 
ATOM     29  C   UNL     1       3.444   3.194  20.421  0.00  0.00    +0.000 A 
ATOM     30  C   UNL     1       2.711   2.715  21.511  0.00  0.00    +0.000 A 
ATOM     31  C   UNL     1       1.321   2.746  21.473  0.00  0.00    +0.000 A 
ATOM     32  F   UNL     1       0.619   2.293  22.519  0.00  0.00    +0.000 F 
ATOM     33  C   UNL     1       0.649   3.234  20.361  0.00  0.00    +0.000 A 
ATOM     34  C   UNL     1       1.381   3.687  19.263  0.00  0.00    +0.000 A 
ENDBRANCH  26  28
BRANCH  24  35
ATOM     35  S   UNL     1       5.951   3.768  15.206  0.00  0.00    +0.000 S 
ATOM     36  C   UNL     1       7.135   5.130  15.302  0.00  0.00    +0.000 C 
ENDBRANCH  24  35
ENDBRANCH   4  22
TORSDOF 7
ENDMDL
MODEL 4
REMARK VINA RESULT:      -8.5      2.156      3.275
REMARK  Name = 
REMARK  8 active torsions:
REMARK  status: ('A' for Active; 'I' for Inactive)
REMARK    1  A    between atoms: C_2  and  C_3
REMARK    2  A    between atoms: N_5  and  C_6
REMARK    3  A    between atoms: C_6  and  C_7
REMARK    4  A    between atoms: C_11  and  N_12
REMARK    5  A    between atoms: C_15  and  C_16
REMARK    6  A    between atoms: C_18  and  S_19
REMARK    7  A    between atoms: S_19  and  C_20
REMARK    8  A    between atoms: C_22  and  C_23
REMARK                            x       y       z     vdW  Elec       q    Type
REMARK                         _______ _______ _______ _____ _____    ______ ____
ROOT
ATOM      1  N   UNL     1       7.867   9.617  17.831  0.00  0.00    +0.000 N 
ATOM      2  C   UNL     1       7.834   8.201  17.923  0.00  0.00    +0.000 A 
ATOM      3  C   UNL     1       7.207   7.465  16.915  0.00  0.00    +0.000 A 
ATOM      4  C   UNL     1       7.157   6.068  17.004  0.00  0.00    +0.000 A 
ATOM      5  C   UNL     1       7.718   5.460  18.126  0.00  0.00    +0.000 A 
ATOM      6  C   UNL     1       8.263   6.259  19.110  0.00  0.00    +0.000 A 
ATOM      7  N   UNL     1       8.334   7.600  19.023  0.00  0.00    +0.000 NA
ATOM      8  H   UNL     1       7.771   9.898  16.861  0.00  0.00    +0.000 HD
ENDROOT
BRANCH   1  13
ATOM      9  C   UNL     1      10.686  12.050  18.054  0.00  0.00    +0.000 A 
ATOM     10  C   UNL     1      11.134  11.820  19.361  0.00  0.00    +0.000 A 
ATOM     11  C   UNL     1      10.479  10.901  20.179  0.00  0.00    +0.000 A 
ATOM     12  C   UNL     1       9.377  10.199  19.693  0.00  0.00    +0.000 A 
ATOM     13  C   UNL     1       8.898  10.419  18.396  0.00  0.00    +0.000 A 
ATOM     14  C   UNL     1       9.576  11.331  17.576  0.00  0.00    +0.000 A 
BRANCH   9  15
ATOM     15  C   UNL     1      11.418  13.016  17.160  0.00  0.00    +0.000 C 
BRANCH  15  18
ATOM     16  C   UNL     1      11.274  15.265  18.100  0.00  0.00    +0.000 C 
ATOM     17  O   UNL     1      12.181  15.077  18.898  0.00  0.00    +0.000 OA
ATOM     18  N   UNL     1      10.819  14.325  17.211  0.00  0.00    +0.000 N 
ATOM     19  H   UNL     1      10.084  14.544  16.555  0.00  0.00    +0.000 HD
BRANCH  16  21
ATOM     20  C   UNL     1      10.960  17.506  17.146  0.00  0.00    +0.000 C 
ATOM     21  C   UNL     1      10.550  16.562  17.999  0.00  0.00    +0.000 C 
ENDBRANCH  16  21
ENDBRANCH  15  18
ENDBRANCH   9  15
ENDBRANCH   1  13
BRANCH   4  22
ATOM     22  C   UNL     1       6.519   5.257  15.962  0.00  0.00    +0.000 A 
ATOM     23  N   UNL     1       7.081   5.050  14.719  0.00  0.00    +0.000 N 
ATOM     24  C   UNL     1       6.291   4.187  14.023  0.00  0.00    +0.000 A 
ATOM     25  N   UNL     1       5.240   3.824  14.709  0.00  0.00    +0.000 NA
ATOM     26  C   UNL     1       5.341   4.508  15.906  0.00  0.00    +0.000 A 
ATOM     27  H   UNL     1       7.949   5.431  14.375  0.00  0.00    +0.000 HD
BRANCH  26  28
ATOM     28  C   UNL     1       4.315   4.415  16.935  0.00  0.00    +0.000 A 
ATOM     29  C   UNL     1       3.687   5.579  17.405  0.00  0.00    +0.000 A 
ATOM     30  C   UNL     1       2.689   5.499  18.381  0.00  0.00    +0.000 A 
ATOM     31  C   UNL     1       2.314   4.257  18.881  0.00  0.00    +0.000 A 
ATOM     32  F   UNL     1       1.354   4.181  19.812  0.00  0.00    +0.000 F 
ATOM     33  C   UNL     1       2.926   3.094  18.436  0.00  0.00    +0.000 A 
ATOM     34  C   UNL     1       3.941   3.176  17.482  0.00  0.00    +0.000 A 
ENDBRANCH  26  28
BRANCH  24  35
ATOM     35  S   UNL     1       6.748   3.723  12.429  0.00  0.00    +0.000 S 
ATOM     36  C   UNL     1       5.169   3.151  11.763  0.00  0.00    +0.000 C 
ENDBRANCH  24  35
ENDBRANCH   4  22
TORSDOF 7
ENDMDL
MODEL 5
REMARK VINA RESULT:      -8.5      6.445     10.465
REMARK  Name = 
REMARK  8 active torsions:
REMARK  status: ('A' for Active; 'I' for Inactive)
REMARK    1  A    between atoms: C_2  and  C_3
REMARK    2  A    between atoms: N_5  and  C_6
REMARK    3  A    between atoms: C_6  and  C_7
REMARK    4  A    between atoms: C_11  and  N_12
REMARK    5  A    between atoms: C_15  and  C_16
REMARK    6  A    between atoms: C_18  and  S_19
REMARK    7  A    between atoms: S_19  and  C_20
REMARK    8  A    between atoms: C_22  and  C_23
REMARK                            x       y       z     vdW  Elec       q    Type
REMARK                         _______ _______ _______ _____ _____    ______ ____
ROOT
ATOM      1  N   UNL     1       2.741   7.797  17.967  0.00  0.00    +0.000 N 
ATOM      2  C   UNL     1       1.954   8.288  19.041  0.00  0.00    +0.000 A 
ATOM      3  C   UNL     1       1.175   9.431  18.849  0.00  0.00    +0.000 A 
ATOM      4  C   UNL     1       0.404   9.932  19.906  0.00  0.00    +0.000 A 
ATOM      5  C   UNL     1       0.470   9.277  21.135  0.00  0.00    +0.000 A 
ATOM      6  C   UNL     1       1.312   8.192  21.264  0.00  0.00    +0.000 A 
ATOM      7  N   UNL     1       2.038   7.692  20.248  0.00  0.00    +0.000 NA
ATOM      8  H   UNL     1       2.348   8.108  17.085  0.00  0.00    +0.000 HD
ENDROOT
BRANCH   1  13
ATOM      9  C   UNL     1       4.713   4.767  17.045  0.00  0.00    +0.000 A 
ATOM     10  C   UNL     1       3.744   3.765  17.187  0.00  0.00    +0.000 A 
ATOM     11  C   UNL     1       2.461   4.082  17.630  0.00  0.00    +0.000 A 
ATOM     12  C   UNL     1       2.135   5.405  17.926  0.00  0.00    +0.000 A 
ATOM     13  C   UNL     1       3.087   6.426  17.808  0.00  0.00    +0.000 A 
ATOM     14  C   UNL     1       4.368   6.097  17.343  0.00  0.00    +0.000 A 
BRANCH   9  15
ATOM     15  C   UNL     1       6.086   4.427  16.529  0.00  0.00    +0.000 C 
BRANCH  15  18
ATOM     16  C   UNL     1       6.478   4.357  14.120  0.00  0.00    +0.000 C 
ATOM     17  O   UNL     1       6.970   5.476  14.086  0.00  0.00    +0.000 OA
ATOM     18  N   UNL     1       6.010   3.752  15.258  0.00  0.00    +0.000 N 
ATOM     19  H   UNL     1       5.637   2.815  15.232  0.00  0.00    +0.000 HD
BRANCH  16  21
ATOM     20  C   UNL     1       5.173   3.462  12.242  0.00  0.00    +0.000 C 
ATOM     21  C   UNL     1       6.333   3.507  12.906  0.00  0.00    +0.000 C 
ENDBRANCH  16  21
ENDBRANCH  15  18
ENDBRANCH   9  15
ENDBRANCH   1  13
BRANCH   4  22
ATOM     22  C   UNL     1      -0.437  11.123  19.744  0.00  0.00    +0.000 A 
ATOM     23  N   UNL     1      -1.814  11.069  19.683  0.00  0.00    +0.000 N 
ATOM     24  C   UNL     1      -2.297  12.340  19.621  0.00  0.00    +0.000 A 
ATOM     25  N   UNL     1      -1.338  13.228  19.619  0.00  0.00    +0.000 NA
ATOM     26  C   UNL     1      -0.169  12.491  19.656  0.00  0.00    +0.000 A 
ATOM     27  H   UNL     1      -2.391  10.242  19.714  0.00  0.00    +0.000 HD
BRANCH  26  28
ATOM     28  C   UNL     1       1.142  13.124  19.609  0.00  0.00    +0.000 A 
ATOM     29  C   UNL     1       1.742  13.396  18.370  0.00  0.00    +0.000 A 
ATOM     30  C   UNL     1       2.993  14.018  18.312  0.00  0.00    +0.000 A 
ATOM     31  C   UNL     1       3.640  14.373  19.491  0.00  0.00    +0.000 A 
ATOM     32  F   UNL     1       4.835  14.974  19.436  0.00  0.00    +0.000 F 
ATOM     33  C   UNL     1       3.068  14.107  20.727  0.00  0.00    +0.000 A 
ATOM     34  C   UNL     1       1.832  13.462  20.784  0.00  0.00    +0.000 A 
ENDBRANCH  26  28
BRANCH  24  35
ATOM     35  S   UNL     1      -3.998  12.594  19.550  0.00  0.00    +0.000 S 
ATOM     36  C   UNL     1      -4.442  11.607  18.103  0.00  0.00    +0.000 C 
ENDBRANCH  24  35
ENDBRANCH   4  22
TORSDOF 7
ENDMDL
MODEL 6
REMARK VINA RESULT:      -8.5      1.193      1.614
REMARK  Name = 
REMARK  8 active torsions:
REMARK  status: ('A' for Active; 'I' for Inactive)
REMARK    1  A    between atoms: C_2  and  C_3
REMARK    2  A    between atoms: N_5  and  C_6
REMARK    3  A    between atoms: C_6  and  C_7
REMARK    4  A    between atoms: C_11  and  N_12
REMARK    5  A    between atoms: C_15  and  C_16
REMARK    6  A    between atoms: C_18  and  S_19
REMARK    7  A    between atoms: S_19  and  C_20
REMARK    8  A    between atoms: C_22  and  C_23
REMARK                            x       y       z     vdW  Elec       q    Type
REMARK                         _______ _______ _______ _____ _____    ______ ____
ROOT
ATOM      1  N   UNL     1       8.170   9.671  17.881  0.00  0.00    +0.000 N 
ATOM      2  C   UNL     1       8.031   8.262  17.977  0.00  0.00    +0.000 A 
ATOM      3  C   UNL     1       7.410   7.565  16.937  0.00  0.00    +0.000 A 
ATOM      4  C   UNL     1       7.255   6.175  17.028  0.00  0.00    +0.000 A 
ATOM      5  C   UNL     1       7.708   5.538  18.183  0.00  0.00    +0.000 A 
ATOM      6  C   UNL     1       8.253   6.303  19.193  0.00  0.00    +0.000 A 
ATOM      7  N   UNL     1       8.424   7.634  19.104  0.00  0.00    +0.000 NA
ATOM      8  H   UNL     1       8.149   9.951  16.906  0.00  0.00    +0.000 HD
ENDROOT
BRANCH   1  13
ATOM      9  C   UNL     1       9.992  11.730  20.403  0.00  0.00    +0.000 A 
ATOM     10  C   UNL     1      11.129  12.100  19.674  0.00  0.00    +0.000 A 
ATOM     11  C   UNL     1      11.317  11.632  18.374  0.00  0.00    +0.000 A 
ATOM     12  C   UNL     1      10.363  10.800  17.790  0.00  0.00    +0.000 A 
ATOM     13  C   UNL     1       9.223  10.401  18.500  0.00  0.00    +0.000 A 
ATOM     14  C   UNL     1       9.036  10.893  19.799  0.00  0.00    +0.000 A 
BRANCH   9  15
ATOM     15  C   UNL     1       9.774  12.266  21.793  0.00  0.00    +0.000 C 
BRANCH  15  18
ATOM     16  C   UNL     1       8.661  14.438  21.707  0.00  0.00    +0.000 C 
ATOM     17  O   UNL     1       7.544  13.953  21.597  0.00  0.00    +0.000 OA
ATOM     18  N   UNL     1       9.817  13.707  21.804  0.00  0.00    +0.000 N 
ATOM     19  H   UNL     1      10.710  14.161  21.921  0.00  0.00    +0.000 HD
BRANCH  16  21
ATOM     20  C   UNL     1      10.123  16.395  21.956  0.00  0.00    +0.000 C 
ATOM     21  C   UNL     1       8.895  15.908  21.753  0.00  0.00    +0.000 C 
ENDBRANCH  16  21
ENDBRANCH  15  18
ENDBRANCH   9  15
ENDBRANCH   1  13
BRANCH   4  22
ATOM     22  C   UNL     1       6.620   5.403  15.955  0.00  0.00    +0.000 A 
ATOM     23  N   UNL     1       7.217   5.182  14.731  0.00  0.00    +0.000 N 
ATOM     24  C   UNL     1       6.415   4.363  13.998  0.00  0.00    +0.000 A 
ATOM     25  N   UNL     1       5.324   4.042  14.641  0.00  0.00    +0.000 NA
ATOM     26  C   UNL     1       5.412   4.710  15.848  0.00  0.00    +0.000 A 
ATOM     27  H   UNL     1       8.113   5.527  14.423  0.00  0.00    +0.000 HD
BRANCH  26  28
ATOM     28  C   UNL     1       4.345   4.655  16.839  0.00  0.00    +0.000 A 
ATOM     29  C   UNL     1       3.813   5.843  17.361  0.00  0.00    +0.000 A 
ATOM     30  C   UNL     1       2.778   5.801  18.300  0.00  0.00    +0.000 A 
ATOM     31  C   UNL     1       2.271   4.574  18.710  0.00  0.00    +0.000 A 
ATOM     32  F   UNL     1       1.275   4.534  19.605  0.00  0.00    +0.000 F 
ATOM     33  C   UNL     1       2.786   3.386  18.212  0.00  0.00    +0.000 A 
ATOM     34  C   UNL     1       3.837   3.427  17.295  0.00  0.00    +0.000 A 
ENDBRANCH  26  28
BRANCH  24  35
ATOM     35  S   UNL     1       6.909   3.893  12.416  0.00  0.00    +0.000 S 
ATOM     36  C   UNL     1       5.531   2.837  11.917  0.00  0.00    +0.000 C 
ENDBRANCH  24  35
ENDBRANCH   4  22
TORSDOF 7
ENDMDL
MODEL 7
REMARK VINA RESULT:      -8.5      6.267     10.256
REMARK  Name = 
REMARK  8 active torsions:
REMARK  status: ('A' for Active; 'I' for Inactive)
REMARK    1  A    between atoms: C_2  and  C_3
REMARK    2  A    between atoms: N_5  and  C_6
REMARK    3  A    between atoms: C_6  and  C_7
REMARK    4  A    between atoms: C_11  and  N_12
REMARK    5  A    between atoms: C_15  and  C_16
REMARK    6  A    between atoms: C_18  and  S_19
REMARK    7  A    between atoms: S_19  and  C_20
REMARK    8  A    between atoms: C_22  and  C_23
REMARK                            x       y       z     vdW  Elec       q    Type
REMARK                         _______ _______ _______ _____ _____    ______ ____
ROOT
ATOM      1  N   UNL     1       2.957   7.406  17.769  0.00  0.00    +0.000 N 
ATOM      2  C   UNL     1       2.125   7.973  18.770  0.00  0.00    +0.000 A 
ATOM      3  C   UNL     1       1.303   9.054  18.442  0.00  0.00    +0.000 A 
ATOM      4  C   UNL     1       0.487   9.629  19.425  0.00  0.00    +0.000 A 
ATOM      5  C   UNL     1       0.551   9.111  20.718  0.00  0.00    +0.000 A 
ATOM      6  C   UNL     1       1.435   8.084  20.978  0.00  0.00    +0.000 A 
ATOM      7  N   UNL     1       2.205   7.512  20.035  0.00  0.00    +0.000 NA
ATOM      8  H   UNL     1       2.573   7.605  16.852  0.00  0.00    +0.000 HD
ENDROOT
BRANCH   1  13
ATOM      9  C   UNL     1       4.993   4.363  17.058  0.00  0.00    +0.000 A 
ATOM     10  C   UNL     1       4.106   3.351  17.447  0.00  0.00    +0.000 A 
ATOM     11  C   UNL     1       2.862   3.674  17.987  0.00  0.00    +0.000 A 
ATOM     12  C   UNL     1       2.492   5.010  18.131  0.00  0.00    +0.000 A 
ATOM     13  C   UNL     1       3.364   6.043  17.764  0.00  0.00    +0.000 A 
ATOM     14  C   UNL     1       4.604   5.706  17.205  0.00  0.00    +0.000 A 
BRANCH   9  15
ATOM     15  C   UNL     1       6.321   4.011  16.440  0.00  0.00    +0.000 C 
BRANCH  15  18
ATOM     16  C   UNL     1       6.473   4.313  14.022  0.00  0.00    +0.000 C 
ATOM     17  O   UNL     1       6.900   5.456  14.110  0.00  0.00    +0.000 OA
ATOM     18  N   UNL     1       6.153   3.522  15.095  0.00  0.00    +0.000 N 
ATOM     19  H   UNL     1       5.830   2.575  14.964  0.00  0.00    +0.000 HD
BRANCH  16  21
ATOM     20  C   UNL     1       7.143   3.763  11.724  0.00  0.00    +0.000 C 
ATOM     21  C   UNL     1       6.252   3.638  12.713  0.00  0.00    +0.000 C 
ENDBRANCH  16  21
ENDBRANCH  15  18
ENDBRANCH   9  15
ENDBRANCH   1  13
BRANCH   4  22
ATOM     22  C   UNL     1      -0.399  10.757  19.121  0.00  0.00    +0.000 A 
ATOM     23  N   UNL     1      -1.735  10.604  18.816  0.00  0.00    +0.000 N 
ATOM     24  C   UNL     1      -2.294  11.837  18.674  0.00  0.00    +0.000 A 
ATOM     25  N   UNL     1      -1.419  12.793  18.847  0.00  0.00    +0.000 NA
ATOM     26  C   UNL     1      -0.223  12.143  19.088  0.00  0.00    +0.000 A 
ATOM     27  H   UNL     1      -2.245   9.736  18.741  0.00  0.00    +0.000 HD
BRANCH  26  28
ATOM     28  C   UNL     1       1.024  12.871  19.277  0.00  0.00    +0.000 A 
ATOM     29  C   UNL     1       1.394  13.304  20.558  0.00  0.00    +0.000 A 
ATOM     30  C   UNL     1       2.597  13.989  20.753  0.00  0.00    +0.000 A 
ATOM     31  C   UNL     1       3.432  14.235  19.669  0.00  0.00    +0.000 A 
ATOM     32  F   UNL     1       4.587  14.886  19.856  0.00  0.00    +0.000 F 
ATOM     33  C   UNL     1       3.083  13.821  18.391  0.00  0.00    +0.000 A 
ATOM     34  C   UNL     1       1.870  13.161  18.193  0.00  0.00    +0.000 A 
ENDBRANCH  26  28
BRANCH  24  35
ATOM     35  S   UNL     1      -3.970  11.967  18.304  0.00  0.00    +0.000 S 
ATOM     36  C   UNL     1      -4.029  11.206  16.666  0.00  0.00    +0.000 C 
ENDBRANCH  24  35
ENDBRANCH   4  22
TORSDOF 7
ENDMDL
MODEL 8
REMARK VINA RESULT:      -8.4      6.555     10.589
REMARK  Name = 
REMARK  8 active torsions:
REMARK  status: ('A' for Active; 'I' for Inactive)
REMARK    1  A    between atoms: C_2  and  C_3
REMARK    2  A    between atoms: N_5  and  C_6
REMARK    3  A    between atoms: C_6  and  C_7
REMARK    4  A    between atoms: C_11  and  N_12
REMARK    5  A    between atoms: C_15  and  C_16
REMARK    6  A    between atoms: C_18  and  S_19
REMARK    7  A    between atoms: S_19  and  C_20
REMARK    8  A    between atoms: C_22  and  C_23
REMARK                            x       y       z     vdW  Elec       q    Type
REMARK                         _______ _______ _______ _____ _____    ______ ____
ROOT
ATOM      1  N   UNL     1       2.636   7.912  18.098  0.00  0.00    +0.000 N 
ATOM      2  C   UNL     1       1.856   8.399  19.179  0.00  0.00    +0.000 A 
ATOM      3  C   UNL     1       1.101   9.561  19.006  0.00  0.00    +0.000 A 
ATOM      4  C   UNL     1       0.338  10.058  20.071  0.00  0.00    +0.000 A 
ATOM      5  C   UNL     1       0.386   9.378  21.288  0.00  0.00    +0.000 A 
ATOM      6  C   UNL     1       1.205   8.274  21.398  0.00  0.00    +0.000 A 
ATOM      7  N   UNL     1       1.924   7.779  20.375  0.00  0.00    +0.000 NA
ATOM      8  H   UNL     1       2.253   8.247  17.221  0.00  0.00    +0.000 HD
ENDROOT
BRANCH   1  13
ATOM      9  C   UNL     1       4.558   4.860  17.145  0.00  0.00    +0.000 A 
ATOM     10  C   UNL     1       3.564   3.877  17.244  0.00  0.00    +0.000 A 
ATOM     11  C   UNL     1       2.280   4.213  17.670  0.00  0.00    +0.000 A 
ATOM     12  C   UNL     1       1.978   5.536  17.990  0.00  0.00    +0.000 A 
ATOM     13  C   UNL     1       2.955   6.537  17.914  0.00  0.00    +0.000 A 
ATOM     14  C   UNL     1       4.237   6.190  17.467  0.00  0.00    +0.000 A 
BRANCH   9  15
ATOM     15  C   UNL     1       5.933   4.500  16.649  0.00  0.00    +0.000 C 
BRANCH  15  18
ATOM     16  C   UNL     1       6.789   4.566  14.363  0.00  0.00    +0.000 C 
ATOM     17  O   UNL     1       7.655   5.388  14.624  0.00  0.00    +0.000 OA
ATOM     18  N   UNL     1       5.892   4.070  15.275  0.00  0.00    +0.000 N 
ATOM     19  H   UNL     1       5.214   3.372  15.008  0.00  0.00    +0.000 HD
BRANCH  16  21
ATOM     20  C   UNL     1       5.445   3.442  12.641  0.00  0.00    +0.000 C 
ATOM     21  C   UNL     1       6.608   3.997  12.998  0.00  0.00    +0.000 C 
ENDBRANCH  16  21
ENDBRANCH  15  18
ENDBRANCH   9  15
ENDBRANCH   1  13
BRANCH   4  22
ATOM     22  C   UNL     1      -0.479  11.268  19.929  0.00  0.00    +0.000 A 
ATOM     23  N   UNL     1      -1.858  11.252  19.946  0.00  0.00    +0.000 N 
ATOM     24  C   UNL     1      -2.308  12.535  19.882  0.00  0.00    +0.000 A 
ATOM     25  N   UNL     1      -1.327  13.395  19.807  0.00  0.00    +0.000 NA
ATOM     26  C   UNL     1      -0.179  12.626  19.796  0.00  0.00    +0.000 A 
ATOM     27  H   UNL     1      -2.454  10.443  20.029  0.00  0.00    +0.000 HD
BRANCH  26  28
ATOM     28  C   UNL     1       1.144  13.220  19.660  0.00  0.00    +0.000 A 
ATOM     29  C   UNL     1       1.872  13.575  20.805  0.00  0.00    +0.000 A 
ATOM     30  C   UNL     1       3.150  14.131  20.687  0.00  0.00    +0.000 A 
ATOM     31  C   UNL     1       3.701  14.325  19.426  0.00  0.00    +0.000 A 
ATOM     32  F   UNL     1       4.927  14.852  19.312  0.00  0.00    +0.000 F 
ATOM     33  C   UNL     1       2.997  13.987  18.279  0.00  0.00    +0.000 A 
ATOM     34  C   UNL     1       1.711  13.458  18.397  0.00  0.00    +0.000 A 
ENDBRANCH  26  28
BRANCH  24  35
ATOM     35  S   UNL     1      -4.004  12.836  19.902  0.00  0.00    +0.000 S 
ATOM     36  C   UNL     1      -4.352  12.776  21.674  0.00  0.00    +0.000 C 
ENDBRANCH  24  35
ENDBRANCH   4  22
TORSDOF 7
ENDMDL
MODEL 9
REMARK VINA RESULT:      -8.3      6.452      8.222
REMARK  Name = 
REMARK  8 active torsions:
REMARK  status: ('A' for Active; 'I' for Inactive)
REMARK    1  A    between atoms: C_2  and  C_3
REMARK    2  A    between atoms: N_5  and  C_6
REMARK    3  A    between atoms: C_6  and  C_7
REMARK    4  A    between atoms: C_11  and  N_12
REMARK    5  A    between atoms: C_15  and  C_16
REMARK    6  A    between atoms: C_18  and  S_19
REMARK    7  A    between atoms: S_19  and  C_20
REMARK    8  A    between atoms: C_22  and  C_23
REMARK                            x       y       z     vdW  Elec       q    Type
REMARK                         _______ _______ _______ _____ _____    ______ ____
ROOT
ATOM      1  N   UNL     1       0.372  10.618  18.173  0.00  0.00    +0.000 N 
ATOM      2  C   UNL     1       0.973   9.554  18.894  0.00  0.00    +0.000 A 
ATOM      3  C   UNL     1       1.730   8.604  18.205  0.00  0.00    +0.000 A 
ATOM      4  C   UNL     1       2.317   7.543  18.907  0.00  0.00    +0.000 A 
ATOM      5  C   UNL     1       2.095   7.460  20.281  0.00  0.00    +0.000 A 
ATOM      6  C   UNL     1       1.284   8.401  20.879  0.00  0.00    +0.000 A 
ATOM      7  N   UNL     1       0.734   9.435  20.217  0.00  0.00    +0.000 NA
ATOM      8  H   UNL     1       0.879  10.774  17.308  0.00  0.00    +0.000 HD
ENDROOT
BRANCH   1  13
ATOM      9  C   UNL     1      -1.473  13.381  19.871  0.00  0.00    +0.000 A 
ATOM     10  C   UNL     1      -0.627  14.466  19.609  0.00  0.00    +0.000 A 
ATOM     11  C   UNL     1       0.569  14.278  18.919  0.00  0.00    +0.000 A 
ATOM     12  C   UNL     1       0.923  13.005  18.475  0.00  0.00    +0.000 A 
ATOM     13  C   UNL     1       0.104  11.898  18.734  0.00  0.00    +0.000 A 
ATOM     14  C   UNL     1      -1.105  12.103  19.413  0.00  0.00    +0.000 A 
BRANCH   9  15
ATOM     15  C   UNL     1      -2.782  13.594  20.584  0.00  0.00    +0.000 C 
BRANCH  15  18
ATOM     16  C   UNL     1      -4.948  12.475  20.438  0.00  0.00    +0.000 C 
ATOM     17  O   UNL     1      -5.046  12.332  21.648  0.00  0.00    +0.000 OA
ATOM     18  N   UNL     1      -3.882  13.072  19.813  0.00  0.00    +0.000 N 
ATOM     19  H   UNL     1      -3.866  13.187  18.811  0.00  0.00    +0.000 HD
BRANCH  16  21
ATOM     20  C   UNL     1      -5.698  11.140  18.519  0.00  0.00    +0.000 C 
ATOM     21  C   UNL     1      -5.996  12.012  19.487  0.00  0.00    +0.000 C 
ENDBRANCH  16  21
ENDBRANCH  15  18
ENDBRANCH   9  15
ENDBRANCH   1  13
BRANCH   4  22
ATOM     22  C   UNL     1       3.129   6.530  18.224  0.00  0.00    +0.000 A 
ATOM     23  N   UNL     1       3.937   6.815  17.143  0.00  0.00    +0.000 N 
ATOM     24  C   UNL     1       4.620   5.689  16.801  0.00  0.00    +0.000 A 
ATOM     25  N   UNL     1       4.308   4.676  17.566  0.00  0.00    +0.000 NA
ATOM     26  C   UNL     1       3.352   5.167  18.436  0.00  0.00    +0.000 A 
ATOM     27  H   UNL     1       4.049   7.709  16.689  0.00  0.00    +0.000 HD
BRANCH  26  28
ATOM     28  C   UNL     1       2.701   4.317  19.424  0.00  0.00    +0.000 A 
ATOM     29  C   UNL     1       3.459   3.727  20.446  0.00  0.00    +0.000 A 
ATOM     30  C   UNL     1       2.841   2.923  21.409  0.00  0.00    +0.000 A 
ATOM     31  C   UNL     1       1.468   2.715  21.354  0.00  0.00    +0.000 A 
ATOM     32  F   UNL     1       0.876   1.950  22.279  0.00  0.00    +0.000 F 
ATOM     33  C   UNL     1       0.700   3.284  20.348  0.00  0.00    +0.000 A 
ATOM     34  C   UNL     1       1.320   4.064  19.371  0.00  0.00    +0.000 A 
ENDBRANCH  26  28
BRANCH  24  35
ATOM     35  S   UNL     1       5.728   5.741  15.484  0.00  0.00    +0.000 S 
ATOM     36  C   UNL     1       6.752   4.292  15.829  0.00  0.00    +0.000 C 
ENDBRANCH  24  35
ENDBRANCH   4  22
TORSDOF 7
ENDMDL
