MODEL 1
REMARK VINA RESULT:      -7.9      0.000      0.000
REMARK  Name = 
REMARK  6 active torsions:
REMARK  status: ('A' for Active; 'I' for Inactive)
REMARK    1  A    between atoms: C_1  and  C_2
REMARK    2  A    between atoms: C_4  and  C_5
REMARK    3  A    between atoms: C_8  and  C_10
REMARK    4  A    between atoms: C_10  and  S_11
REMARK    5  A    between atoms: S_11  and  C_12
REMARK    6  A    between atoms: C_17  and  O_18
REMARK                            x       y       z     vdW  Elec       q    Type
REMARK                         _______ _______ _______ _____ _____    ______ ____
ROOT
ATOM      1  S   UNL     1       6.455   3.995  15.974  0.00  0.00    +0.000 S 
ENDROOT
BRANCH   1   2
ATOM      2  C   UNL     1       7.192   5.193  17.065  0.00  0.00    +0.000 A 
ATOM      3  N   UNL     1       7.541   4.761  18.293  0.00  0.00    +0.000 NA
ATOM      4  C   UNL     1       8.016   5.677  19.143  0.00  0.00    +0.000 A 
ATOM      5  N   UNL     1       8.451   5.226  20.391  0.00  0.00    +0.000 N 
ATOM      6  C   UNL     1       8.132   7.005  18.814  0.00  0.00    +0.000 A 
ATOM      7  C   UNL     1       7.721   7.336  17.546  0.00  0.00    +0.000 A 
ATOM      8  N   UNL     1       7.243   6.467  16.655  0.00  0.00    +0.000 NA
ATOM      9  H   UNL     1       8.235   4.233  20.455  0.00  0.00    +0.000 HD
ATOM     10  H   UNL     1       8.062   5.754  21.162  0.00  0.00    +0.000 HD
BRANCH   7  11
ATOM     11  O   UNL     1       7.760   8.632  17.115  0.00  0.00    +0.000 OA
ATOM     12  H   UNL     1       6.859   8.989  17.140  0.00  0.00    +0.000 HD
ENDBRANCH   7  11
ENDBRANCH   1   2
BRANCH   1  13
ATOM     13  C   UNL     1       4.691   4.253  16.359  0.00  0.00    +0.000 C 
BRANCH  13  21
ATOM     14  C   UNL     1       1.783   6.186  18.467  0.00  0.00    +0.000 C 
ATOM     15  C   UNL     1       2.816   6.009  19.583  0.00  0.00    +0.000 C 
ATOM     16  C   UNL     1       2.255   5.172  20.747  0.00  0.00    +0.000 C 
ATOM     17  C   UNL     1       2.079   3.695  20.359  0.00  0.00    +0.000 C 
ATOM     18  C   UNL     1       1.576   2.877  21.544  0.00  0.00    +0.000 C 
ATOM     19  C   UNL     1       3.397   3.132  19.810  0.00  0.00    +0.000 C 
ATOM     20  N   UNL     1       3.901   3.960  18.712  0.00  0.00    +0.000 N 
ATOM     21  C   UNL     1       4.186   3.352  17.486  0.00  0.00    +0.000 C 
ATOM     22  O   UNL     1       4.044   2.138  17.341  0.00  0.00    +0.000 OA
ATOM     23  C   UNL     1       4.104   5.372  19.040  0.00  0.00    +0.000 C 
ENDBRANCH  13  21
ENDBRANCH   1  13
TORSDOF 4
ENDMDL
MODEL 2
REMARK VINA RESULT:      -7.7      1.206      1.843
REMARK  Name = 
REMARK  6 active torsions:
REMARK  status: ('A' for Active; 'I' for Inactive)
REMARK    1  A    between atoms: C_1  and  C_2
REMARK    2  A    between atoms: C_4  and  C_5
REMARK    3  A    between atoms: C_8  and  C_10
REMARK    4  A    between atoms: C_10  and  S_11
REMARK    5  A    between atoms: S_11  and  C_12
REMARK    6  A    between atoms: C_17  and  O_18
REMARK                            x       y       z     vdW  Elec       q    Type
REMARK                         _______ _______ _______ _____ _____    ______ ____
ROOT
ATOM      1  S   UNL     1       6.361   4.061  16.041  0.00  0.00    +0.000 S 
ENDROOT
BRANCH   1   2
ATOM      2  C   UNL     1       7.020   5.227  17.214  0.00  0.00    +0.000 A 
ATOM      3  N   UNL     1       7.104   6.511  16.812  0.00  0.00    +0.000 NA
ATOM      4  C   UNL     1       7.676   7.372  17.659  0.00  0.00    +0.000 A 
ATOM      5  N   UNL     1       7.699   8.717  17.283  0.00  0.00    +0.000 N 
ATOM      6  C   UNL     1       8.182   6.991  18.877  0.00  0.00    +0.000 A 
ATOM      7  C   UNL     1       8.067   5.655  19.170  0.00  0.00    +0.000 A 
ATOM      8  N   UNL     1       7.503   4.750  18.368  0.00  0.00    +0.000 NA
ATOM      9  H   UNL     1       7.327   8.782  16.337  0.00  0.00    +0.000 HD
ATOM     10  H   UNL     1       8.617   9.137  17.362  0.00  0.00    +0.000 HD
BRANCH   7  11
ATOM     11  O   UNL     1       8.561   5.151  20.340  0.00  0.00    +0.000 OA
ATOM     12  H   UNL     1       8.393   4.197  20.356  0.00  0.00    +0.000 HD
ENDBRANCH   7  11
ENDBRANCH   1   2
BRANCH   1  13
ATOM     13  C   UNL     1       4.578   4.241  16.378  0.00  0.00    +0.000 C 
BRANCH  13  21
ATOM     14  C   UNL     1       1.724   6.160  18.572  0.00  0.00    +0.000 C 
ATOM     15  C   UNL     1       2.776   5.953  19.666  0.00  0.00    +0.000 C 
ATOM     16  C   UNL     1       2.228   5.101  20.824  0.00  0.00    +0.000 C 
ATOM     17  C   UNL     1       2.032   3.633  20.412  0.00  0.00    +0.000 C 
ATOM     18  C   UNL     1       1.542   2.796  21.591  0.00  0.00    +0.000 C 
ATOM     19  C   UNL     1       3.335   3.068  19.830  0.00  0.00    +0.000 C 
ATOM     20  N   UNL     1       3.827   3.912  18.739  0.00  0.00    +0.000 N 
ATOM     21  C   UNL     1       4.085   3.323  17.497  0.00  0.00    +0.000 C 
ATOM     22  O   UNL     1       3.929   2.114  17.332  0.00  0.00    +0.000 OA
ATOM     23  C   UNL     1       4.049   5.316  19.089  0.00  0.00    +0.000 C 
ENDBRANCH  13  21
ENDBRANCH   1  13
TORSDOF 4
ENDMDL
MODEL 3
REMARK VINA RESULT:      -7.6      2.945      3.970
REMARK  Name = 
REMARK  6 active torsions:
REMARK  status: ('A' for Active; 'I' for Inactive)
REMARK    1  A    between atoms: C_1  and  C_2
REMARK    2  A    between atoms: C_4  and  C_5
REMARK    3  A    between atoms: C_8  and  C_10
REMARK    4  A    between atoms: C_10  and  S_11
REMARK    5  A    between atoms: S_11  and  C_12
REMARK    6  A    between atoms: C_17  and  O_18
REMARK                            x       y       z     vdW  Elec       q    Type
REMARK                         _______ _______ _______ _____ _____    ______ ____
ROOT
ATOM      1  S   UNL     1       6.913   4.443  16.911  0.00  0.00    +0.000 S 
ENDROOT
BRANCH   1   2
ATOM      2  C   UNL     1       6.954   4.553  15.135  0.00  0.00    +0.000 A 
ATOM      3  N   UNL     1       6.206   3.662  14.454  0.00  0.00    +0.000 NA
ATOM      4  C   UNL     1       6.301   3.687  13.121  0.00  0.00    +0.000 A 
ATOM      5  N   UNL     1       5.474   2.819  12.406  0.00  0.00    +0.000 N 
ATOM      6  C   UNL     1       7.129   4.554  12.452  0.00  0.00    +0.000 A 
ATOM      7  C   UNL     1       7.864   5.398  13.247  0.00  0.00    +0.000 A 
ATOM      8  N   UNL     1       7.809   5.422  14.579  0.00  0.00    +0.000 NA
ATOM      9  H   UNL     1       4.982   2.233  13.078  0.00  0.00    +0.000 HD
ATOM     10  H   UNL     1       5.973   2.272  11.715  0.00  0.00    +0.000 HD
BRANCH   7  11
ATOM     11  O   UNL     1       8.746   6.285  12.697  0.00  0.00    +0.000 OA
ATOM     12  H   UNL     1       9.287   6.658  13.409  0.00  0.00    +0.000 HD
ENDBRANCH   7  11
ENDBRANCH   1   2
BRANCH   1  13
ATOM     13  C   UNL     1       5.395   5.394  17.256  0.00  0.00    +0.000 C 
BRANCH  13  21
ATOM     14  C   UNL     1       2.694   2.340  17.398  0.00  0.00    +0.000 C 
ATOM     15  C   UNL     1       1.787   3.490  17.847  0.00  0.00    +0.000 C 
ATOM     16  C   UNL     1       1.221   3.248  19.257  0.00  0.00    +0.000 C 
ATOM     17  C   UNL     1       2.306   3.374  20.339  0.00  0.00    +0.000 C 
ATOM     18  C   UNL     1       1.711   3.186  21.732  0.00  0.00    +0.000 C 
ATOM     19  C   UNL     1       3.021   4.726  20.215  0.00  0.00    +0.000 C 
ATOM     20  N   UNL     1       3.536   4.921  18.858  0.00  0.00    +0.000 N 
ATOM     21  C   UNL     1       4.892   5.218  18.689  0.00  0.00    +0.000 C 
ATOM     22  O   UNL     1       5.633   5.341  19.663  0.00  0.00    +0.000 OA
ATOM     23  C   UNL     1       2.535   4.830  17.794  0.00  0.00    +0.000 C 
ENDBRANCH  13  21
ENDBRANCH   1  13
TORSDOF 4
ENDMDL
MODEL 4
REMARK VINA RESULT:      -7.6      1.442      2.196
REMARK  Name = 
REMARK  6 active torsions:
REMARK  status: ('A' for Active; 'I' for Inactive)
REMARK    1  A    between atoms: C_1  and  C_2
REMARK    2  A    between atoms: C_4  and  C_5
REMARK    3  A    between atoms: C_8  and  C_10
REMARK    4  A    between atoms: C_10  and  S_11
REMARK    5  A    between atoms: S_11  and  C_12
REMARK    6  A    between atoms: C_17  and  O_18
REMARK                            x       y       z     vdW  Elec       q    Type
REMARK                         _______ _______ _______ _____ _____    ______ ____
ROOT
ATOM      1  S   UNL     1       6.029   4.108  16.253  0.00  0.00    +0.000 S 
ENDROOT
BRANCH   1   2
ATOM      2  C   UNL     1       6.966   5.248  17.248  0.00  0.00    +0.000 A 
ATOM      3  N   UNL     1       7.376   4.806  18.454  0.00  0.00    +0.000 NA
ATOM      4  C   UNL     1       8.007   5.688  19.237  0.00  0.00    +0.000 A 
ATOM      5  N   UNL     1       8.501   5.219  20.456  0.00  0.00    +0.000 N 
ATOM      6  C   UNL     1       8.219   6.992  18.866  0.00  0.00    +0.000 A 
ATOM      7  C   UNL     1       7.736   7.339  17.628  0.00  0.00    +0.000 A 
ATOM      8  N   UNL     1       7.104   6.504  16.802  0.00  0.00    +0.000 NA
ATOM      9  H   UNL     1       8.198   4.253  20.564  0.00  0.00    +0.000 HD
ATOM     10  H   UNL     1       8.231   5.795  21.243  0.00  0.00    +0.000 HD
BRANCH   7  11
ATOM     11  O   UNL     1       7.860   8.617  17.162  0.00  0.00    +0.000 OA
ATOM     12  H   UNL     1       7.018   9.075  17.300  0.00  0.00    +0.000 HD
ENDBRANCH   7  11
ENDBRANCH   1   2
BRANCH   1  13
ATOM     13  C   UNL     1       4.422   4.969  16.206  0.00  0.00    +0.000 C 
BRANCH  13  21
ATOM     14  C   UNL     1       3.820   1.415  18.115  0.00  0.00    +0.000 C 
ATOM     15  C   UNL     1       2.372   1.913  18.062  0.00  0.00    +0.000 C 
ATOM     16  C   UNL     1       1.778   2.076  19.472  0.00  0.00    +0.000 C 
ATOM     17  C   UNL     1       2.402   3.263  20.223  0.00  0.00    +0.000 C 
ATOM     18  C   UNL     1       1.758   3.440  21.596  0.00  0.00    +0.000 C 
ATOM     19  C   UNL     1       2.285   4.542  19.382  0.00  0.00    +0.000 C 
ATOM     20  N   UNL     1       2.853   4.342  18.048  0.00  0.00    +0.000 N 
ATOM     21  C   UNL     1       3.840   5.224  17.596  0.00  0.00    +0.000 C 
ATOM     22  O   UNL     1       4.204   6.168  18.297  0.00  0.00    +0.000 OA
ATOM     23  C   UNL     1       2.275   3.234  17.285  0.00  0.00    +0.000 C 
ENDBRANCH  13  21
ENDBRANCH   1  13
TORSDOF 4
ENDMDL
MODEL 5
REMARK VINA RESULT:      -7.3      2.745      4.121
REMARK  Name = 
REMARK  6 active torsions:
REMARK  status: ('A' for Active; 'I' for Inactive)
REMARK    1  A    between atoms: C_1  and  C_2
REMARK    2  A    between atoms: C_4  and  C_5
REMARK    3  A    between atoms: C_8  and  C_10
REMARK    4  A    between atoms: C_10  and  S_11
REMARK    5  A    between atoms: S_11  and  C_12
REMARK    6  A    between atoms: C_17  and  O_18
REMARK                            x       y       z     vdW  Elec       q    Type
REMARK                         _______ _______ _______ _____ _____    ______ ____
ROOT
ATOM      1  S   UNL     1       6.978   4.826  17.011  0.00  0.00    +0.000 S 
ENDROOT
BRANCH   1   2
ATOM      2  C   UNL     1       7.037   4.630  15.243  0.00  0.00    +0.000 A 
ATOM      3  N   UNL     1       7.825   5.487  14.563  0.00  0.00    +0.000 NA
ATOM      4  C   UNL     1       7.805   5.396  13.230  0.00  0.00    +0.000 A 
ATOM      5  N   UNL     1       8.674   6.229  12.520  0.00  0.00    +0.000 N 
ATOM      6  C   UNL     1       7.013   4.498  12.558  0.00  0.00    +0.000 A 
ATOM      7  C   UNL     1       6.232   3.694  13.350  0.00  0.00    +0.000 A 
ATOM      8  N   UNL     1       6.212   3.735  14.683  0.00  0.00    +0.000 NA
ATOM      9  H   UNL     1       9.129   6.847  13.190  0.00  0.00    +0.000 HD
ATOM     10  H   UNL     1       8.215   6.742  11.777  0.00  0.00    +0.000 HD
BRANCH   7  11
ATOM     11  O   UNL     1       5.380   2.782  12.795  0.00  0.00    +0.000 OA
ATOM     12  H   UNL     1       4.972   3.182  12.013  0.00  0.00    +0.000 HD
ENDBRANCH   7  11
ENDBRANCH   1   2
BRANCH   1  13
ATOM     13  C   UNL     1       5.224   5.276  17.226  0.00  0.00    +0.000 C 
BRANCH  13  21
ATOM     14  C   UNL     1       2.632   2.138  17.498  0.00  0.00    +0.000 C 
ATOM     15  C   UNL     1       1.690   3.270  17.918  0.00  0.00    +0.000 C 
ATOM     16  C   UNL     1       1.147   3.055  19.342  0.00  0.00    +0.000 C 
ATOM     17  C   UNL     1       2.237   3.255  20.408  0.00  0.00    +0.000 C 
ATOM     18  C   UNL     1       1.663   3.093  21.812  0.00  0.00    +0.000 C 
ATOM     19  C   UNL     1       2.904   4.626  20.231  0.00  0.00    +0.000 C 
ATOM     20  N   UNL     1       3.398   4.793  18.863  0.00  0.00    +0.000 N 
ATOM     21  C   UNL     1       4.741   5.130  18.669  0.00  0.00    +0.000 C 
ATOM     22  O   UNL     1       5.487   5.311  19.631  0.00  0.00    +0.000 OA
ATOM     23  C   UNL     1       2.390   4.633  17.813  0.00  0.00    +0.000 C 
ENDBRANCH  13  21
ENDBRANCH   1  13
TORSDOF 4
ENDMDL
MODEL 6
REMARK VINA RESULT:      -7.3      2.792      3.702
REMARK  Name = 
REMARK  6 active torsions:
REMARK  status: ('A' for Active; 'I' for Inactive)
REMARK    1  A    between atoms: C_1  and  C_2
REMARK    2  A    between atoms: C_4  and  C_5
REMARK    3  A    between atoms: C_8  and  C_10
REMARK    4  A    between atoms: C_10  and  S_11
REMARK    5  A    between atoms: S_11  and  C_12
REMARK    6  A    between atoms: C_17  and  O_18
REMARK                            x       y       z     vdW  Elec       q    Type
REMARK                         _______ _______ _______ _____ _____    ______ ____
ROOT
ATOM      1  S   UNL     1       6.481   4.389  16.536  0.00  0.00    +0.000 S 
ENDROOT
BRANCH   1   2
ATOM      2  C   UNL     1       6.746   4.472  14.778  0.00  0.00    +0.000 A 
ATOM      3  N   UNL     1       6.137   3.533  14.027  0.00  0.00    +0.000 NA
ATOM      4  C   UNL     1       6.402   3.542  12.717  0.00  0.00    +0.000 A 
ATOM      5  N   UNL     1       5.719   2.620  11.921  0.00  0.00    +0.000 N 
ATOM      6  C   UNL     1       7.265   4.440  12.140  0.00  0.00    +0.000 A 
ATOM      7  C   UNL     1       7.848   5.334  13.004  0.00  0.00    +0.000 A 
ATOM      8  N   UNL     1       7.620   5.376  14.317  0.00  0.00    +0.000 NA
ATOM      9  H   UNL     1       5.174   2.020  12.537  0.00  0.00    +0.000 HD
ATOM     10  H   UNL     1       6.330   2.090  11.312  0.00  0.00    +0.000 HD
BRANCH   7  11
ATOM     11  O   UNL     1       8.749   6.257  12.552  0.00  0.00    +0.000 OA
ATOM     12  H   UNL     1       8.423   6.616  11.714  0.00  0.00    +0.000 HD
ENDBRANCH   7  11
ENDBRANCH   1   2
BRANCH   1  13
ATOM     13  C   UNL     1       4.658   4.369  16.585  0.00  0.00    +0.000 C 
BRANCH  13  21
ATOM     14  C   UNL     1       1.824   6.242  18.844  0.00  0.00    +0.000 C 
ATOM     15  C   UNL     1       2.835   5.912  19.946  0.00  0.00    +0.000 C 
ATOM     16  C   UNL     1       2.221   5.001  21.023  0.00  0.00    +0.000 C 
ATOM     17  C   UNL     1       1.978   3.576  20.499  0.00  0.00    +0.000 C 
ATOM     18  C   UNL     1       1.422   2.678  21.601  0.00  0.00    +0.000 C 
ATOM     19  C   UNL     1       3.273   3.002  19.910  0.00  0.00    +0.000 C 
ATOM     20  N   UNL     1       3.828   3.901  18.897  0.00  0.00    +0.000 N 
ATOM     21  C   UNL     1       4.098   3.394  17.621  0.00  0.00    +0.000 C 
ATOM     22  O   UNL     1       3.898   2.207  17.363  0.00  0.00    +0.000 OA
ATOM     23  C   UNL     1       4.097   5.265  19.355  0.00  0.00    +0.000 C 
ENDBRANCH  13  21
ENDBRANCH   1  13
TORSDOF 4
ENDMDL
MODEL 7
REMARK VINA RESULT:      -7.2      1.881      2.865
REMARK  Name = 
REMARK  6 active torsions:
REMARK  status: ('A' for Active; 'I' for Inactive)
REMARK    1  A    between atoms: C_1  and  C_2
REMARK    2  A    between atoms: C_4  and  C_5
REMARK    3  A    between atoms: C_8  and  C_10
REMARK    4  A    between atoms: C_10  and  S_11
REMARK    5  A    between atoms: S_11  and  C_12
REMARK    6  A    between atoms: C_17  and  O_18
REMARK                            x       y       z     vdW  Elec       q    Type
REMARK                         _______ _______ _______ _____ _____    ______ ____
ROOT
ATOM      1  S   UNL     1       6.419   5.101  15.487  0.00  0.00    +0.000 S 
ENDROOT
BRANCH   1   2
ATOM      2  C   UNL     1       7.085   5.962  16.895  0.00  0.00    +0.000 A 
ATOM      3  N   UNL     1       7.290   7.287  16.756  0.00  0.00    +0.000 NA
ATOM      4  C   UNL     1       7.869   7.919  17.781  0.00  0.00    +0.000 A 
ATOM      5  N   UNL     1       8.017   9.304  17.676  0.00  0.00    +0.000 N 
ATOM      6  C   UNL     1       8.265   7.272  18.925  0.00  0.00    +0.000 A 
ATOM      7  C   UNL     1       8.031   5.919  18.947  0.00  0.00    +0.000 A 
ATOM      8  N   UNL     1       7.455   5.235  17.958  0.00  0.00    +0.000 NA
ATOM      9  H   UNL     1       7.713   9.580  16.744  0.00  0.00    +0.000 HD
ATOM     10  H   UNL     1       8.957   9.621  17.881  0.00  0.00    +0.000 HD
BRANCH   7  11
ATOM     11  O   UNL     1       8.410   5.161  20.019  0.00  0.00    +0.000 OA
ATOM     12  H   UNL     1       8.219   4.233  19.819  0.00  0.00    +0.000 HD
ENDBRANCH   7  11
ENDBRANCH   1   2
BRANCH   1  13
ATOM     13  C   UNL     1       5.308   3.923  16.327  0.00  0.00    +0.000 C 
BRANCH  13  21
ATOM     14  C   UNL     1       4.450   2.003  19.822  0.00  0.00    +0.000 C 
ATOM     15  C   UNL     1       3.131   1.764  19.082  0.00  0.00    +0.000 C 
ATOM     16  C   UNL     1       1.939   2.381  19.834  0.00  0.00    +0.000 C 
ATOM     17  C   UNL     1       1.959   3.917  19.779  0.00  0.00    +0.000 C 
ATOM     18  C   UNL     1       0.739   4.505  20.483  0.00  0.00    +0.000 C 
ATOM     19  C   UNL     1       2.047   4.393  18.323  0.00  0.00    +0.000 C 
ATOM     20  N   UNL     1       3.186   3.776  17.640  0.00  0.00    +0.000 N 
ATOM     21  C   UNL     1       4.122   4.604  17.011  0.00  0.00    +0.000 C 
ATOM     22  O   UNL     1       3.975   5.825  17.005  0.00  0.00    +0.000 OA
ATOM     23  C   UNL     1       3.200   2.313  17.649  0.00  0.00    +0.000 C 
ENDBRANCH  13  21
ENDBRANCH   1  13
TORSDOF 4
ENDMDL
MODEL 8
REMARK VINA RESULT:      -7.2      3.057      4.317
REMARK  Name = 
REMARK  6 active torsions:
REMARK  status: ('A' for Active; 'I' for Inactive)
REMARK    1  A    between atoms: C_1  and  C_2
REMARK    2  A    between atoms: C_4  and  C_5
REMARK    3  A    between atoms: C_8  and  C_10
REMARK    4  A    between atoms: C_10  and  S_11
REMARK    5  A    between atoms: S_11  and  C_12
REMARK    6  A    between atoms: C_17  and  O_18
REMARK                            x       y       z     vdW  Elec       q    Type
REMARK                         _______ _______ _______ _____ _____    ______ ____
ROOT
ATOM      1  S   UNL     1       6.536   4.445  16.566  0.00  0.00    +0.000 S 
ENDROOT
BRANCH   1   2
ATOM      2  C   UNL     1       6.772   4.511  14.802  0.00  0.00    +0.000 A 
ATOM      3  N   UNL     1       6.147   3.567  14.071  0.00  0.00    +0.000 NA
ATOM      4  C   UNL     1       6.391   3.564  12.756  0.00  0.00    +0.000 A 
ATOM      5  N   UNL     1       5.690   2.638  11.980  0.00  0.00    +0.000 N 
ATOM      6  C   UNL     1       7.248   4.453  12.157  0.00  0.00    +0.000 A 
ATOM      7  C   UNL     1       7.849   5.352  13.003  0.00  0.00    +0.000 A 
ATOM      8  N   UNL     1       7.643   5.407  14.319  0.00  0.00    +0.000 NA
ATOM      9  H   UNL     1       5.153   2.046  12.611  0.00  0.00    +0.000 HD
ATOM     10  H   UNL     1       6.289   2.099  11.367  0.00  0.00    +0.000 HD
BRANCH   7  11
ATOM     11  O   UNL     1       8.746   6.267  12.528  0.00  0.00    +0.000 OA
ATOM     12  H   UNL     1       8.421   6.600  11.678  0.00  0.00    +0.000 HD
ENDBRANCH   7  11
ENDBRANCH   1   2
BRANCH   1  13
ATOM     13  C   UNL     1       4.713   4.454  16.646  0.00  0.00    +0.000 C 
BRANCH  13  21
ATOM     14  C   UNL     1       3.144   3.448  20.274  0.00  0.00    +0.000 C 
ATOM     15  C   UNL     1       1.873   3.966  19.593  0.00  0.00    +0.000 C 
ATOM     16  C   UNL     1       1.276   5.167  20.348  0.00  0.00    +0.000 C 
ATOM     17  C   UNL     1       2.145   6.426  20.202  0.00  0.00    +0.000 C 
ATOM     18  C   UNL     1       1.505   7.616  20.911  0.00  0.00    +0.000 C 
ATOM     19  C   UNL     1       2.394   6.727  18.718  0.00  0.00    +0.000 C 
ATOM     20  N   UNL     1       2.954   5.559  18.035  0.00  0.00    +0.000 N 
ATOM     21  C   UNL     1       4.151   5.702  17.327  0.00  0.00    +0.000 C 
ATOM     22  O   UNL     1       4.710   6.796  17.255  0.00  0.00    +0.000 OA
ATOM     23  C   UNL     1       2.150   4.339  18.129  0.00  0.00    +0.000 C 
ENDBRANCH  13  21
ENDBRANCH   1  13
TORSDOF 4
ENDMDL
MODEL 9
REMARK VINA RESULT:      -7.1      1.398      2.168
REMARK  Name = 
REMARK  6 active torsions:
REMARK  status: ('A' for Active; 'I' for Inactive)
REMARK    1  A    between atoms: C_1  and  C_2
REMARK    2  A    between atoms: C_4  and  C_5
REMARK    3  A    between atoms: C_8  and  C_10
REMARK    4  A    between atoms: C_10  and  S_11
REMARK    5  A    between atoms: S_11  and  C_12
REMARK    6  A    between atoms: C_17  and  O_18
REMARK                            x       y       z     vdW  Elec       q    Type
REMARK                         _______ _______ _______ _____ _____    ______ ____
ROOT
ATOM      1  S   UNL     1       6.547   4.758  15.484  0.00  0.00    +0.000 S 
ENDROOT
BRANCH   1   2
ATOM      2  C   UNL     1       7.243   5.749  16.789  0.00  0.00    +0.000 A 
ATOM      3  N   UNL     1       7.529   5.117  17.944  0.00  0.00    +0.000 NA
ATOM      4  C   UNL     1       7.973   5.874  18.953  0.00  0.00    +0.000 A 
ATOM      5  N   UNL     1       8.343   5.218  20.129  0.00  0.00    +0.000 N 
ATOM      6  C   UNL     1       8.117   7.236  18.852  0.00  0.00    +0.000 A 
ATOM      7  C   UNL     1       7.770   7.776  17.638  0.00  0.00    +0.000 A 
ATOM      8  N   UNL     1       7.327   7.072  16.596  0.00  0.00    +0.000 NA
ATOM      9  H   UNL     1       8.114   4.231  20.020  0.00  0.00    +0.000 HD
ATOM     10  H   UNL     1       7.923   5.619  20.958  0.00  0.00    +0.000 HD
BRANCH   7  11
ATOM     11  O   UNL     1       7.842   9.124  17.427  0.00  0.00    +0.000 OA
ATOM     12  H   UNL     1       8.527   9.487  18.007  0.00  0.00    +0.000 HD
ENDBRANCH   7  11
ENDBRANCH   1   2
BRANCH   1  13
ATOM     13  C   UNL     1       5.439   3.682  16.455  0.00  0.00    +0.000 C 
BRANCH  13  21
ATOM     14  C   UNL     1       4.480   2.099  20.089  0.00  0.00    +0.000 C 
ATOM     15  C   UNL     1       3.176   1.801  19.341  0.00  0.00    +0.000 C 
ATOM     16  C   UNL     1       1.972   2.494  20.004  0.00  0.00    +0.000 C 
ATOM     17  C   UNL     1       2.008   4.018  19.808  0.00  0.00    +0.000 C 
ATOM     18  C   UNL     1       0.777   4.676  20.424  0.00  0.00    +0.000 C 
ATOM     19  C   UNL     1       2.135   4.356  18.316  0.00  0.00    +0.000 C 
ATOM     20  N   UNL     1       3.285   3.672  17.722  0.00  0.00    +0.000 N 
ATOM     21  C   UNL     1       4.243   4.431  17.043  0.00  0.00    +0.000 C 
ATOM     22  O   UNL     1       4.107   5.648  16.921  0.00  0.00    +0.000 OA
ATOM     23  C   UNL     1       3.285   2.215  17.866  0.00  0.00    +0.000 C 
ENDBRANCH  13  21
ENDBRANCH   1  13
TORSDOF 4
ENDMDL
