MODEL 1
REMARK VINA RESULT:      -8.8      0.000      0.000
REMARK  Name = 
REMARK  3 active torsions:
REMARK  status: ('A' for Active; 'I' for Inactive)
REMARK    1  A    between atoms: C_2  and  C_20
REMARK    2  A    between atoms: N_3  and  C_4
REMARK    3  A    between atoms: C_9  and  C_10
REMARK                            x       y       z     vdW  Elec       q    Type
REMARK                         _______ _______ _______ _____ _____    ______ ____
ROOT
ATOM      1  C   UNL     1       1.958   5.573  20.421  0.00  0.00    +0.000 A 
ATOM      2  C   UNL     1       1.571   4.323  20.893  0.00  0.00    +0.000 A 
ATOM      3  C   UNL     1       2.126   3.160  20.362  0.00  0.00    +0.000 A 
ATOM      4  C   UNL     1       3.072   3.232  19.336  0.00  0.00    +0.000 A 
ATOM      5 CL   UNL     1       3.769   1.725  18.847  0.00  0.00    +0.000 Cl
ATOM      6  C   UNL     1       3.443   4.476  18.800  0.00  0.00    +0.000 A 
ATOM      7  C   UNL     1       2.868   5.643  19.356  0.00  0.00    +0.000 A 
ENDROOT
BRANCH   6   8
ATOM      8  C   UNL     1       4.422   4.641  17.727  0.00  0.00    +0.000 A 
ATOM      9  N   UNL     1       5.548   5.335  17.735  0.00  0.00    +0.000 NA
ATOM     10  C   UNL     1       6.056   5.127  16.482  0.00  0.00    +0.000 A 
ATOM     11  N   UNL     1       7.224   5.603  15.992  0.00  0.00    +0.000 NA
ATOM     12  C   UNL     1       7.465   5.230  14.710  0.00  0.00    +0.000 A 
ATOM     13  C   UNL     1       6.634   4.440  13.914  0.00  0.00    +0.000 A 
ATOM     14  C   UNL     1       5.432   3.960  14.433  0.00  0.00    +0.000 A 
ATOM     15  C   UNL     1       5.191   4.342  15.742  0.00  0.00    +0.000 A 
ATOM     16  O   UNL     1       4.123   4.047  16.525  0.00  0.00    +0.000 OA
ENDBRANCH   6   8
BRANCH   1  19
ATOM     17  O   UNL     1       1.898   8.256  19.214  0.00  0.00    +0.000 OA
ATOM     18  C   UNL     1       1.502   8.020  20.349  0.00  0.00    +0.000 C 
ATOM     19  N   UNL     1       1.490   6.784  20.980  0.00  0.00    +0.000 N 
ATOM     20  H   UNL     1       0.946   6.701  21.831  0.00  0.00    +0.000 HD
BRANCH  18  21
ATOM     21  C   UNL     1       0.893   9.138  21.113  0.00  0.00    +0.000 A 
ATOM     22  C   UNL     1       0.321   8.851  22.353  0.00  0.00    +0.000 A 
ATOM     23  C   UNL     1      -0.223   9.895  23.075  0.00  0.00    +0.000 A 
ATOM     24  N   UNL     1      -0.241  11.172  22.636  0.00  0.00    +0.000 NA
ATOM     25  C   UNL     1       0.291  11.415  21.419  0.00  0.00    +0.000 A 
ATOM     26  C   UNL     1       0.864  10.442  20.620  0.00  0.00    +0.000 A 
ENDBRANCH  18  21
ENDBRANCH   1  19
TORSDOF 3
ENDMDL
MODEL 2
REMARK VINA RESULT:      -8.4      1.756      8.213
REMARK  Name = 
REMARK  3 active torsions:
REMARK  status: ('A' for Active; 'I' for Inactive)
REMARK    1  A    between atoms: C_2  and  C_20
REMARK    2  A    between atoms: N_3  and  C_4
REMARK    3  A    between atoms: C_9  and  C_10
REMARK                            x       y       z     vdW  Elec       q    Type
REMARK                         _______ _______ _______ _____ _____    ______ ____
ROOT
ATOM      1  C   UNL     1       4.104   4.195  17.420  0.00  0.00    +0.000 A 
ATOM      2  C   UNL     1       4.038   3.029  18.177  0.00  0.00    +0.000 A 
ATOM      3  C   UNL     1       3.374   3.015  19.402  0.00  0.00    +0.000 A 
ATOM      4  C   UNL     1       2.775   4.176  19.896  0.00  0.00    +0.000 A 
ATOM      5 CL   UNL     1       1.883   3.997  21.368  0.00  0.00    +0.000 Cl
ATOM      6  C   UNL     1       2.872   5.382  19.182  0.00  0.00    +0.000 A 
ATOM      7  C   UNL     1       3.549   5.372  17.940  0.00  0.00    +0.000 A 
ENDROOT
BRANCH   6   8
ATOM      8  C   UNL     1       2.276   6.641  19.626  0.00  0.00    +0.000 A 
ATOM      9  N   UNL     1       1.794   6.952  20.817  0.00  0.00    +0.000 NA
ATOM     10  C   UNL     1       1.379   8.247  20.662  0.00  0.00    +0.000 A 
ATOM     11  N   UNL     1       0.833   9.042  21.611  0.00  0.00    +0.000 NA
ATOM     12  C   UNL     1       0.520  10.283  21.162  0.00  0.00    +0.000 A 
ATOM     13  C   UNL     1       0.711  10.760  19.864  0.00  0.00    +0.000 A 
ATOM     14  C   UNL     1       1.273   9.927  18.897  0.00  0.00    +0.000 A 
ATOM     15  C   UNL     1       1.591   8.661  19.360  0.00  0.00    +0.000 A 
ATOM     16  O   UNL     1       2.142   7.626  18.678  0.00  0.00    +0.000 OA
ENDBRANCH   6   8
BRANCH   1  19
ATOM     17  O   UNL     1       6.951   4.395  16.706  0.00  0.00    +0.000 OA
ATOM     18  C   UNL     1       6.051   4.348  15.876  0.00  0.00    +0.000 C 
ATOM     19  N   UNL     1       4.693   4.243  16.135  0.00  0.00    +0.000 N 
ATOM     20  H   UNL     1       4.087   4.005  15.359  0.00  0.00    +0.000 HD
BRANCH  18  21
ATOM     21  C   UNL     1       6.437   4.313  14.443  0.00  0.00    +0.000 A 
ATOM     22  C   UNL     1       7.465   5.156  14.018  0.00  0.00    +0.000 A 
ATOM     23  C   UNL     1       7.841   5.105  12.691  0.00  0.00    +0.000 A 
ATOM     24  N   UNL     1       7.259   4.293  11.784  0.00  0.00    +0.000 NA
ATOM     25  C   UNL     1       6.246   3.511  12.215  0.00  0.00    +0.000 A 
ATOM     26  C   UNL     1       5.796   3.484  13.523  0.00  0.00    +0.000 A 
ENDBRANCH  18  21
ENDBRANCH   1  19
TORSDOF 3
ENDMDL
MODEL 3
REMARK VINA RESULT:      -8.3      1.952      8.322
REMARK  Name = 
REMARK  3 active torsions:
REMARK  status: ('A' for Active; 'I' for Inactive)
REMARK    1  A    between atoms: C_2  and  C_20
REMARK    2  A    between atoms: N_3  and  C_4
REMARK    3  A    between atoms: C_9  and  C_10
REMARK                            x       y       z     vdW  Elec       q    Type
REMARK                         _______ _______ _______ _____ _____    ______ ____
ROOT
ATOM      1  C   UNL     1       4.184   4.453  17.356  0.00  0.00    +0.000 A 
ATOM      2  C   UNL     1       4.111   3.307  18.143  0.00  0.00    +0.000 A 
ATOM      3  C   UNL     1       3.419   3.320  19.353  0.00  0.00    +0.000 A 
ATOM      4  C   UNL     1       2.799   4.489  19.802  0.00  0.00    +0.000 A 
ATOM      5 CL   UNL     1       1.876   4.341  21.258  0.00  0.00    +0.000 Cl
ATOM      6  C   UNL     1       2.902   5.676  19.057  0.00  0.00    +0.000 A 
ATOM      7  C   UNL     1       3.607   5.639  17.832  0.00  0.00    +0.000 A 
ENDROOT
BRANCH   6   8
ATOM      8  C   UNL     1       2.287   6.941  19.454  0.00  0.00    +0.000 A 
ATOM      9  N   UNL     1       2.116   8.038  18.736  0.00  0.00    +0.000 NA
ATOM     10  C   UNL     1       1.487   8.889  19.603  0.00  0.00    +0.000 A 
ATOM     11  N   UNL     1       1.063  10.147  19.341  0.00  0.00    +0.000 NA
ATOM     12  C   UNL     1       0.471  10.751  20.402  0.00  0.00    +0.000 A 
ATOM     13  C   UNL     1       0.289  10.193  21.668  0.00  0.00    +0.000 A 
ATOM     14  C   UNL     1       0.735   8.898  21.924  0.00  0.00    +0.000 A 
ATOM     15  C   UNL     1       1.337   8.284  20.838  0.00  0.00    +0.000 A 
ATOM     16  O   UNL     1       1.873   7.041  20.760  0.00  0.00    +0.000 OA
ENDBRANCH   6   8
BRANCH   1  19
ATOM     17  O   UNL     1       7.052   4.515  16.702  0.00  0.00    +0.000 OA
ATOM     18  C   UNL     1       6.168   4.511  15.853  0.00  0.00    +0.000 C 
ATOM     19  N   UNL     1       4.801   4.472  16.084  0.00  0.00    +0.000 N 
ATOM     20  H   UNL     1       4.201   4.262  15.295  0.00  0.00    +0.000 HD
BRANCH  18  21
ATOM     21  C   UNL     1       6.582   4.456  14.428  0.00  0.00    +0.000 A 
ATOM     22  C   UNL     1       5.952   3.528  13.597  0.00  0.00    +0.000 A 
ATOM     23  C   UNL     1       6.318   3.494  12.266  0.00  0.00    +0.000 A 
ATOM     24  N   UNL     1       7.261   4.301  11.734  0.00  0.00    +0.000 NA
ATOM     25  C   UNL     1       7.877   5.166  12.568  0.00  0.00    +0.000 A 
ATOM     26  C   UNL     1       7.580   5.282  13.914  0.00  0.00    +0.000 A 
ENDBRANCH  18  21
ENDBRANCH   1  19
TORSDOF 3
ENDMDL
MODEL 4
REMARK VINA RESULT:      -8.2      1.151      1.324
REMARK  Name = 
REMARK  3 active torsions:
REMARK  status: ('A' for Active; 'I' for Inactive)
REMARK    1  A    between atoms: C_2  and  C_20
REMARK    2  A    between atoms: N_3  and  C_4
REMARK    3  A    between atoms: C_9  and  C_10
REMARK                            x       y       z     vdW  Elec       q    Type
REMARK                         _______ _______ _______ _____ _____    ______ ____
ROOT
ATOM      1  C   UNL     1       1.945   6.949  20.281  0.00  0.00    +0.000 A 
ATOM      2  C   UNL     1       1.499   5.842  20.996  0.00  0.00    +0.000 A 
ATOM      3  C   UNL     1       1.998   4.570  20.719  0.00  0.00    +0.000 A 
ATOM      4  C   UNL     1       2.945   4.385  19.709  0.00  0.00    +0.000 A 
ATOM      5 CL   UNL     1       3.570   2.780  19.545  0.00  0.00    +0.000 Cl
ATOM      6  C   UNL     1       3.375   5.475  18.933  0.00  0.00    +0.000 A 
ATOM      7  C   UNL     1       2.857   6.756  19.233  0.00  0.00    +0.000 A 
ENDROOT
BRANCH   6   8
ATOM      8  C   UNL     1       4.360   5.371  17.858  0.00  0.00    +0.000 A 
ATOM      9  N   UNL     1       5.530   5.978  17.747  0.00  0.00    +0.000 NA
ATOM     10  C   UNL     1       6.019   5.506  16.560  0.00  0.00    +0.000 A 
ATOM     11  N   UNL     1       7.215   5.803  16.001  0.00  0.00    +0.000 NA
ATOM     12  C   UNL     1       7.427   5.181  14.814  0.00  0.00    +0.000 A 
ATOM     13  C   UNL     1       6.543   4.312  14.173  0.00  0.00    +0.000 A 
ATOM     14  C   UNL     1       5.313   4.018  14.761  0.00  0.00    +0.000 A 
ATOM     15  C   UNL     1       5.102   4.654  15.972  0.00  0.00    +0.000 A 
ATOM     16  O   UNL     1       4.019   4.583  16.786  0.00  0.00    +0.000 OA
ENDBRANCH   6   8
BRANCH   1  19
ATOM     17  O   UNL     1      -0.516   7.857  21.613  0.00  0.00    +0.000 OA
ATOM     18  C   UNL     1       0.348   8.623  21.203  0.00  0.00    +0.000 C 
ATOM     19  N   UNL     1       1.535   8.270  20.577  0.00  0.00    +0.000 N 
ATOM     20  H   UNL     1       2.243   8.988  20.482  0.00  0.00    +0.000 HD
BRANCH  18  21
ATOM     21  C   UNL     1       0.167  10.072  21.468  0.00  0.00    +0.000 A 
ATOM     22  C   UNL     1      -0.707  10.448  22.490  0.00  0.00    +0.000 A 
ATOM     23  C   UNL     1      -0.856  11.795  22.753  0.00  0.00    +0.000 A 
ATOM     24  N   UNL     1      -0.213  12.763  22.066  0.00  0.00    +0.000 NA
ATOM     25  C   UNL     1       0.600  12.371  21.062  0.00  0.00    +0.000 A 
ATOM     26  C   UNL     1       0.823  11.050  20.721  0.00  0.00    +0.000 A 
ENDBRANCH  18  21
ENDBRANCH   1  19
TORSDOF 3
ENDMDL
MODEL 5
REMARK VINA RESULT:      -8.2      1.808      1.961
REMARK  Name = 
REMARK  3 active torsions:
REMARK  status: ('A' for Active; 'I' for Inactive)
REMARK    1  A    between atoms: C_2  and  C_20
REMARK    2  A    between atoms: N_3  and  C_4
REMARK    3  A    between atoms: C_9  and  C_10
REMARK                            x       y       z     vdW  Elec       q    Type
REMARK                         _______ _______ _______ _____ _____    ______ ____
ROOT
ATOM      1  C   UNL     1       2.264   7.053  19.523  0.00  0.00    +0.000 A 
ATOM      2  C   UNL     1       2.034   6.054  20.464  0.00  0.00    +0.000 A 
ATOM      3  C   UNL     1       2.692   4.828  20.373  0.00  0.00    +0.000 A 
ATOM      4  C   UNL     1       3.582   4.579  19.326  0.00  0.00    +0.000 A 
ATOM      5 CL   UNL     1       4.421   3.066  19.394  0.00  0.00    +0.000 Cl
ATOM      6  C   UNL     1       3.794   5.547  18.330  0.00  0.00    +0.000 A 
ATOM      7  C   UNL     1       3.118   6.784  18.444  0.00  0.00    +0.000 A 
ENDROOT
BRANCH   6   8
ATOM      8  C   UNL     1       4.706   5.368  17.202  0.00  0.00    +0.000 A 
ATOM      9  N   UNL     1       5.874   5.948  16.983  0.00  0.00    +0.000 NA
ATOM     10  C   UNL     1       6.280   5.405  15.795  0.00  0.00    +0.000 A 
ATOM     11  N   UNL     1       7.441   5.651  15.146  0.00  0.00    +0.000 NA
ATOM     12  C   UNL     1       7.568   4.962  13.984  0.00  0.00    +0.000 A 
ATOM     13  C   UNL     1       6.633   4.074  13.449  0.00  0.00    +0.000 A 
ATOM     14  C   UNL     1       5.440   3.833  14.129  0.00  0.00    +0.000 A 
ATOM     15  C   UNL     1       5.316   4.538  15.315  0.00  0.00    +0.000 A 
ATOM     16  O   UNL     1       4.286   4.528  16.199  0.00  0.00    +0.000 OA
ENDBRANCH   6   8
BRANCH   1  19
ATOM     17  O   UNL     1       1.920   9.070  17.409  0.00  0.00    +0.000 OA
ATOM     18  C   UNL     1       1.568   9.246  18.570  0.00  0.00    +0.000 C 
ATOM     19  N   UNL     1       1.688   8.341  19.615  0.00  0.00    +0.000 N 
ATOM     20  H   UNL     1       1.170   8.538  20.463  0.00  0.00    +0.000 HD
BRANCH  18  21
ATOM     21  C   UNL     1       0.866  10.513  18.892  0.00  0.00    +0.000 A 
ATOM     22  C   UNL     1      -0.470  10.439  19.291  0.00  0.00    +0.000 A 
ATOM     23  C   UNL     1      -1.117  11.615  19.615  0.00  0.00    +0.000 A 
ATOM     24  N   UNL     1      -0.528  12.829  19.554  0.00  0.00    +0.000 NA
ATOM     25  C   UNL     1       0.755  12.873  19.134  0.00  0.00    +0.000 A 
ATOM     26  C   UNL     1       1.492  11.754  18.791  0.00  0.00    +0.000 A 
ENDBRANCH  18  21
ENDBRANCH   1  19
TORSDOF 3
ENDMDL
MODEL 6
REMARK VINA RESULT:      -8.1      1.250      1.727
REMARK  Name = 
REMARK  3 active torsions:
REMARK  status: ('A' for Active; 'I' for Inactive)
REMARK    1  A    between atoms: C_2  and  C_20
REMARK    2  A    between atoms: N_3  and  C_4
REMARK    3  A    between atoms: C_9  and  C_10
REMARK                            x       y       z     vdW  Elec       q    Type
REMARK                         _______ _______ _______ _____ _____    ______ ____
ROOT
ATOM      1  C   UNL     1       2.313   6.708  19.754  0.00  0.00    +0.000 A 
ATOM      2  C   UNL     1       1.997   5.615  20.556  0.00  0.00    +0.000 A 
ATOM      3  C   UNL     1       2.567   4.367  20.310  0.00  0.00    +0.000 A 
ATOM      4  C   UNL     1       3.454   4.190  19.246  0.00  0.00    +0.000 A 
ATOM      5 CL   UNL     1       4.181   2.625  19.122  0.00  0.00    +0.000 Cl
ATOM      6  C   UNL     1       3.750   5.261  18.386  0.00  0.00    +0.000 A 
ATOM      7  C   UNL     1       3.162   6.519  18.655  0.00  0.00    +0.000 A 
ENDROOT
BRANCH   6   8
ATOM      8  C   UNL     1       4.666   5.163  17.250  0.00  0.00    +0.000 A 
ATOM      9  N   UNL     1       5.815   5.788  17.059  0.00  0.00    +0.000 NA
ATOM     10  C   UNL     1       6.235   5.313  15.846  0.00  0.00    +0.000 A 
ATOM     11  N   UNL     1       7.387   5.625  15.208  0.00  0.00    +0.000 NA
ATOM     12  C   UNL     1       7.532   4.996  14.015  0.00  0.00    +0.000 A 
ATOM     13  C   UNL     1       6.623   4.107  13.439  0.00  0.00    +0.000 A 
ATOM     14  C   UNL     1       5.439   3.799  14.108  0.00  0.00    +0.000 A 
ATOM     15  C   UNL     1       5.296   4.442  15.326  0.00  0.00    +0.000 A 
ATOM     16  O   UNL     1       4.269   4.360  16.208  0.00  0.00    +0.000 OA
ENDBRANCH   6   8
BRANCH   1  19
ATOM     17  O   UNL     1       1.429   8.751  17.830  0.00  0.00    +0.000 OA
ATOM     18  C   UNL     1       1.438   8.928  19.043  0.00  0.00    +0.000 C 
ATOM     19  N   UNL     1       1.829   8.012  20.009  0.00  0.00    +0.000 N 
ATOM     20  H   UNL     1       1.587   8.217  20.970  0.00  0.00    +0.000 HD
BRANCH  18  21
ATOM     21  C   UNL     1       0.899  10.213  19.555  0.00  0.00    +0.000 A 
ATOM     22  C   UNL     1       1.206  11.380  18.853  0.00  0.00    +0.000 A 
ATOM     23  C   UNL     1       0.684  12.572  19.315  0.00  0.00    +0.000 A 
ATOM     24  N   UNL     1      -0.094  12.666  20.415  0.00  0.00    +0.000 NA
ATOM     25  C   UNL     1      -0.347  11.527  21.092  0.00  0.00    +0.000 A 
ATOM     26  C   UNL     1       0.123  10.283  20.711  0.00  0.00    +0.000 A 
ENDBRANCH  18  21
ENDBRANCH   1  19
TORSDOF 3
ENDMDL
MODEL 7
REMARK VINA RESULT:      -8.1      0.925      1.531
REMARK  Name = 
REMARK  3 active torsions:
REMARK  status: ('A' for Active; 'I' for Inactive)
REMARK    1  A    between atoms: C_2  and  C_20
REMARK    2  A    between atoms: N_3  and  C_4
REMARK    3  A    between atoms: C_9  and  C_10
REMARK                            x       y       z     vdW  Elec       q    Type
REMARK                         _______ _______ _______ _____ _____    ______ ____
ROOT
ATOM      1  C   UNL     1       1.811   5.389  20.512  0.00  0.00    +0.000 A 
ATOM      2  C   UNL     1       1.429   4.156  21.032  0.00  0.00    +0.000 A 
ATOM      3  C   UNL     1       1.939   2.973  20.499  0.00  0.00    +0.000 A 
ATOM      4  C   UNL     1       2.832   3.007  19.425  0.00  0.00    +0.000 A 
ATOM      5 CL   UNL     1       3.481   1.479  18.935  0.00  0.00    +0.000 Cl
ATOM      6  C   UNL     1       3.193   4.234  18.843  0.00  0.00    +0.000 A 
ATOM      7  C   UNL     1       2.665   5.421  19.401  0.00  0.00    +0.000 A 
ENDROOT
BRANCH   6   8
ATOM      8  C   UNL     1       4.118   4.359  17.718  0.00  0.00    +0.000 A 
ATOM      9  N   UNL     1       3.962   3.952  16.469  0.00  0.00    +0.000 NA
ATOM     10  C   UNL     1       5.127   4.335  15.863  0.00  0.00    +0.000 A 
ATOM     11  N   UNL     1       5.454   4.175  14.560  0.00  0.00    +0.000 NA
ATOM     12  C   UNL     1       6.683   4.656  14.247  0.00  0.00    +0.000 A 
ATOM     13  C   UNL     1       7.576   5.265  15.130  0.00  0.00    +0.000 A 
ATOM     14  C   UNL     1       7.225   5.421  16.471  0.00  0.00    +0.000 A 
ATOM     15  C   UNL     1       5.970   4.929  16.785  0.00  0.00    +0.000 A 
ATOM     16  O   UNL     1       5.342   4.923  17.988  0.00  0.00    +0.000 OA
ENDBRANCH   6   8
BRANCH   1  19
ATOM     17  O   UNL     1       1.925   8.079  19.325  0.00  0.00    +0.000 OA
ATOM     18  C   UNL     1       1.485   7.857  20.446  0.00  0.00    +0.000 C 
ATOM     19  N   UNL     1       1.389   6.620  21.067  0.00  0.00    +0.000 N 
ATOM     20  H   UNL     1       0.818   6.560  21.901  0.00  0.00    +0.000 HD
BRANCH  18  21
ATOM     21  C   UNL     1       0.913   9.000  21.200  0.00  0.00    +0.000 A 
ATOM     22  C   UNL     1       0.961  10.265  20.611  0.00  0.00    +0.000 A 
ATOM     23  C   UNL     1       0.406  11.325  21.301  0.00  0.00    +0.000 A 
ATOM     24  N   UNL     1      -0.167  11.201  22.518  0.00  0.00    +0.000 NA
ATOM     25  C   UNL     1      -0.170   9.973  23.078  0.00  0.00    +0.000 A 
ATOM     26  C   UNL     1       0.355   8.847  22.469  0.00  0.00    +0.000 A 
ENDBRANCH  18  21
ENDBRANCH   1  19
TORSDOF 3
ENDMDL
MODEL 8
REMARK VINA RESULT:      -8.0      1.023      1.264
REMARK  Name = 
REMARK  3 active torsions:
REMARK  status: ('A' for Active; 'I' for Inactive)
REMARK    1  A    between atoms: C_2  and  C_20
REMARK    2  A    between atoms: N_3  and  C_4
REMARK    3  A    between atoms: C_9  and  C_10
REMARK                            x       y       z     vdW  Elec       q    Type
REMARK                         _______ _______ _______ _____ _____    ______ ____
ROOT
ATOM      1  C   UNL     1       2.122   5.362  20.670  0.00  0.00    +0.000 A 
ATOM      2  C   UNL     1       2.011   4.191  21.413  0.00  0.00    +0.000 A 
ATOM      3  C   UNL     1       2.675   3.032  21.014  0.00  0.00    +0.000 A 
ATOM      4  C   UNL     1       3.452   3.025  19.854  0.00  0.00    +0.000 A 
ATOM      5 CL   UNL     1       4.317   1.560  19.534  0.00  0.00    +0.000 Cl
ATOM      6  C   UNL     1       3.539   4.176  19.053  0.00  0.00    +0.000 A 
ATOM      7  C   UNL     1       2.859   5.341  19.478  0.00  0.00    +0.000 A 
ENDROOT
BRANCH   6   8
ATOM      8  C   UNL     1       4.328   4.254  17.824  0.00  0.00    +0.000 A 
ATOM      9  N   UNL     1       3.978   3.918  16.594  0.00  0.00    +0.000 NA
ATOM     10  C   UNL     1       5.094   4.207  15.858  0.00  0.00    +0.000 A 
ATOM     11  N   UNL     1       5.241   4.068  14.520  0.00  0.00    +0.000 NA
ATOM     12  C   UNL     1       6.466   4.436  14.068  0.00  0.00    +0.000 A 
ATOM     13  C   UNL     1       7.519   4.916  14.849  0.00  0.00    +0.000 A 
ATOM     14  C   UNL     1       7.353   5.050  16.227  0.00  0.00    +0.000 A 
ATOM     15  C   UNL     1       6.101   4.673  16.683  0.00  0.00    +0.000 A 
ATOM     16  O   UNL     1       5.627   4.681  17.954  0.00  0.00    +0.000 OA
ENDBRANCH   6   8
BRANCH   1  19
ATOM     17  O   UNL     1       2.185   7.969  19.307  0.00  0.00    +0.000 OA
ATOM     18  C   UNL     1       1.620   7.784  20.379  0.00  0.00    +0.000 C 
ATOM     19  N   UNL     1       1.539   6.586  21.074  0.00  0.00    +0.000 N 
ATOM     20  H   UNL     1       0.869   6.531  21.831  0.00  0.00    +0.000 HD
BRANCH  18  21
ATOM     21  C   UNL     1       0.868   8.921  20.966  0.00  0.00    +0.000 A 
ATOM     22  C   UNL     1       0.525   8.852  22.318  0.00  0.00    +0.000 A 
ATOM     23  C   UNL     1      -0.152   9.921  22.871  0.00  0.00    +0.000 A 
ATOM     24  N   UNL     1      -0.509  11.018  22.170  0.00  0.00    +0.000 NA
ATOM     25  C   UNL     1      -0.193  11.043  20.858  0.00  0.00    +0.000 A 
ATOM     26  C   UNL     1       0.486  10.028  20.209  0.00  0.00    +0.000 A 
ENDBRANCH  18  21
ENDBRANCH   1  19
TORSDOF 3
ENDMDL
MODEL 9
REMARK VINA RESULT:      -7.9      1.459      1.788
REMARK  Name = 
REMARK  3 active torsions:
REMARK  status: ('A' for Active; 'I' for Inactive)
REMARK    1  A    between atoms: C_2  and  C_20
REMARK    2  A    between atoms: N_3  and  C_4
REMARK    3  A    between atoms: C_9  and  C_10
REMARK                            x       y       z     vdW  Elec       q    Type
REMARK                         _______ _______ _______ _____ _____    ______ ____
ROOT
ATOM      1  C   UNL     1       2.129   7.072  19.493  0.00  0.00    +0.000 A 
ATOM      2  C   UNL     1       1.957   6.118  20.491  0.00  0.00    +0.000 A 
ATOM      3  C   UNL     1       2.687   4.930  20.469  0.00  0.00    +0.000 A 
ATOM      4  C   UNL     1       3.593   4.674  19.437  0.00  0.00    +0.000 A 
ATOM      5 CL   UNL     1       4.519   3.220  19.590  0.00  0.00    +0.000 Cl
ATOM      6  C   UNL     1       3.747   5.594  18.386  0.00  0.00    +0.000 A 
ATOM      7  C   UNL     1       2.999   6.792  18.430  0.00  0.00    +0.000 A 
ENDROOT
BRANCH   6   8
ATOM      8  C   UNL     1       4.671   5.404  17.269  0.00  0.00    +0.000 A 
ATOM      9  N   UNL     1       5.850   5.967  17.066  0.00  0.00    +0.000 NA
ATOM     10  C   UNL     1       6.261   5.421  15.881  0.00  0.00    +0.000 A 
ATOM     11  N   UNL     1       7.434   5.652  15.246  0.00  0.00    +0.000 NA
ATOM     12  C   UNL     1       7.564   4.965  14.083  0.00  0.00    +0.000 A 
ATOM     13  C   UNL     1       6.622   4.093  13.534  0.00  0.00    +0.000 A 
ATOM     14  C   UNL     1       5.418   3.869  14.199  0.00  0.00    +0.000 A 
ATOM     15  C   UNL     1       5.290   4.571  15.386  0.00  0.00    +0.000 A 
ATOM     16  O   UNL     1       4.250   4.575  16.258  0.00  0.00    +0.000 OA
ENDBRANCH   6   8
BRANCH   1  19
ATOM     17  O   UNL     1       1.242   8.651  21.812  0.00  0.00    +0.000 OA
ATOM     18  C   UNL     1       1.078   9.010  20.652  0.00  0.00    +0.000 C 
ATOM     19  N   UNL     1       1.477   8.327  19.512  0.00  0.00    +0.000 N 
ATOM     20  H   UNL     1       1.465   8.836  18.636  0.00  0.00    +0.000 HD
BRANCH  18  21
ATOM     21  C   UNL     1       0.472  10.346  20.423  0.00  0.00    +0.000 A 
ATOM     22  C   UNL     1      -0.734  10.408  19.722  0.00  0.00    +0.000 A 
ATOM     23  C   UNL     1      -1.311  11.647  19.531  0.00  0.00    +0.000 A 
ATOM     24  N   UNL     1      -0.763  12.799  19.974  0.00  0.00    +0.000 NA
ATOM     25  C   UNL     1       0.420  12.712  20.620  0.00  0.00    +0.000 A 
ATOM     26  C   UNL     1       1.077  11.521  20.866  0.00  0.00    +0.000 A 
ENDBRANCH  18  21
ENDBRANCH   1  19
TORSDOF 3
ENDMDL
