MODEL 1
REMARK VINA RESULT:      -8.3      0.000      0.000
REMARK  Name = 
REMARK  5 active torsions:
REMARK  status: ('A' for Active; 'I' for Inactive)
REMARK    1  A    between atoms: C_1  and  C_2
REMARK    2  A    between atoms: C_5  and  N_6
REMARK    3  A    between atoms: C_7  and  C_9
REMARK    4  A    between atoms: C_9  and  C_10
REMARK    5  A    between atoms: C_10  and  C_11
REMARK                            x       y       z     vdW  Elec       q    Type
REMARK                         _______ _______ _______ _____ _____    ______ ____
ROOT
ATOM      1  C   UNL     1       7.959   6.864  18.417  0.00  0.00    +0.000 C 
ENDROOT
BRANCH   1   3
ATOM      2  N   UNL     1       8.986   8.944  19.144  0.00  0.00    +0.000 N 
ATOM      3  C   UNL     1       8.138   8.359  18.225  0.00  0.00    +0.000 C 
ATOM      4  O   UNL     1       7.554   8.925  17.304  0.00  0.00    +0.000 OA
ATOM      5  H   UNL     1       9.427   8.326  19.818  0.00  0.00    +0.000 HD
BRANCH   2  10
ATOM      6  C   UNL     1      10.600  14.447  19.483  0.00  0.00    +0.000 C 
ATOM      7  C   UNL     1      10.172  13.008  19.411  0.00  0.00    +0.000 A 
ATOM      8  C   UNL     1      10.254  12.332  18.190  0.00  0.00    +0.000 A 
ATOM      9  C   UNL     1       9.862  10.997  18.079  0.00  0.00    +0.000 A 
ATOM     10  C   UNL     1       9.383  10.298  19.188  0.00  0.00    +0.000 A 
ATOM     11  C   UNL     1       9.305  10.964  20.416  0.00  0.00    +0.000 A 
ATOM     12  C   UNL     1       9.690  12.307  20.525  0.00  0.00    +0.000 A 
ATOM     13 CL   UNL     1       9.550  13.066  22.072  0.00  0.00    +0.000 Cl
ENDBRANCH   2  10
ENDBRANCH   1   3
BRANCH   1  14
ATOM     14  C   UNL     1       7.377   6.281  17.131  0.00  0.00    +0.000 C 
BRANCH  14  15
ATOM     15  C   UNL     1       6.363   5.179  17.429  0.00  0.00    +0.000 C 
ATOM     16  O   UNL     1       6.784   4.134  17.940  0.00  0.00    +0.000 OA
ATOM     17  N   UNL     1       5.009   5.466  17.223  0.00  0.00    +0.000 N 
ATOM     18  C   UNL     1       4.496   6.701  16.605  0.00  0.00    +0.000 C 
ATOM     19  C   UNL     1       3.788   7.584  17.609  0.00  0.00    +0.000 C 
ATOM     20  S   UNL     1       2.280   6.791  18.229  0.00  0.00    +0.000 S 
ATOM     21  C   UNL     1       2.721   5.054  18.098  0.00  0.00    +0.000 A 
ATOM     22  C   UNL     1       1.724   4.155  18.512  0.00  0.00    +0.000 A 
ATOM     23  C   UNL     1       1.938   2.779  18.466  0.00  0.00    +0.000 A 
ATOM     24  C   UNL     1       3.153   2.289  18.007  0.00  0.00    +0.000 A 
ATOM     25  C   UNL     1       4.162   3.171  17.611  0.00  0.00    +0.000 A 
ATOM     26  C   UNL     1       3.969   4.561  17.653  0.00  0.00    +0.000 A 
ENDBRANCH  14  15
ENDBRANCH   1  14
TORSDOF 4
ENDMDL
MODEL 2
REMARK VINA RESULT:      -8.0      1.433      1.773
REMARK  Name = 
REMARK  5 active torsions:
REMARK  status: ('A' for Active; 'I' for Inactive)
REMARK    1  A    between atoms: C_1  and  C_2
REMARK    2  A    between atoms: C_5  and  N_6
REMARK    3  A    between atoms: C_7  and  C_9
REMARK    4  A    between atoms: C_9  and  C_10
REMARK    5  A    between atoms: C_10  and  C_11
REMARK                            x       y       z     vdW  Elec       q    Type
REMARK                         _______ _______ _______ _____ _____    ______ ____
ROOT
ATOM      1  C   UNL     1       7.557   7.194  17.791  0.00  0.00    +0.000 C 
ENDROOT
BRANCH   1   3
ATOM      2  N   UNL     1       8.851   8.929  18.897  0.00  0.00    +0.000 N 
ATOM      3  C   UNL     1       7.922   8.663  17.912  0.00  0.00    +0.000 C 
ATOM      4  O   UNL     1       7.400   9.480  17.157  0.00  0.00    +0.000 OA
ATOM      5  H   UNL     1       9.221   8.132  19.406  0.00  0.00    +0.000 HD
BRANCH   2  10
ATOM      6  C   UNL     1      11.160  14.070  20.013  0.00  0.00    +0.000 C 
ATOM      7  C   UNL     1      10.562  12.727  19.704  0.00  0.00    +0.000 A 
ATOM      8  C   UNL     1      10.020  11.965  20.744  0.00  0.00    +0.000 A 
ATOM      9  C   UNL     1       9.460  10.711  20.501  0.00  0.00    +0.000 A 
ATOM     10  C   UNL     1       9.418  10.184  19.209  0.00  0.00    +0.000 A 
ATOM     11  C   UNL     1       9.951  10.942  18.161  0.00  0.00    +0.000 A 
ATOM     12  C   UNL     1      10.521  12.198  18.406  0.00  0.00    +0.000 A 
ATOM     13 CL   UNL     1      11.173  13.068  17.062  0.00  0.00    +0.000 Cl
ENDBRANCH   2  10
ENDBRANCH   1   3
BRANCH   1  14
ATOM     14  C   UNL     1       6.114   7.096  17.301  0.00  0.00    +0.000 C 
BRANCH  14  15
ATOM     15  C   UNL     1       5.558   5.686  17.489  0.00  0.00    +0.000 C 
ATOM     16  O   UNL     1       6.350   4.741  17.412  0.00  0.00    +0.000 OA
ATOM     17  N   UNL     1       4.214   5.561  17.860  0.00  0.00    +0.000 N 
ATOM     18  C   UNL     1       3.257   6.677  17.945  0.00  0.00    +0.000 C 
ATOM     19  C   UNL     1       2.875   6.987  19.376  0.00  0.00    +0.000 C 
ATOM     20  S   UNL     1       1.954   5.614  20.120  0.00  0.00    +0.000 S 
ATOM     21  C   UNL     1       2.633   4.213  19.223  0.00  0.00    +0.000 A 
ATOM     22  C   UNL     1       2.100   2.963  19.580  0.00  0.00    +0.000 A 
ATOM     23  C   UNL     1       2.542   1.794  18.965  0.00  0.00    +0.000 A 
ATOM     24  C   UNL     1       3.524   1.863  17.986  0.00  0.00    +0.000 A 
ATOM     25  C   UNL     1       4.079   3.097  17.634  0.00  0.00    +0.000 A 
ATOM     26  C   UNL     1       3.651   4.287  18.245  0.00  0.00    +0.000 A 
ENDBRANCH  14  15
ENDBRANCH   1  14
TORSDOF 4
ENDMDL
MODEL 3
REMARK VINA RESULT:      -7.7      1.770      2.032
REMARK  Name = 
REMARK  5 active torsions:
REMARK  status: ('A' for Active; 'I' for Inactive)
REMARK    1  A    between atoms: C_1  and  C_2
REMARK    2  A    between atoms: C_5  and  N_6
REMARK    3  A    between atoms: C_7  and  C_9
REMARK    4  A    between atoms: C_9  and  C_10
REMARK    5  A    between atoms: C_10  and  C_11
REMARK                            x       y       z     vdW  Elec       q    Type
REMARK                         _______ _______ _______ _____ _____    ______ ____
ROOT
ATOM      1  C   UNL     1       6.763   7.481  17.286  0.00  0.00    +0.000 C 
ENDROOT
BRANCH   1   3
ATOM      2  N   UNL     1       8.075   9.455  17.828  0.00  0.00    +0.000 N 
ATOM      3  C   UNL     1       7.935   8.097  18.030  0.00  0.00    +0.000 C 
ATOM      4  O   UNL     1       8.644   7.385  18.738  0.00  0.00    +0.000 OA
ATOM      5  H   UNL     1       7.375   9.906  17.247  0.00  0.00    +0.000 HD
BRANCH   2  10
ATOM      6  C   UNL     1      11.995  12.987  20.101  0.00  0.00    +0.000 C 
ATOM      7  C   UNL     1      10.976  12.066  19.490  0.00  0.00    +0.000 A 
ATOM      8  C   UNL     1      10.167  11.292  20.327  0.00  0.00    +0.000 A 
ATOM      9  C   UNL     1       9.212  10.421  19.800  0.00  0.00    +0.000 A 
ATOM     10  C   UNL     1       9.033  10.305  18.421  0.00  0.00    +0.000 A 
ATOM     11  C   UNL     1       9.832  11.082  17.576  0.00  0.00    +0.000 A 
ATOM     12  C   UNL     1      10.797  11.950  18.104  0.00  0.00    +0.000 A 
ATOM     13 CL   UNL     1      11.757  12.865  16.995  0.00  0.00    +0.000 Cl
ENDBRANCH   2  10
ENDBRANCH   1   3
BRANCH   1  14
ATOM     14  C   UNL     1       7.090   6.016  17.003  0.00  0.00    +0.000 C 
BRANCH  14  15
ATOM     15  C   UNL     1       6.350   5.087  17.962  0.00  0.00    +0.000 C 
ATOM     16  O   UNL     1       7.028   4.379  18.715  0.00  0.00    +0.000 OA
ATOM     17  N   UNL     1       4.955   5.184  18.015  0.00  0.00    +0.000 N 
ATOM     18  C   UNL     1       4.134   6.013  17.116  0.00  0.00    +0.000 C 
ATOM     19  C   UNL     1       3.524   7.195  17.837  0.00  0.00    +0.000 C 
ATOM     20  S   UNL     1       2.325   6.652  19.084  0.00  0.00    +0.000 S 
ATOM     21  C   UNL     1       2.997   5.049  19.539  0.00  0.00    +0.000 A 
ATOM     22  C   UNL     1       2.265   4.353  20.515  0.00  0.00    +0.000 A 
ATOM     23  C   UNL     1       2.679   3.100  20.961  0.00  0.00    +0.000 A 
ATOM     24  C   UNL     1       3.832   2.531  20.437  0.00  0.00    +0.000 A 
ATOM     25  C   UNL     1       4.582   3.221  19.480  0.00  0.00    +0.000 A 
ATOM     26  C   UNL     1       4.185   4.487  19.019  0.00  0.00    +0.000 A 
ENDBRANCH  14  15
ENDBRANCH   1  14
TORSDOF 4
ENDMDL
MODEL 4
REMARK VINA RESULT:      -7.6      3.511      9.756
REMARK  Name = 
REMARK  5 active torsions:
REMARK  status: ('A' for Active; 'I' for Inactive)
REMARK    1  A    between atoms: C_1  and  C_2
REMARK    2  A    between atoms: C_5  and  N_6
REMARK    3  A    between atoms: C_7  and  C_9
REMARK    4  A    between atoms: C_9  and  C_10
REMARK    5  A    between atoms: C_10  and  C_11
REMARK                            x       y       z     vdW  Elec       q    Type
REMARK                         _______ _______ _______ _____ _____    ______ ____
ROOT
ATOM      1  C   UNL     1       8.411   9.434  17.744  0.00  0.00    +0.000 C 
ENDROOT
BRANCH   1   3
ATOM      2  N   UNL     1       6.683   7.831  17.151  0.00  0.00    +0.000 N 
ATOM      3  C   UNL     1       7.809   8.052  17.918  0.00  0.00    +0.000 C 
ATOM      4  O   UNL     1       8.340   7.252  18.685  0.00  0.00    +0.000 OA
ATOM      5  H   UNL     1       6.397   8.583  16.531  0.00  0.00    +0.000 HD
BRANCH   2  10
ATOM      6  C   UNL     1       3.525   3.042  16.835  0.00  0.00    +0.000 C 
ATOM      7  C   UNL     1       4.339   4.302  16.928  0.00  0.00    +0.000 A 
ATOM      8  C   UNL     1       5.631   4.322  16.394  0.00  0.00    +0.000 A 
ATOM      9  C   UNL     1       6.421   5.470  16.464  0.00  0.00    +0.000 A 
ATOM     10  C   UNL     1       5.939   6.635  17.063  0.00  0.00    +0.000 A 
ATOM     11  C   UNL     1       4.645   6.627  17.593  0.00  0.00    +0.000 A 
ATOM     12  C   UNL     1       3.854   5.472  17.531  0.00  0.00    +0.000 A 
ATOM     13 CL   UNL     1       2.270   5.536  18.221  0.00  0.00    +0.000 Cl
ENDBRANCH   2  10
ENDBRANCH   1   3
BRANCH   1  14
ATOM     14  C   UNL     1       9.154   9.800  19.028  0.00  0.00    +0.000 C 
BRANCH  14  15
ATOM     15  C   UNL     1       9.967  11.081  18.854  0.00  0.00    +0.000 C 
ATOM     16  O   UNL     1      10.337  11.376  17.712  0.00  0.00    +0.000 OA
ATOM     17  N   UNL     1      10.135  11.902  19.975  0.00  0.00    +0.000 N 
ATOM     18  C   UNL     1       9.710  11.557  21.342  0.00  0.00    +0.000 C 
ATOM     19  C   UNL     1       8.538  12.399  21.799  0.00  0.00    +0.000 C 
ATOM     20  S   UNL     1       9.006  14.143  21.954  0.00  0.00    +0.000 S 
ATOM     21  C   UNL     1      10.300  14.268  20.713  0.00  0.00    +0.000 A 
ATOM     22  C   UNL     1      10.885  15.540  20.590  0.00  0.00    +0.000 A 
ATOM     23  C   UNL     1      11.897  15.775  19.663  0.00  0.00    +0.000 A 
ATOM     24  C   UNL     1      12.333  14.741  18.846  0.00  0.00    +0.000 A 
ATOM     25  C   UNL     1      11.747  13.476  18.942  0.00  0.00    +0.000 A 
ATOM     26  C   UNL     1      10.722  13.218  19.867  0.00  0.00    +0.000 A 
ENDBRANCH  14  15
ENDBRANCH   1  14
TORSDOF 4
ENDMDL
MODEL 5
REMARK VINA RESULT:      -7.5      6.779      9.664
REMARK  Name = 
REMARK  5 active torsions:
REMARK  status: ('A' for Active; 'I' for Inactive)
REMARK    1  A    between atoms: C_1  and  C_2
REMARK    2  A    between atoms: C_5  and  N_6
REMARK    3  A    between atoms: C_7  and  C_9
REMARK    4  A    between atoms: C_9  and  C_10
REMARK    5  A    between atoms: C_10  and  C_11
REMARK                            x       y       z     vdW  Elec       q    Type
REMARK                         _______ _______ _______ _____ _____    ______ ____
ROOT
ATOM      1  C   UNL     1       1.713   9.454  17.943  0.00  0.00    +0.000 C 
ENDROOT
BRANCH   1   3
ATOM      2  N   UNL     1       2.627   7.203  17.983  0.00  0.00    +0.000 N 
ATOM      3  C   UNL     1       2.038   8.200  18.734  0.00  0.00    +0.000 C 
ATOM      4  O   UNL     1       1.779   8.157  19.934  0.00  0.00    +0.000 OA
ATOM      5  H   UNL     1       2.816   7.414  17.008  0.00  0.00    +0.000 HD
BRANCH   2  10
ATOM      6  C   UNL     1       4.350   2.044  19.835  0.00  0.00    +0.000 C 
ATOM      7  C   UNL     1       3.882   3.388  19.351  0.00  0.00    +0.000 A 
ATOM      8  C   UNL     1       4.813   4.419  19.195  0.00  0.00    +0.000 A 
ATOM      9  C   UNL     1       4.420   5.683  18.754  0.00  0.00    +0.000 A 
ATOM     10  C   UNL     1       3.085   5.951  18.448  0.00  0.00    +0.000 A 
ATOM     11  C   UNL     1       2.147   4.924  18.594  0.00  0.00    +0.000 A 
ATOM     12  C   UNL     1       2.540   3.656  19.046  0.00  0.00    +0.000 A 
ATOM     13 CL   UNL     1       1.321   2.442  19.216  0.00  0.00    +0.000 Cl
ENDBRANCH   2  10
ENDBRANCH   1   3
BRANCH   1  14
ATOM     14  C   UNL     1       0.834  10.355  18.811  0.00  0.00    +0.000 C 
BRANCH  14  15
ATOM     15  C   UNL     1      -0.569  10.491  18.226  0.00  0.00    +0.000 C 
ATOM     16  O   UNL     1      -0.958   9.609  17.452  0.00  0.00    +0.000 OA
ATOM     17  N   UNL     1      -1.371  11.538  18.695  0.00  0.00    +0.000 N 
ATOM     18  C   UNL     1      -0.917  12.602  19.607  0.00  0.00    +0.000 C 
ATOM     19  C   UNL     1      -1.535  12.471  20.982  0.00  0.00    +0.000 C 
ATOM     20  S   UNL     1      -3.328  12.735  20.921  0.00  0.00    +0.000 S 
ATOM     21  C   UNL     1      -3.707  12.170  19.259  0.00  0.00    +0.000 A 
ATOM     22  C   UNL     1      -5.062  12.255  18.896  0.00  0.00    +0.000 A 
ATOM     23  C   UNL     1      -5.492  11.845  17.636  0.00  0.00    +0.000 A 
ATOM     24  C   UNL     1      -4.572  11.343  16.727  0.00  0.00    +0.000 A 
ATOM     25  C   UNL     1      -3.224  11.233  17.080  0.00  0.00    +0.000 A 
ATOM     26  C   UNL     1      -2.769  11.636  18.345  0.00  0.00    +0.000 A 
ENDBRANCH  14  15
ENDBRANCH   1  14
TORSDOF 4
ENDMDL
MODEL 6
REMARK VINA RESULT:      -7.5      7.074      9.631
REMARK  Name = 
REMARK  5 active torsions:
REMARK  status: ('A' for Active; 'I' for Inactive)
REMARK    1  A    between atoms: C_1  and  C_2
REMARK    2  A    between atoms: C_5  and  N_6
REMARK    3  A    between atoms: C_7  and  C_9
REMARK    4  A    between atoms: C_9  and  C_10
REMARK    5  A    between atoms: C_10  and  C_11
REMARK                            x       y       z     vdW  Elec       q    Type
REMARK                         _______ _______ _______ _____ _____    ______ ____
ROOT
ATOM      1  C   UNL     1       0.863   9.619  19.397  0.00  0.00    +0.000 C 
ENDROOT
BRANCH   1   3
ATOM      2  N   UNL     1       2.214   7.671  18.858  0.00  0.00    +0.000 N 
ATOM      3  C   UNL     1       1.780   8.905  18.419  0.00  0.00    +0.000 C 
ATOM      4  O   UNL     1       2.055   9.440  17.347  0.00  0.00    +0.000 OA
ATOM      5  H   UNL     1       1.857   7.352  19.753  0.00  0.00    +0.000 HD
BRANCH   2  10
ATOM      6  C   UNL     1       5.414   3.852  15.998  0.00  0.00    +0.000 C 
ATOM      7  C   UNL     1       4.567   4.838  16.753  0.00  0.00    +0.000 A 
ATOM      8  C   UNL     1       4.936   6.186  16.764  0.00  0.00    +0.000 A 
ATOM      9  C   UNL     1       4.180   7.133  17.457  0.00  0.00    +0.000 A 
ATOM     10  C   UNL     1       3.029   6.760  18.152  0.00  0.00    +0.000 A 
ATOM     11  C   UNL     1       2.648   5.414  18.141  0.00  0.00    +0.000 A 
ATOM     12  C   UNL     1       3.412   4.461  17.452  0.00  0.00    +0.000 A 
ATOM     13 CL   UNL     1       2.885   2.815  17.496  0.00  0.00    +0.000 Cl
ENDBRANCH   2  10
ENDBRANCH   1   3
BRANCH   1  14
ATOM     14  C   UNL     1       0.458  10.959  18.785  0.00  0.00    +0.000 C 
BRANCH  14  15
ATOM     15  C   UNL     1      -1.003  10.949  18.344  0.00  0.00    +0.000 C 
ATOM     16  O   UNL     1      -1.377  10.024  17.614  0.00  0.00    +0.000 OA
ATOM     17  N   UNL     1      -1.855  11.915  18.892  0.00  0.00    +0.000 N 
ATOM     18  C   UNL     1      -1.421  13.028  19.753  0.00  0.00    +0.000 C 
ATOM     19  C   UNL     1      -1.882  12.851  21.183  0.00  0.00    +0.000 C 
ATOM     20  S   UNL     1      -3.689  12.934  21.303  0.00  0.00    +0.000 S 
ATOM     21  C   UNL     1      -4.174  12.316  19.688  0.00  0.00    +0.000 A 
ATOM     22  C   UNL     1      -5.560  12.262  19.464  0.00  0.00    +0.000 A 
ATOM     23  C   UNL     1      -6.072  11.798  18.254  0.00  0.00    +0.000 A 
ATOM     24  C   UNL     1      -5.202  11.380  17.256  0.00  0.00    +0.000 A 
ATOM     25  C   UNL     1      -3.821  11.409  17.472  0.00  0.00    +0.000 A 
ATOM     26  C   UNL     1      -3.284  11.869  18.685  0.00  0.00    +0.000 A 
ENDBRANCH  14  15
ENDBRANCH   1  14
TORSDOF 4
ENDMDL
MODEL 7
REMARK VINA RESULT:      -7.5      6.889     10.349
REMARK  Name = 
REMARK  5 active torsions:
REMARK  status: ('A' for Active; 'I' for Inactive)
REMARK    1  A    between atoms: C_1  and  C_2
REMARK    2  A    between atoms: C_5  and  N_6
REMARK    3  A    between atoms: C_7  and  C_9
REMARK    4  A    between atoms: C_9  and  C_10
REMARK    5  A    between atoms: C_10  and  C_11
REMARK                            x       y       z     vdW  Elec       q    Type
REMARK                         _______ _______ _______ _____ _____    ______ ____
ROOT
ATOM      1  C   UNL     1       1.189   8.733  21.809  0.00  0.00    +0.000 C 
ENDROOT
BRANCH   1   3
ATOM      2  N   UNL     1       1.778   6.470  21.148  0.00  0.00    +0.000 N 
ATOM      3  C   UNL     1       1.591   7.765  20.711  0.00  0.00    +0.000 C 
ATOM      4  O   UNL     1       1.709   8.174  19.558  0.00  0.00    +0.000 OA
ATOM      5  H   UNL     1       1.596   6.287  22.130  0.00  0.00    +0.000 HD
BRANCH   2  10
ATOM      6  C   UNL     1       3.257   1.946  17.931  0.00  0.00    +0.000 C 
ATOM      7  C   UNL     1       2.886   3.137  18.768  0.00  0.00    +0.000 A 
ATOM      8  C   UNL     1       1.605   3.209  19.323  0.00  0.00    +0.000 A 
ATOM      9  C   UNL     1       1.218   4.300  20.102  0.00  0.00    +0.000 A 
ATOM     10  C   UNL     1       2.104   5.348  20.356  0.00  0.00    +0.000 A 
ATOM     11  C   UNL     1       3.391   5.281  19.811  0.00  0.00    +0.000 A 
ATOM     12  C   UNL     1       3.777   4.190  19.021  0.00  0.00    +0.000 A 
ATOM     13 CL   UNL     1       5.379   4.186  18.371  0.00  0.00    +0.000 Cl
ENDBRANCH   2  10
ENDBRANCH   1   3
BRANCH   1  14
ATOM     14  C   UNL     1      -0.210   9.261  21.496  0.00  0.00    +0.000 C 
BRANCH  14  15
ATOM     15  C   UNL     1      -0.479  10.581  22.214  0.00  0.00    +0.000 C 
ATOM     16  O   UNL     1      -0.733  10.536  23.423  0.00  0.00    +0.000 OA
ATOM     17  N   UNL     1      -0.300  11.765  21.489  0.00  0.00    +0.000 N 
ATOM     18  C   UNL     1      -0.009  11.832  20.047  0.00  0.00    +0.000 C 
ATOM     19  C   UNL     1       1.404  12.301  19.776  0.00  0.00    +0.000 C 
ATOM     20  S   UNL     1       1.637  14.018  20.311  0.00  0.00    +0.000 S 
ATOM     21  C   UNL     1       0.462  14.123  21.666  0.00  0.00    +0.000 A 
ATOM     22  C   UNL     1       0.401  15.373  22.305  0.00  0.00    +0.000 A 
ATOM     23  C   UNL     1      -0.465  15.588  23.374  0.00  0.00    +0.000 A 
ATOM     24  C   UNL     1      -1.278  14.554  23.818  0.00  0.00    +0.000 A 
ATOM     25  C   UNL     1      -1.214  13.299  23.206  0.00  0.00    +0.000 A 
ATOM     26  C   UNL     1      -0.345  13.059  22.129  0.00  0.00    +0.000 A 
ENDBRANCH  14  15
ENDBRANCH   1  14
TORSDOF 4
ENDMDL
MODEL 8
REMARK VINA RESULT:      -7.4      6.564      9.371
REMARK  Name = 
REMARK  5 active torsions:
REMARK  status: ('A' for Active; 'I' for Inactive)
REMARK    1  A    between atoms: C_1  and  C_2
REMARK    2  A    between atoms: C_5  and  N_6
REMARK    3  A    between atoms: C_7  and  C_9
REMARK    4  A    between atoms: C_9  and  C_10
REMARK    5  A    between atoms: C_10  and  C_11
REMARK                            x       y       z     vdW  Elec       q    Type
REMARK                         _______ _______ _______ _____ _____    ______ ____
ROOT
ATOM      1  C   UNL     1       1.039   7.776  21.354  0.00  0.00    +0.000 C 
ENDROOT
BRANCH   1   3
ATOM      2  N   UNL     1       2.439   6.190  20.157  0.00  0.00    +0.000 N 
ATOM      3  C   UNL     1       1.882   7.452  20.133  0.00  0.00    +0.000 C 
ATOM      4  O   UNL     1       2.000   8.288  19.240  0.00  0.00    +0.000 OA
ATOM      5  H   UNL     1       2.206   5.601  20.951  0.00  0.00    +0.000 HD
BRANCH   2  10
ATOM      6  C   UNL     1       5.760   3.772  16.141  0.00  0.00    +0.000 C 
ATOM      7  C   UNL     1       4.906   4.412  17.199  0.00  0.00    +0.000 A 
ATOM      8  C   UNL     1       3.514   4.324  17.098  0.00  0.00    +0.000 A 
ATOM      9  C   UNL     1       2.685   4.909  18.056  0.00  0.00    +0.000 A 
ATOM     10  C   UNL     1       3.224   5.591  19.148  0.00  0.00    +0.000 A 
ATOM     11  C   UNL     1       4.615   5.678  19.262  0.00  0.00    +0.000 A 
ATOM     12  C   UNL     1       5.448   5.098  18.295  0.00  0.00    +0.000 A 
ATOM     13 CL   UNL     1       7.158   5.260  18.496  0.00  0.00    +0.000 Cl
ENDBRANCH   2  10
ENDBRANCH   1   3
BRANCH   1  14
ATOM     14  C   UNL     1       1.574   9.064  21.978  0.00  0.00    +0.000 C 
BRANCH  14  15
ATOM     15  C   UNL     1       0.440   9.931  22.520  0.00  0.00    +0.000 C 
ATOM     16  O   UNL     1       0.049   9.712  23.672  0.00  0.00    +0.000 OA
ATOM     17  N   UNL     1      -0.001  10.997  21.727  0.00  0.00    +0.000 N 
ATOM     18  C   UNL     1       0.449  11.262  20.349  0.00  0.00    +0.000 C 
ATOM     19  C   UNL     1       1.315  12.500  20.265  0.00  0.00    +0.000 C 
ATOM     20  S   UNL     1       0.366  13.991  20.670  0.00  0.00    +0.000 S 
ATOM     21  C   UNL     1      -0.858  13.327  21.805  0.00  0.00    +0.000 A 
ATOM     22  C   UNL     1      -1.774  14.267  22.308  0.00  0.00    +0.000 A 
ATOM     23  C   UNL     1      -2.772  13.885  23.202  0.00  0.00    +0.000 A 
ATOM     24  C   UNL     1      -2.864  12.560  23.603  0.00  0.00    +0.000 A 
ATOM     25  C   UNL     1      -1.948  11.617  23.128  0.00  0.00    +0.000 A 
ATOM     26  C   UNL     1      -0.931  11.981  22.230  0.00  0.00    +0.000 A 
ENDBRANCH  14  15
ENDBRANCH   1  14
TORSDOF 4
ENDMDL
MODEL 9
REMARK VINA RESULT:      -7.3      6.465      9.235
REMARK  Name = 
REMARK  5 active torsions:
REMARK  status: ('A' for Active; 'I' for Inactive)
REMARK    1  A    between atoms: C_1  and  C_2
REMARK    2  A    between atoms: C_5  and  N_6
REMARK    3  A    between atoms: C_7  and  C_9
REMARK    4  A    between atoms: C_9  and  C_10
REMARK    5  A    between atoms: C_10  and  C_11
REMARK                            x       y       z     vdW  Elec       q    Type
REMARK                         _______ _______ _______ _____ _____    ______ ____
ROOT
ATOM      1  C   UNL     1       0.829   9.591  20.445  0.00  0.00    +0.000 C 
ENDROOT
BRANCH   1   3
ATOM      2  N   UNL     1       1.937   8.138  18.843  0.00  0.00    +0.000 N 
ATOM      3  C   UNL     1       1.494   8.260  20.144  0.00  0.00    +0.000 C 
ATOM      4  O   UNL     1       1.600   7.421  21.036  0.00  0.00    +0.000 OA
ATOM      5  H   UNL     1       1.813   8.945  18.239  0.00  0.00    +0.000 HD
BRANCH   2  10
ATOM      6  C   UNL     1       4.903   3.773  16.572  0.00  0.00    +0.000 C 
ATOM      7  C   UNL     1       4.140   4.926  17.161  0.00  0.00    +0.000 A 
ATOM      8  C   UNL     1       2.852   4.709  17.660  0.00  0.00    +0.000 A 
ATOM      9  C   UNL     1       2.108   5.753  18.210  0.00  0.00    +0.000 A 
ATOM     10  C   UNL     1       2.633   7.044  18.284  0.00  0.00    +0.000 A 
ATOM     11  C   UNL     1       3.924   7.270  17.795  0.00  0.00    +0.000 A 
ATOM     12  C   UNL     1       4.668   6.223  17.234  0.00  0.00    +0.000 A 
ATOM     13 CL   UNL     1       6.250   6.583  16.637  0.00  0.00    +0.000 Cl
ENDBRANCH   2  10
ENDBRANCH   1   3
BRANCH   1  14
ATOM     14  C   UNL     1       0.942  10.476  19.205  0.00  0.00    +0.000 C 
BRANCH  14  15
ATOM     15  C   UNL     1      -0.382  10.540  18.446  0.00  0.00    +0.000 C 
ATOM     16  O   UNL     1      -0.635   9.627  17.653  0.00  0.00    +0.000 OA
ATOM     17  N   UNL     1      -1.278  11.560  18.787  0.00  0.00    +0.000 N 
ATOM     18  C   UNL     1      -0.986  12.660  19.722  0.00  0.00    +0.000 C 
ATOM     19  C   UNL     1      -1.765  12.528  21.012  0.00  0.00    +0.000 C 
ATOM     20  S   UNL     1      -3.545  12.713  20.722  0.00  0.00    +0.000 S 
ATOM     21  C   UNL     1      -3.690  12.100  19.040  0.00  0.00    +0.000 A 
ATOM     22  C   UNL     1      -4.991  12.120  18.510  0.00  0.00    +0.000 A 
ATOM     23  C   UNL     1      -5.243  11.667  17.217  0.00  0.00    +0.000 A 
ATOM     24  C   UNL     1      -4.197  11.188  16.441  0.00  0.00    +0.000 A 
ATOM     25  C   UNL     1      -2.900  11.143  16.961  0.00  0.00    +0.000 A 
ATOM     26  C   UNL     1      -2.624  11.590  18.264  0.00  0.00    +0.000 A 
ENDBRANCH  14  15
ENDBRANCH   1  14
TORSDOF 4
ENDMDL
