MODEL 1
REMARK VINA RESULT:      -7.4      0.000      0.000
REMARK  Name = 
REMARK  10 active torsions:
REMARK  status: ('A' for Active; 'I' for Inactive)
REMARK    1  A    between atoms: C_1  and  C_2
REMARK    2  A    between atoms: C_2  and  C_3
REMARK    3  A    between atoms: C_3  and  N_4
REMARK    4  A    between atoms: C_3  and  C_18
REMARK    5  A    between atoms: N_4  and  S_5
REMARK    6  A    between atoms: S_5  and  C_8
REMARK    7  A    between atoms: C_8  and  C_9
REMARK    8  A    between atoms: C_9  and  O_10
REMARK    9  A    between atoms: O_10  and  C_11
REMARK   10  A    between atoms: C_20  and  O_21
REMARK                            x       y       z     vdW  Elec       q    Type
REMARK                         _______ _______ _______ _____ _____    ______ ____
ROOT
ATOM      1  S   UNL     1       6.777   4.979  18.510  0.00  0.00    +0.000 S 
ATOM      2  O   UNL     1       6.529   5.298  19.898  0.00  0.00    +0.000 OA
ATOM      3  O   UNL     1       7.967   4.266  18.099  0.00  0.00    +0.000 OA
ENDROOT
BRANCH   1   4
ATOM      4  N   UNL     1       5.442   4.080  17.972  0.00  0.00    +0.000 NA
ATOM      5  H   UNL     1       5.332   4.173  16.961  0.00  0.00    +0.000 HD
BRANCH   4   6
ATOM      6  C   UNL     1       4.156   4.420  18.692  0.00  0.00    +0.000 C 
BRANCH   6   7
ATOM      7  C   UNL     1       3.437   3.173  19.237  0.00  0.00    +0.000 C 
ATOM      8  C   UNL     1       3.793   2.587  20.625  0.00  0.00    +0.000 C 
ATOM      9  C   UNL     1       2.484   3.179  21.185  0.00  0.00    +0.000 C 
ATOM     10  C   UNL     1       1.977   3.323  19.734  0.00  0.00    +0.000 C 
BRANCH   9  11
ATOM     11  O   UNL     1       1.717   2.326  22.054  0.00  0.00    +0.000 OA
ATOM     12  H   UNL     1       1.893   1.416  21.759  0.00  0.00    +0.000 HD
ENDBRANCH   9  11
ENDBRANCH   6   7
BRANCH   6  14
ATOM     13  C   UNL     1       2.965   6.668  18.162  0.00  0.00    +0.000 C 
ATOM     14  C   UNL     1       3.242   5.233  17.749  0.00  0.00    +0.000 C 
ENDBRANCH   6  14
ENDBRANCH   4   6
ENDBRANCH   1   4
BRANCH   1  15
ATOM     15  C   UNL     1       6.693   6.526  17.600  0.00  0.00    +0.000 C 
BRANCH  15  16
ATOM     16  C   UNL     1       6.293   6.142  16.179  0.00  0.00    +0.000 C 
BRANCH  16  17
ATOM     17  O   UNL     1       7.405   5.744  15.376  0.00  0.00    +0.000 OA
BRANCH  17  18
ATOM     18  C   UNL     1       7.062   5.039  14.239  0.00  0.00    +0.000 A 
ATOM     19  C   UNL     1       5.930   4.227  14.367  0.00  0.00    +0.000 A 
ATOM     20  C   UNL     1       5.481   3.452  13.291  0.00  0.00    +0.000 A 
ATOM     21  C   UNL     1       6.157   3.477  12.073  0.00  0.00    +0.000 A 
ATOM     22  C   UNL     1       7.283   4.281  11.931  0.00  0.00    +0.000 A 
ATOM     23  C   UNL     1       7.724   5.056  13.002  0.00  0.00    +0.000 A 
ATOM     24  F   UNL     1       8.812   5.811  12.787  0.00  0.00    +0.000 F 
ENDBRANCH  17  18
ENDBRANCH  16  17
ENDBRANCH  15  16
ENDBRANCH   1  15
TORSDOF 9
ENDMDL
MODEL 2
REMARK VINA RESULT:      -7.2      1.214      1.750
REMARK  Name = 
REMARK  10 active torsions:
REMARK  status: ('A' for Active; 'I' for Inactive)
REMARK    1  A    between atoms: C_1  and  C_2
REMARK    2  A    between atoms: C_2  and  C_3
REMARK    3  A    between atoms: C_3  and  N_4
REMARK    4  A    between atoms: C_3  and  C_18
REMARK    5  A    between atoms: N_4  and  S_5
REMARK    6  A    between atoms: S_5  and  C_8
REMARK    7  A    between atoms: C_8  and  C_9
REMARK    8  A    between atoms: C_9  and  O_10
REMARK    9  A    between atoms: O_10  and  C_11
REMARK   10  A    between atoms: C_20  and  O_21
REMARK                            x       y       z     vdW  Elec       q    Type
REMARK                         _______ _______ _______ _____ _____    ______ ____
ROOT
ATOM      1  S   UNL     1       5.561   5.230  18.880  0.00  0.00    +0.000 S 
ATOM      2  O   UNL     1       4.825   6.379  18.404  0.00  0.00    +0.000 OA
ATOM      3  O   UNL     1       6.529   5.342  19.951  0.00  0.00    +0.000 OA
ENDROOT
BRANCH   1   4
ATOM      4  N   UNL     1       4.409   4.081  19.364  0.00  0.00    +0.000 NA
ATOM      5  H   UNL     1       4.736   3.137  19.156  0.00  0.00    +0.000 HD
BRANCH   4   6
ATOM      6  C   UNL     1       3.035   4.323  18.781  0.00  0.00    +0.000 C 
BRANCH   6   7
ATOM      7  C   UNL     1       1.929   4.313  19.851  0.00  0.00    +0.000 C 
ATOM      8  C   UNL     1       1.036   3.067  20.066  0.00  0.00    +0.000 C 
ATOM      9  C   UNL     1       1.824   2.752  21.353  0.00  0.00    +0.000 C 
ATOM     10  C   UNL     1       2.345   4.205  21.340  0.00  0.00    +0.000 C 
BRANCH   9  11
ATOM     11  O   UNL     1       1.047   2.357  22.497  0.00  0.00    +0.000 OA
ATOM     12  H   UNL     1       0.173   2.102  22.153  0.00  0.00    +0.000 HD
ENDBRANCH   9  11
ENDBRANCH   6   7
BRANCH   6  14
ATOM     13  C   UNL     1       3.490   1.955  17.810  0.00  0.00    +0.000 C 
ATOM     14  C   UNL     1       2.760   3.281  17.675  0.00  0.00    +0.000 C 
ENDBRANCH   6  14
ENDBRANCH   4   6
ENDBRANCH   1   4
BRANCH   1  15
ATOM     15  C   UNL     1       6.371   4.503  17.451  0.00  0.00    +0.000 C 
BRANCH  15  16
ATOM     16  C   UNL     1       6.215   5.526  16.330  0.00  0.00    +0.000 C 
BRANCH  16  17
ATOM     17  O   UNL     1       7.308   5.515  15.410  0.00  0.00    +0.000 OA
BRANCH  17  18
ATOM     18  C   UNL     1       7.026   4.913  14.200  0.00  0.00    +0.000 A 
ATOM     19  C   UNL     1       5.894   4.090  14.199  0.00  0.00    +0.000 A 
ATOM     20  C   UNL     1       5.503   3.413  13.037  0.00  0.00    +0.000 A 
ATOM     21  C   UNL     1       6.238   3.548  11.861  0.00  0.00    +0.000 A 
ATOM     22  C   UNL     1       7.364   4.365  11.846  0.00  0.00    +0.000 A 
ATOM     23  C   UNL     1       7.747   5.042  13.003  0.00  0.00    +0.000 A 
ATOM     24  F   UNL     1       8.838   5.817  12.910  0.00  0.00    +0.000 F 
ENDBRANCH  17  18
ENDBRANCH  16  17
ENDBRANCH  15  16
ENDBRANCH   1  15
TORSDOF 9
ENDMDL
MODEL 3
REMARK VINA RESULT:      -6.9      1.595      1.916
REMARK  Name = 
REMARK  10 active torsions:
REMARK  status: ('A' for Active; 'I' for Inactive)
REMARK    1  A    between atoms: C_1  and  C_2
REMARK    2  A    between atoms: C_2  and  C_3
REMARK    3  A    between atoms: C_3  and  N_4
REMARK    4  A    between atoms: C_3  and  C_18
REMARK    5  A    between atoms: N_4  and  S_5
REMARK    6  A    between atoms: S_5  and  C_8
REMARK    7  A    between atoms: C_8  and  C_9
REMARK    8  A    between atoms: C_9  and  O_10
REMARK    9  A    between atoms: O_10  and  C_11
REMARK   10  A    between atoms: C_20  and  O_21
REMARK                            x       y       z     vdW  Elec       q    Type
REMARK                         _______ _______ _______ _____ _____    ______ ____
ROOT
ATOM      1  S   UNL     1       4.964   4.722  18.101  0.00  0.00    +0.000 S 
ATOM      2  O   UNL     1       5.155   4.414  19.500  0.00  0.00    +0.000 OA
ATOM      3  O   UNL     1       4.783   3.677  17.115  0.00  0.00    +0.000 OA
ENDROOT
BRANCH   1   4
ATOM      4  N   UNL     1       3.610   5.740  18.007  0.00  0.00    +0.000 NA
ATOM      5  H   UNL     1       3.889   6.682  17.732  0.00  0.00    +0.000 HD
BRANCH   4   6
ATOM      6  C   UNL     1       2.786   5.765  19.275  0.00  0.00    +0.000 C 
BRANCH   6   7
ATOM      7  C   UNL     1       1.616   4.765  19.239  0.00  0.00    +0.000 C 
ATOM      8  C   UNL     1       1.377   3.859  18.006  0.00  0.00    +0.000 C 
ATOM      9  C   UNL     1       1.938   2.665  18.804  0.00  0.00    +0.000 C 
ATOM     10  C   UNL     1       1.720   3.478  20.097  0.00  0.00    +0.000 C 
BRANCH   9  11
ATOM     11  O   UNL     1       1.215   1.426  18.692  0.00  0.00    +0.000 OA
ATOM     12  H   UNL     1       0.737   1.317  19.532  0.00  0.00    +0.000 HD
ENDBRANCH   9  11
ENDBRANCH   6   7
BRANCH   6  14
ATOM     13  C   UNL     1       2.353   8.155  18.349  0.00  0.00    +0.000 C 
ATOM     14  C   UNL     1       2.290   7.204  19.533  0.00  0.00    +0.000 C 
ENDBRANCH   6  14
ENDBRANCH   4   6
ENDBRANCH   1   4
BRANCH   1  15
ATOM     15  C   UNL     1       6.352   5.746  17.601  0.00  0.00    +0.000 C 
BRANCH  15  16
ATOM     16  C   UNL     1       7.154   4.897  16.620  0.00  0.00    +0.000 C 
BRANCH  16  17
ATOM     17  O   UNL     1       7.504   5.604  15.429  0.00  0.00    +0.000 OA
BRANCH  17  18
ATOM     18  C   UNL     1       7.120   4.975  14.261  0.00  0.00    +0.000 A 
ATOM     19  C   UNL     1       5.968   4.187  14.365  0.00  0.00    +0.000 A 
ATOM     20  C   UNL     1       5.477   3.488  13.256  0.00  0.00    +0.000 A 
ATOM     21  C   UNL     1       6.131   3.564  12.028  0.00  0.00    +0.000 A 
ATOM     22  C   UNL     1       7.276   4.346  11.909  0.00  0.00    +0.000 A 
ATOM     23  C   UNL     1       7.759   5.045  13.013  0.00  0.00    +0.000 A 
ATOM     24  F   UNL     1       8.862   5.782  12.820  0.00  0.00    +0.000 F 
ENDBRANCH  17  18
ENDBRANCH  16  17
ENDBRANCH  15  16
ENDBRANCH   1  15
TORSDOF 9
ENDMDL
MODEL 4
REMARK VINA RESULT:      -6.9      1.284      1.561
REMARK  Name = 
REMARK  10 active torsions:
REMARK  status: ('A' for Active; 'I' for Inactive)
REMARK    1  A    between atoms: C_1  and  C_2
REMARK    2  A    between atoms: C_2  and  C_3
REMARK    3  A    between atoms: C_3  and  N_4
REMARK    4  A    between atoms: C_3  and  C_18
REMARK    5  A    between atoms: N_4  and  S_5
REMARK    6  A    between atoms: S_5  and  C_8
REMARK    7  A    between atoms: C_8  and  C_9
REMARK    8  A    between atoms: C_9  and  O_10
REMARK    9  A    between atoms: O_10  and  C_11
REMARK   10  A    between atoms: C_20  and  O_21
REMARK                            x       y       z     vdW  Elec       q    Type
REMARK                         _______ _______ _______ _____ _____    ______ ____
ROOT
ATOM      1  S   UNL     1       6.521   5.138  18.939  0.00  0.00    +0.000 S 
ATOM      2  O   UNL     1       5.648   6.128  18.349  0.00  0.00    +0.000 OA
ATOM      3  O   UNL     1       7.175   5.367  20.209  0.00  0.00    +0.000 OA
ENDROOT
BRANCH   1   4
ATOM      4  N   UNL     1       5.608   3.716  19.094  0.00  0.00    +0.000 NA
ATOM      5  H   UNL     1       5.915   3.018  18.415  0.00  0.00    +0.000 HD
BRANCH   4   6
ATOM      6  C   UNL     1       4.116   3.944  19.004  0.00  0.00    +0.000 C 
BRANCH   6   7
ATOM      7  C   UNL     1       3.440   3.986  20.386  0.00  0.00    +0.000 C 
ATOM      8  C   UNL     1       1.944   4.354  20.534  0.00  0.00    +0.000 C 
ATOM      9  C   UNL     1       1.627   2.867  20.791  0.00  0.00    +0.000 C 
ATOM     10  C   UNL     1       3.123   2.643  21.093  0.00  0.00    +0.000 C 
BRANCH   9  11
ATOM     11  O   UNL     1       0.705   2.587  21.860  0.00  0.00    +0.000 OA
ATOM     12  H   UNL     1      -0.126   3.034  21.622  0.00  0.00    +0.000 HD
ENDBRANCH   9  11
ENDBRANCH   6   7
BRANCH   6  14
ATOM     13  C   UNL     1       2.418   3.337  17.132  0.00  0.00    +0.000 C 
ATOM     14  C   UNL     1       3.487   2.861  18.101  0.00  0.00    +0.000 C 
ENDBRANCH   6  14
ENDBRANCH   4   6
ENDBRANCH   1   4
BRANCH   1  15
ATOM     15  C   UNL     1       7.774   4.755  17.711  0.00  0.00    +0.000 C 
BRANCH  15  16
ATOM     16  C   UNL     1       7.007   4.413  16.437  0.00  0.00    +0.000 C 
BRANCH  16  17
ATOM     17  O   UNL     1       7.264   5.328  15.371  0.00  0.00    +0.000 OA
BRANCH  17  18
ATOM     18  C   UNL     1       7.014   4.819  14.112  0.00  0.00    +0.000 A 
ATOM     19  C   UNL     1       5.897   3.980  14.025  0.00  0.00    +0.000 A 
ATOM     20  C   UNL     1       5.539   3.390  12.807  0.00  0.00    +0.000 A 
ATOM     21  C   UNL     1       6.293   3.628  11.659  0.00  0.00    +0.000 A 
ATOM     22  C   UNL     1       7.404   4.462  11.730  0.00  0.00    +0.000 A 
ATOM     23  C   UNL     1       7.755   5.052  12.943  0.00  0.00    +0.000 A 
ATOM     24  F   UNL     1       8.834   5.848  12.931  0.00  0.00    +0.000 F 
ENDBRANCH  17  18
ENDBRANCH  16  17
ENDBRANCH  15  16
ENDBRANCH   1  15
TORSDOF 9
ENDMDL
MODEL 5
REMARK VINA RESULT:      -6.7      1.678      2.211
REMARK  Name = 
REMARK  10 active torsions:
REMARK  status: ('A' for Active; 'I' for Inactive)
REMARK    1  A    between atoms: C_1  and  C_2
REMARK    2  A    between atoms: C_2  and  C_3
REMARK    3  A    between atoms: C_3  and  N_4
REMARK    4  A    between atoms: C_3  and  C_18
REMARK    5  A    between atoms: N_4  and  S_5
REMARK    6  A    between atoms: S_5  and  C_8
REMARK    7  A    between atoms: C_8  and  C_9
REMARK    8  A    between atoms: C_9  and  O_10
REMARK    9  A    between atoms: O_10  and  C_11
REMARK   10  A    between atoms: C_20  and  O_21
REMARK                            x       y       z     vdW  Elec       q    Type
REMARK                         _______ _______ _______ _____ _____    ______ ____
ROOT
ATOM      1  S   UNL     1       5.561   4.620  18.757  0.00  0.00    +0.000 S 
ATOM      2  O   UNL     1       5.761   5.541  19.853  0.00  0.00    +0.000 OA
ATOM      3  O   UNL     1       5.266   3.222  18.989  0.00  0.00    +0.000 OA
ENDROOT
BRANCH   1   4
ATOM      4  N   UNL     1       4.297   5.250  17.816  0.00  0.00    +0.000 NA
ATOM      5  H   UNL     1       4.658   5.625  16.937  0.00  0.00    +0.000 HD
BRANCH   4   6
ATOM      6  C   UNL     1       3.459   6.278  18.543  0.00  0.00    +0.000 C 
BRANCH   6   7
ATOM      7  C   UNL     1       2.081   5.732  18.955  0.00  0.00    +0.000 C 
ATOM      8  C   UNL     1       1.698   4.254  18.700  0.00  0.00    +0.000 C 
ATOM      9  C   UNL     1       1.892   3.968  20.202  0.00  0.00    +0.000 C 
ATOM     10  C   UNL     1       1.806   5.487  20.461  0.00  0.00    +0.000 C 
BRANCH   9  11
ATOM     11  O   UNL     1       0.890   3.149  20.831  0.00  0.00    +0.000 OA
ATOM     12  H   UNL     1       1.209   2.233  20.762  0.00  0.00    +0.000 HD
ENDBRANCH   9  11
ENDBRANCH   6   7
BRANCH   6  14
ATOM     13  C   UNL     1       2.059   8.357  17.855  0.00  0.00    +0.000 C 
ATOM     14  C   UNL     1       3.327   7.541  17.665  0.00  0.00    +0.000 C 
ENDBRANCH   6  14
ENDBRANCH   4   6
ENDBRANCH   1   4
BRANCH   1  15
ATOM     15  C   UNL     1       7.019   4.732  17.713  0.00  0.00    +0.000 C 
BRANCH  15  16
ATOM     16  C   UNL     1       6.613   5.618  16.540  0.00  0.00    +0.000 C 
BRANCH  16  17
ATOM     17  O   UNL     1       7.535   5.555  15.451  0.00  0.00    +0.000 OA
BRANCH  17  18
ATOM     18  C   UNL     1       7.057   4.890  14.339  0.00  0.00    +0.000 A 
ATOM     19  C   UNL     1       7.780   5.112  13.161  0.00  0.00    +0.000 A 
ATOM     20  C   UNL     1       7.394   4.505  11.960  0.00  0.00    +0.000 A 
ATOM     21  C   UNL     1       6.280   3.669  11.919  0.00  0.00    +0.000 A 
ATOM     22  C   UNL     1       5.553   3.437  13.082  0.00  0.00    +0.000 A 
ATOM     23  C   UNL     1       5.943   4.038  14.277  0.00  0.00    +0.000 A 
ATOM     24  F   UNL     1       5.198   3.762  15.358  0.00  0.00    +0.000 F 
ENDBRANCH  17  18
ENDBRANCH  16  17
ENDBRANCH  15  16
ENDBRANCH   1  15
TORSDOF 9
ENDMDL
MODEL 6
REMARK VINA RESULT:      -6.6      1.899      2.334
REMARK  Name = 
REMARK  10 active torsions:
REMARK  status: ('A' for Active; 'I' for Inactive)
REMARK    1  A    between atoms: C_1  and  C_2
REMARK    2  A    between atoms: C_2  and  C_3
REMARK    3  A    between atoms: C_3  and  N_4
REMARK    4  A    between atoms: C_3  and  C_18
REMARK    5  A    between atoms: N_4  and  S_5
REMARK    6  A    between atoms: S_5  and  C_8
REMARK    7  A    between atoms: C_8  and  C_9
REMARK    8  A    between atoms: C_9  and  O_10
REMARK    9  A    between atoms: O_10  and  C_11
REMARK   10  A    between atoms: C_20  and  O_21
REMARK                            x       y       z     vdW  Elec       q    Type
REMARK                         _______ _______ _______ _____ _____    ______ ____
ROOT
ATOM      1  S   UNL     1       5.878   4.767  18.796  0.00  0.00    +0.000 S 
ATOM      2  O   UNL     1       6.494   5.751  19.659  0.00  0.00    +0.000 OA
ATOM      3  O   UNL     1       5.395   3.505  19.314  0.00  0.00    +0.000 OA
ENDROOT
BRANCH   1   4
ATOM      4  N   UNL     1       4.566   5.536  18.042  0.00  0.00    +0.000 NA
ATOM      5  H   UNL     1       4.840   6.457  17.699  0.00  0.00    +0.000 HD
BRANCH   4   6
ATOM      6  C   UNL     1       3.335   5.623  18.916  0.00  0.00    +0.000 C 
BRANCH   6   7
ATOM      7  C   UNL     1       2.154   4.811  18.355  0.00  0.00    +0.000 C 
ATOM      8  C   UNL     1       2.389   3.508  17.553  0.00  0.00    +0.000 C 
ATOM      9  C   UNL     1       1.933   2.696  18.782  0.00  0.00    +0.000 C 
ATOM     10  C   UNL     1       1.293   3.984  19.343  0.00  0.00    +0.000 C 
BRANCH   9  11
ATOM     11  O   UNL     1       1.045   1.594  18.526  0.00  0.00    +0.000 OA
ATOM     12  H   UNL     1       0.289   1.966  18.039  0.00  0.00    +0.000 HD
ENDBRANCH   9  11
ENDBRANCH   6   7
BRANCH   6  14
ATOM     13  C   UNL     1       2.236   7.775  17.957  0.00  0.00    +0.000 C 
ATOM     14  C   UNL     1       2.957   7.106  19.116  0.00  0.00    +0.000 C 
ENDBRANCH   6  14
ENDBRANCH   4   6
ENDBRANCH   1   4
BRANCH   1  15
ATOM     15  C   UNL     1       7.046   4.434  17.473  0.00  0.00    +0.000 C 
BRANCH  15  16
ATOM     16  C   UNL     1       7.339   5.789  16.837  0.00  0.00    +0.000 C 
BRANCH  16  17
ATOM     17  O   UNL     1       6.410   6.132  15.806  0.00  0.00    +0.000 OA
BRANCH  17  18
ATOM     18  C   UNL     1       6.463   5.311  14.697  0.00  0.00    +0.000 A 
ATOM     19  C   UNL     1       7.540   5.551  13.836  0.00  0.00    +0.000 A 
ATOM     20  C   UNL     1       7.704   4.794  12.669  0.00  0.00    +0.000 A 
ATOM     21  C   UNL     1       6.795   3.789  12.346  0.00  0.00    +0.000 A 
ATOM     22  C   UNL     1       5.721   3.538  13.195  0.00  0.00    +0.000 A 
ATOM     23  C   UNL     1       5.563   4.289  14.358  0.00  0.00    +0.000 A 
ATOM     24  F   UNL     1       4.509   3.985  15.129  0.00  0.00    +0.000 F 
ENDBRANCH  17  18
ENDBRANCH  16  17
ENDBRANCH  15  16
ENDBRANCH   1  15
TORSDOF 9
ENDMDL
MODEL 7
REMARK VINA RESULT:      -6.6      1.273      1.556
REMARK  Name = 
REMARK  10 active torsions:
REMARK  status: ('A' for Active; 'I' for Inactive)
REMARK    1  A    between atoms: C_1  and  C_2
REMARK    2  A    between atoms: C_2  and  C_3
REMARK    3  A    between atoms: C_3  and  N_4
REMARK    4  A    between atoms: C_3  and  C_18
REMARK    5  A    between atoms: N_4  and  S_5
REMARK    6  A    between atoms: S_5  and  C_8
REMARK    7  A    between atoms: C_8  and  C_9
REMARK    8  A    between atoms: C_9  and  O_10
REMARK    9  A    between atoms: O_10  and  C_11
REMARK   10  A    between atoms: C_20  and  O_21
REMARK                            x       y       z     vdW  Elec       q    Type
REMARK                         _______ _______ _______ _____ _____    ______ ____
ROOT
ATOM      1  S   UNL     1       6.362   5.216  18.556  0.00  0.00    +0.000 S 
ATOM      2  O   UNL     1       6.552   5.474  19.965  0.00  0.00    +0.000 OA
ATOM      3  O   UNL     1       6.758   3.959  17.958  0.00  0.00    +0.000 OA
ENDROOT
BRANCH   1   4
ATOM      4  N   UNL     1       4.707   5.422  18.242  0.00  0.00    +0.000 NA
ATOM      5  H   UNL     1       4.527   6.355  17.869  0.00  0.00    +0.000 HD
BRANCH   4   6
ATOM      6  C   UNL     1       3.827   5.134  19.437  0.00  0.00    +0.000 C 
BRANCH   6   7
ATOM      7  C   UNL     1       3.098   3.783  19.322  0.00  0.00    +0.000 C 
ATOM      8  C   UNL     1       3.192   2.932  18.032  0.00  0.00    +0.000 C 
ATOM      9  C   UNL     1       4.155   1.974  18.761  0.00  0.00    +0.000 C 
ATOM     10  C   UNL     1       3.668   2.570  20.099  0.00  0.00    +0.000 C 
BRANCH   9  11
ATOM     11  O   UNL     1       3.929   0.567  18.562  0.00  0.00    +0.000 OA
ATOM     12  H   UNL     1       4.323   0.351  17.699  0.00  0.00    +0.000 HD
ENDBRANCH   9  11
ENDBRANCH   6   7
BRANCH   6  14
ATOM     13  C   UNL     1       2.368   6.998  18.362  0.00  0.00    +0.000 C 
ATOM     14  C   UNL     1       2.831   6.298  19.629  0.00  0.00    +0.000 C 
ENDBRANCH   6  14
ENDBRANCH   4   6
ENDBRANCH   1   4
BRANCH   1  15
ATOM     15  C   UNL     1       7.174   6.552  17.670  0.00  0.00    +0.000 C 
BRANCH  15  16
ATOM     16  C   UNL     1       6.747   6.394  16.214  0.00  0.00    +0.000 C 
BRANCH  16  17
ATOM     17  O   UNL     1       7.725   5.722  15.418  0.00  0.00    +0.000 OA
BRANCH  17  18
ATOM     18  C   UNL     1       7.208   5.055  14.325  0.00  0.00    +0.000 A 
ATOM     19  C   UNL     1       6.052   4.309  14.581  0.00  0.00    +0.000 A 
ATOM     20  C   UNL     1       5.433   3.577  13.560  0.00  0.00    +0.000 A 
ATOM     21  C   UNL     1       5.960   3.581  12.270  0.00  0.00    +0.000 A 
ATOM     22  C   UNL     1       7.107   4.320  12.001  0.00  0.00    +0.000 A 
ATOM     23  C   UNL     1       7.718   5.051  13.018  0.00  0.00    +0.000 A 
ATOM     24  F   UNL     1       8.815   5.745  12.680  0.00  0.00    +0.000 F 
ENDBRANCH  17  18
ENDBRANCH  16  17
ENDBRANCH  15  16
ENDBRANCH   1  15
TORSDOF 9
ENDMDL
MODEL 8
REMARK VINA RESULT:      -6.6      3.317      6.797
REMARK  Name = 
REMARK  10 active torsions:
REMARK  status: ('A' for Active; 'I' for Inactive)
REMARK    1  A    between atoms: C_1  and  C_2
REMARK    2  A    between atoms: C_2  and  C_3
REMARK    3  A    between atoms: C_3  and  N_4
REMARK    4  A    between atoms: C_3  and  C_18
REMARK    5  A    between atoms: N_4  and  S_5
REMARK    6  A    between atoms: S_5  and  C_8
REMARK    7  A    between atoms: C_8  and  C_9
REMARK    8  A    between atoms: C_9  and  O_10
REMARK    9  A    between atoms: O_10  and  C_11
REMARK   10  A    between atoms: C_20  and  O_21
REMARK                            x       y       z     vdW  Elec       q    Type
REMARK                         _______ _______ _______ _____ _____    ______ ____
ROOT
ATOM      1  S   UNL     1       3.340   4.052  17.737  0.00  0.00    +0.000 S 
ATOM      2  O   UNL     1       1.942   4.268  17.441  0.00  0.00    +0.000 OA
ATOM      3  O   UNL     1       4.004   2.814  17.388  0.00  0.00    +0.000 OA
ENDROOT
BRANCH   1   4
ATOM      4  N   UNL     1       4.196   5.310  16.984  0.00  0.00    +0.000 NA
ATOM      5  H   UNL     1       3.614   5.768  16.281  0.00  0.00    +0.000 HD
BRANCH   4   6
ATOM      6  C   UNL     1       5.518   4.872  16.395  0.00  0.00    +0.000 C 
BRANCH   6   7
ATOM      7  C   UNL     1       6.723   5.518  17.102  0.00  0.00    +0.000 C 
ATOM      8  C   UNL     1       6.529   6.434  18.336  0.00  0.00    +0.000 C 
ATOM      9  C   UNL     1       7.036   5.290  19.236  0.00  0.00    +0.000 C 
ATOM     10  C   UNL     1       7.632   4.620  17.979  0.00  0.00    +0.000 C 
BRANCH   9  11
ATOM     11  O   UNL     1       7.965   5.657  20.272  0.00  0.00    +0.000 OA
ATOM     12  H   UNL     1       8.438   4.840  20.510  0.00  0.00    +0.000 HD
ENDBRANCH   9  11
ENDBRANCH   6   7
BRANCH   6  14
ATOM     13  C   UNL     1       5.588   3.960  13.962  0.00  0.00    +0.000 C 
ATOM     14  C   UNL     1       5.526   5.169  14.880  0.00  0.00    +0.000 C 
ENDBRANCH   6  14
ENDBRANCH   4   6
ENDBRANCH   1   4
BRANCH   1  15
ATOM     15  C   UNL     1       3.548   4.337  19.498  0.00  0.00    +0.000 C 
BRANCH  15  16
ATOM     16  C   UNL     1       2.616   5.496  19.837  0.00  0.00    +0.000 C 
BRANCH  16  17
ATOM     17  O   UNL     1       3.035   6.734  19.259  0.00  0.00    +0.000 OA
BRANCH  17  18
ATOM     18  C   UNL     1       2.149   7.776  19.446  0.00  0.00    +0.000 A 
ATOM     19  C   UNL     1       1.597   7.860  20.729  0.00  0.00    +0.000 A 
ATOM     20  C   UNL     1       0.677   8.866  21.048  0.00  0.00    +0.000 A 
ATOM     21  C   UNL     1       0.295   9.802  20.089  0.00  0.00    +0.000 A 
ATOM     22  C   UNL     1       0.838   9.733  18.810  0.00  0.00    +0.000 A 
ATOM     23  C   UNL     1       1.757   8.733  18.497  0.00  0.00    +0.000 A 
ATOM     24  F   UNL     1       2.242   8.736  17.247  0.00  0.00    +0.000 F 
ENDBRANCH  17  18
ENDBRANCH  16  17
ENDBRANCH  15  16
ENDBRANCH   1  15
TORSDOF 9
ENDMDL
MODEL 9
REMARK VINA RESULT:      -6.5      2.943      6.684
REMARK  Name = 
REMARK  10 active torsions:
REMARK  status: ('A' for Active; 'I' for Inactive)
REMARK    1  A    between atoms: C_1  and  C_2
REMARK    2  A    between atoms: C_2  and  C_3
REMARK    3  A    between atoms: C_3  and  N_4
REMARK    4  A    between atoms: C_3  and  C_18
REMARK    5  A    between atoms: N_4  and  S_5
REMARK    6  A    between atoms: S_5  and  C_8
REMARK    7  A    between atoms: C_8  and  C_9
REMARK    8  A    between atoms: C_9  and  O_10
REMARK    9  A    between atoms: O_10  and  C_11
REMARK   10  A    between atoms: C_20  and  O_21
REMARK                            x       y       z     vdW  Elec       q    Type
REMARK                         _______ _______ _______ _____ _____    ______ ____
ROOT
ATOM      1  S   UNL     1       3.473   3.278  17.975  0.00  0.00    +0.000 S 
ATOM      2  O   UNL     1       2.762   4.295  17.233  0.00  0.00    +0.000 OA
ATOM      3  O   UNL     1       3.182   1.871  17.799  0.00  0.00    +0.000 OA
ENDROOT
BRANCH   1   4
ATOM      4  N   UNL     1       5.122   3.496  17.639  0.00  0.00    +0.000 NA
ATOM      5  H   UNL     1       5.694   2.961  18.295  0.00  0.00    +0.000 HD
BRANCH   4   6
ATOM      6  C   UNL     1       5.545   4.947  17.605  0.00  0.00    +0.000 C 
BRANCH   6   7
ATOM      7  C   UNL     1       6.145   5.356  16.248  0.00  0.00    +0.000 C 
ATOM      8  C   UNL     1       7.221   4.484  15.555  0.00  0.00    +0.000 C 
ATOM      9  C   UNL     1       6.150   3.994  14.560  0.00  0.00    +0.000 C 
ATOM     10  C   UNL     1       5.273   5.193  14.977  0.00  0.00    +0.000 C 
BRANCH   9  11
ATOM     11  O   UNL     1       6.544   3.935  13.177  0.00  0.00    +0.000 OA
ATOM     12  H   UNL     1       6.190   3.097  12.833  0.00  0.00    +0.000 HD
ENDBRANCH   9  11
ENDBRANCH   6   7
BRANCH   6  14
ATOM     13  C   UNL     1       7.562   6.306  18.520  0.00  0.00    +0.000 C 
ATOM     14  C   UNL     1       6.528   5.220  18.763  0.00  0.00    +0.000 C 
ENDBRANCH   6  14
ENDBRANCH   4   6
ENDBRANCH   1   4
BRANCH   1  15
ATOM     15  C   UNL     1       3.294   3.687  19.715  0.00  0.00    +0.000 C 
BRANCH  15  16
ATOM     16  C   UNL     1       2.423   4.938  19.753  0.00  0.00    +0.000 C 
BRANCH  16  17
ATOM     17  O   UNL     1       3.184   6.142  19.862  0.00  0.00    +0.000 OA
BRANCH  17  18
ATOM     18  C   UNL     1       2.518   7.276  19.441  0.00  0.00    +0.000 A 
ATOM     19  C   UNL     1       1.685   7.862  20.401  0.00  0.00    +0.000 A 
ATOM     20  C   UNL     1       0.945   9.012  20.099  0.00  0.00    +0.000 A 
ATOM     21  C   UNL     1       1.026   9.591  18.833  0.00  0.00    +0.000 A 
ATOM     22  C   UNL     1       1.852   9.020  17.870  0.00  0.00    +0.000 A 
ATOM     23  C   UNL     1       2.591   7.879  18.176  0.00  0.00    +0.000 A 
ATOM     24  F   UNL     1       3.370   7.391  17.199  0.00  0.00    +0.000 F 
ENDBRANCH  17  18
ENDBRANCH  16  17
ENDBRANCH  15  16
ENDBRANCH   1  15
TORSDOF 9
ENDMDL
