MODEL 1
REMARK VINA RESULT:      -6.4      0.000      0.000
REMARK  Name = 
REMARK  16 active torsions:
REMARK  status: ('A' for Active; 'I' for Inactive)
REMARK    1  A    between atoms: C_1  and  C_2
REMARK    2  A    between atoms: C_2  and  C_3
REMARK    3  A    between atoms: C_4  and  C_5
REMARK    4  A    between atoms: C_5  and  C_6
REMARK    5  A    between atoms: C_6  and  C_7
REMARK    6  A    between atoms: C_7  and  C_8
REMARK    7  A    between atoms: C_9  and  C_10
REMARK    8  A    between atoms: C_10  and  C_11
REMARK    9  A    between atoms: C_11  and  C_12
REMARK   10  A    between atoms: C_12  and  C_13
REMARK   11  A    between atoms: C_14  and  C_15
REMARK   12  A    between atoms: C_15  and  S_16
REMARK   13  A    between atoms: S_16  and  C_17
REMARK   14  A    between atoms: C_17  and  C_18
REMARK   15  A    between atoms: C_18  and  C_19
REMARK   16  A    between atoms: C_18  and  O_20
REMARK                            x       y       z     vdW  Elec       q    Type
REMARK                         _______ _______ _______ _____ _____    ______ ____
ROOT
ATOM      1  C   UNL     1       2.666   3.095  18.065  0.00  0.00    +0.000 C 
ENDROOT
BRANCH   1   2
ATOM      2  C   UNL     1       1.991   3.833  19.205  0.00  0.00    +0.000 C 
ATOM      3  C   UNL     1       0.853   3.131  19.899  0.00  0.00    +0.000 C 
ATOM      4  C   UNL     1       2.427   5.050  19.591  0.00  0.00    +0.000 C 
BRANCH   4   5
ATOM      5  C   UNL     1       1.841   5.891  20.687  0.00  0.00    +0.000 C 
BRANCH   5   6
ATOM      6  S   UNL     1       1.938   7.634  20.188  0.00  0.00    +0.000 S 
BRANCH   6   7
ATOM      7  C   UNL     1       0.506   8.275  21.128  0.00  0.00    +0.000 C 
BRANCH   7   8
ATOM      8  C   UNL     1       0.888   9.498  21.975  0.00  0.00    +0.000 C 
ATOM      9  C   UNL     1      -0.240  10.014  22.862  0.00  0.00    +0.000 C 
BRANCH   8  10
ATOM     10  O   UNL     1       2.021   9.200  22.792  0.00  0.00    +0.000 OA
ATOM     11  H   UNL     1       1.691   9.162  23.712  0.00  0.00    +0.000 HD
ENDBRANCH   8  10
ENDBRANCH   7   8
ENDBRANCH   6   7
ENDBRANCH   5   6
ENDBRANCH   4   5
ENDBRANCH   1   2
BRANCH   1  12
ATOM     12  C   UNL     1       4.135   3.502  17.939  0.00  0.00    +0.000 C 
BRANCH  12  15
ATOM     13  C   UNL     1       5.785   4.432  16.293  0.00  0.00    +0.000 C 
ATOM     14  C   UNL     1       6.826   4.470  17.383  0.00  0.00    +0.000 C 
ATOM     15  C   UNL     1       4.541   3.981  16.570  0.00  0.00    +0.000 C 
BRANCH  13  16
ATOM     16  C   UNL     1       6.124   4.883  14.880  0.00  0.00    +0.000 C 
BRANCH  16  17
ATOM     17  C   UNL     1       6.171   3.775  13.820  0.00  0.00    +0.000 C 
BRANCH  17  21
ATOM     18  C   UNL     1       3.757   3.244  10.809  0.00  0.00    +0.000 C 
ATOM     19  C   UNL     1       4.895   3.029  11.766  0.00  0.00    +0.000 C 
ATOM     20  C   UNL     1       5.852   1.910  11.460  0.00  0.00    +0.000 C 
ATOM     21  C   UNL     1       5.024   3.821  12.848  0.00  0.00    +0.000 C 
ENDBRANCH  17  21
ENDBRANCH  16  17
ENDBRANCH  13  16
ENDBRANCH  12  15
ENDBRANCH   1  12
TORSDOF 11
ENDMDL
MODEL 2
REMARK VINA RESULT:      -6.2      2.983      4.815
REMARK  Name = 
REMARK  16 active torsions:
REMARK  status: ('A' for Active; 'I' for Inactive)
REMARK    1  A    between atoms: C_1  and  C_2
REMARK    2  A    between atoms: C_2  and  C_3
REMARK    3  A    between atoms: C_4  and  C_5
REMARK    4  A    between atoms: C_5  and  C_6
REMARK    5  A    between atoms: C_6  and  C_7
REMARK    6  A    between atoms: C_7  and  C_8
REMARK    7  A    between atoms: C_9  and  C_10
REMARK    8  A    between atoms: C_10  and  C_11
REMARK    9  A    between atoms: C_11  and  C_12
REMARK   10  A    between atoms: C_12  and  C_13
REMARK   11  A    between atoms: C_14  and  C_15
REMARK   12  A    between atoms: C_15  and  S_16
REMARK   13  A    between atoms: S_16  and  C_17
REMARK   14  A    between atoms: C_17  and  C_18
REMARK   15  A    between atoms: C_18  and  C_19
REMARK   16  A    between atoms: C_18  and  O_20
REMARK                            x       y       z     vdW  Elec       q    Type
REMARK                         _______ _______ _______ _____ _____    ______ ____
ROOT
ATOM      1  C   UNL     1       2.553   7.232  18.767  0.00  0.00    +0.000 C 
ENDROOT
BRANCH   1   2
ATOM      2  C   UNL     1       2.078   6.586  20.054  0.00  0.00    +0.000 C 
ATOM      3  C   UNL     1       1.324   7.459  21.023  0.00  0.00    +0.000 C 
ATOM      4  C   UNL     1       2.297   5.275  20.289  0.00  0.00    +0.000 C 
BRANCH   4   5
ATOM      5  C   UNL     1       1.896   4.520  21.522  0.00  0.00    +0.000 C 
BRANCH   5   6
ATOM      6  S   UNL     1       1.937   2.744  21.146  0.00  0.00    +0.000 S 
BRANCH   6   7
ATOM      7  C   UNL     1       3.290   2.751  19.915  0.00  0.00    +0.000 C 
BRANCH   7   8
ATOM      8  C   UNL     1       2.979   1.826  18.729  0.00  0.00    +0.000 C 
ATOM      9  C   UNL     1       2.393   2.547  17.520  0.00  0.00    +0.000 C 
BRANCH   8  10
ATOM     10  O   UNL     1       4.156   1.126  18.326  0.00  0.00    +0.000 OA
ATOM     11  H   UNL     1       3.925   0.176  18.334  0.00  0.00    +0.000 HD
ENDBRANCH   8  10
ENDBRANCH   7   8
ENDBRANCH   6   7
ENDBRANCH   5   6
ENDBRANCH   4   5
ENDBRANCH   1   2
BRANCH   1  12
ATOM     12  C   UNL     1       3.054   6.179  17.775  0.00  0.00    +0.000 C 
BRANCH  12  15
ATOM     13  C   UNL     1       5.561   6.131  17.725  0.00  0.00    +0.000 C 
ATOM     14  C   UNL     1       5.558   5.397  19.043  0.00  0.00    +0.000 C 
ATOM     15  C   UNL     1       4.390   6.487  17.152  0.00  0.00    +0.000 C 
BRANCH  13  16
ATOM     16  C   UNL     1       6.872   6.463  17.026  0.00  0.00    +0.000 C 
BRANCH  16  17
ATOM     17  C   UNL     1       7.596   5.279  16.370  0.00  0.00    +0.000 C 
BRANCH  17  21
ATOM     18  C   UNL     1       5.923   3.787  13.185  0.00  0.00    +0.000 C 
ATOM     19  C   UNL     1       6.223   4.055  14.632  0.00  0.00    +0.000 C 
ATOM     20  C   UNL     1       5.471   3.249  15.654  0.00  0.00    +0.000 C 
ATOM     21  C   UNL     1       7.133   4.991  14.970  0.00  0.00    +0.000 C 
ENDBRANCH  17  21
ENDBRANCH  16  17
ENDBRANCH  13  16
ENDBRANCH  12  15
ENDBRANCH   1  12
TORSDOF 11
ENDMDL
MODEL 3
REMARK VINA RESULT:      -6.2      4.589      7.245
REMARK  Name = 
REMARK  16 active torsions:
REMARK  status: ('A' for Active; 'I' for Inactive)
REMARK    1  A    between atoms: C_1  and  C_2
REMARK    2  A    between atoms: C_2  and  C_3
REMARK    3  A    between atoms: C_4  and  C_5
REMARK    4  A    between atoms: C_5  and  C_6
REMARK    5  A    between atoms: C_6  and  C_7
REMARK    6  A    between atoms: C_7  and  C_8
REMARK    7  A    between atoms: C_9  and  C_10
REMARK    8  A    between atoms: C_10  and  C_11
REMARK    9  A    between atoms: C_11  and  C_12
REMARK   10  A    between atoms: C_12  and  C_13
REMARK   11  A    between atoms: C_14  and  C_15
REMARK   12  A    between atoms: C_15  and  S_16
REMARK   13  A    between atoms: S_16  and  C_17
REMARK   14  A    between atoms: C_17  and  C_18
REMARK   15  A    between atoms: C_18  and  C_19
REMARK   16  A    between atoms: C_18  and  O_20
REMARK                            x       y       z     vdW  Elec       q    Type
REMARK                         _______ _______ _______ _____ _____    ______ ____
ROOT
ATOM      1  C   UNL     1       4.855   6.974  16.230  0.00  0.00    +0.000 C 
ENDROOT
BRANCH   1   2
ATOM      2  C   UNL     1       3.988   6.749  17.453  0.00  0.00    +0.000 C 
ATOM      3  C   UNL     1       3.046   7.859  17.840  0.00  0.00    +0.000 C 
ATOM      4  C   UNL     1       4.045   5.585  18.133  0.00  0.00    +0.000 C 
BRANCH   4   5
ATOM      5  C   UNL     1       3.257   5.241  19.363  0.00  0.00    +0.000 C 
BRANCH   5   6
ATOM      6  S   UNL     1       1.690   4.484  18.847  0.00  0.00    +0.000 S 
BRANCH   6   7
ATOM      7  C   UNL     1       0.946   4.230  20.498  0.00  0.00    +0.000 C 
BRANCH   7   8
ATOM      8  C   UNL     1       1.340   2.869  21.092  0.00  0.00    +0.000 C 
ATOM      9  C   UNL     1       1.951   1.906  20.079  0.00  0.00    +0.000 C 
BRANCH   8  10
ATOM     10  O   UNL     1       2.257   3.047  22.172  0.00  0.00    +0.000 OA
ATOM     11  H   UNL     1       2.531   2.150  22.448  0.00  0.00    +0.000 HD
ENDBRANCH   8  10
ENDBRANCH   7   8
ENDBRANCH   6   7
ENDBRANCH   5   6
ENDBRANCH   4   5
ENDBRANCH   1   2
BRANCH   1  12
ATOM     12  C   UNL     1       6.262   6.409  16.440  0.00  0.00    +0.000 C 
BRANCH  12  15
ATOM     13  C   UNL     1       7.836   7.054  18.283  0.00  0.00    +0.000 C 
ATOM     14  C   UNL     1       7.560   5.735  18.959  0.00  0.00    +0.000 C 
ATOM     15  C   UNL     1       7.224   7.351  17.115  0.00  0.00    +0.000 C 
BRANCH  13  16
ATOM     16  C   UNL     1       8.810   8.051  18.895  0.00  0.00    +0.000 C 
BRANCH  16  17
ATOM     17  C   UNL     1       8.610   9.516  18.486  0.00  0.00    +0.000 C 
BRANCH  17  21
ATOM     18  C   UNL     1      10.813  12.229  20.206  0.00  0.00    +0.000 C 
ATOM     19  C   UNL     1      10.205  11.370  19.134  0.00  0.00    +0.000 C 
ATOM     20  C   UNL     1      10.733  11.536  17.736  0.00  0.00    +0.000 C 
ATOM     21  C   UNL     1       9.224  10.499  19.442  0.00  0.00    +0.000 C 
ENDBRANCH  17  21
ENDBRANCH  16  17
ENDBRANCH  13  16
ENDBRANCH  12  15
ENDBRANCH   1  12
TORSDOF 11
ENDMDL
MODEL 4
REMARK VINA RESULT:      -6.1      4.197      6.851
REMARK  Name = 
REMARK  16 active torsions:
REMARK  status: ('A' for Active; 'I' for Inactive)
REMARK    1  A    between atoms: C_1  and  C_2
REMARK    2  A    between atoms: C_2  and  C_3
REMARK    3  A    between atoms: C_4  and  C_5
REMARK    4  A    between atoms: C_5  and  C_6
REMARK    5  A    between atoms: C_6  and  C_7
REMARK    6  A    between atoms: C_7  and  C_8
REMARK    7  A    between atoms: C_9  and  C_10
REMARK    8  A    between atoms: C_10  and  C_11
REMARK    9  A    between atoms: C_11  and  C_12
REMARK   10  A    between atoms: C_12  and  C_13
REMARK   11  A    between atoms: C_14  and  C_15
REMARK   12  A    between atoms: C_15  and  S_16
REMARK   13  A    between atoms: S_16  and  C_17
REMARK   14  A    between atoms: C_17  and  C_18
REMARK   15  A    between atoms: C_18  and  C_19
REMARK   16  A    between atoms: C_18  and  O_20
REMARK                            x       y       z     vdW  Elec       q    Type
REMARK                         _______ _______ _______ _____ _____    ______ ____
ROOT
ATOM      1  C   UNL     1       2.908   7.574  18.318  0.00  0.00    +0.000 C 
ENDROOT
BRANCH   1   2
ATOM      2  C   UNL     1       2.251   6.969  19.543  0.00  0.00    +0.000 C 
ATOM      3  C   UNL     1       1.608   7.920  20.518  0.00  0.00    +0.000 C 
ATOM      4  C   UNL     1       2.222   5.631  19.718  0.00  0.00    +0.000 C 
BRANCH   4   5
ATOM      5  C   UNL     1       1.621   4.907  20.888  0.00  0.00    +0.000 C 
BRANCH   5   6
ATOM      6  S   UNL     1       2.409   3.276  21.019  0.00  0.00    +0.000 S 
BRANCH   6   7
ATOM      7  C   UNL     1       1.798   2.545  19.458  0.00  0.00    +0.000 C 
BRANCH   7   8
ATOM      8  C   UNL     1       2.851   2.632  18.344  0.00  0.00    +0.000 C 
ATOM      9  C   UNL     1       3.637   1.342  18.133  0.00  0.00    +0.000 C 
BRANCH   8  10
ATOM     10  O   UNL     1       2.236   3.006  17.110  0.00  0.00    +0.000 OA
ATOM     11  H   UNL     1       1.280   3.082  17.295  0.00  0.00    +0.000 HD
ENDBRANCH   8  10
ENDBRANCH   7   8
ENDBRANCH   6   7
ENDBRANCH   5   6
ENDBRANCH   4   5
ENDBRANCH   1   2
BRANCH   1  12
ATOM     12  C   UNL     1       3.732   6.529  17.562  0.00  0.00    +0.000 C 
BRANCH  12  15
ATOM     13  C   UNL     1       6.192   6.345  18.021  0.00  0.00    +0.000 C 
ATOM     14  C   UNL     1       5.902   5.296  19.065  0.00  0.00    +0.000 C 
ATOM     15  C   UNL     1       5.173   6.908  17.334  0.00  0.00    +0.000 C 
BRANCH  13  16
ATOM     16  C   UNL     1       7.623   6.768  17.722  0.00  0.00    +0.000 C 
BRANCH  16  17
ATOM     17  C   UNL     1       7.850   8.275  17.549  0.00  0.00    +0.000 C 
BRANCH  17  21
ATOM     18  C   UNL     1       9.822  10.692  19.882  0.00  0.00    +0.000 C 
ATOM     19  C   UNL     1       8.954  10.206  18.757  0.00  0.00    +0.000 C 
ATOM     20  C   UNL     1       8.484  11.226  17.757  0.00  0.00    +0.000 C 
ATOM     21  C   UNL     1       8.622   8.902  18.676  0.00  0.00    +0.000 C 
ENDBRANCH  17  21
ENDBRANCH  16  17
ENDBRANCH  13  16
ENDBRANCH  12  15
ENDBRANCH   1  12
TORSDOF 11
ENDMDL
MODEL 5
REMARK VINA RESULT:      -6.1      1.846      2.070
REMARK  Name = 
REMARK  16 active torsions:
REMARK  status: ('A' for Active; 'I' for Inactive)
REMARK    1  A    between atoms: C_1  and  C_2
REMARK    2  A    between atoms: C_2  and  C_3
REMARK    3  A    between atoms: C_4  and  C_5
REMARK    4  A    between atoms: C_5  and  C_6
REMARK    5  A    between atoms: C_6  and  C_7
REMARK    6  A    between atoms: C_7  and  C_8
REMARK    7  A    between atoms: C_9  and  C_10
REMARK    8  A    between atoms: C_10  and  C_11
REMARK    9  A    between atoms: C_11  and  C_12
REMARK   10  A    between atoms: C_12  and  C_13
REMARK   11  A    between atoms: C_14  and  C_15
REMARK   12  A    between atoms: C_15  and  S_16
REMARK   13  A    between atoms: S_16  and  C_17
REMARK   14  A    between atoms: C_17  and  C_18
REMARK   15  A    between atoms: C_18  and  C_19
REMARK   16  A    between atoms: C_18  and  O_20
REMARK                            x       y       z     vdW  Elec       q    Type
REMARK                         _______ _______ _______ _____ _____    ______ ____
ROOT
ATOM      1  C   UNL     1       2.935   4.400  17.592  0.00  0.00    +0.000 C 
ENDROOT
BRANCH   1   2
ATOM      2  C   UNL     1       2.963   5.618  18.495  0.00  0.00    +0.000 C 
ATOM      3  C   UNL     1       3.827   5.538  19.726  0.00  0.00    +0.000 C 
ATOM      4  C   UNL     1       2.267   6.729  18.176  0.00  0.00    +0.000 C 
BRANCH   4   5
ATOM      5  C   UNL     1       2.197   7.989  18.987  0.00  0.00    +0.000 C 
BRANCH   5   6
ATOM      6  S   UNL     1       1.992   9.391  17.851  0.00  0.00    +0.000 S 
BRANCH   6   7
ATOM      7  C   UNL     1       1.208  10.573  19.006  0.00  0.00    +0.000 C 
BRANCH   7   8
ATOM      8  C   UNL     1       0.143   9.890  19.877  0.00  0.00    +0.000 C 
ATOM      9  C   UNL     1       0.260  10.211  21.363  0.00  0.00    +0.000 C 
BRANCH   8  10
ATOM     10  O   UNL     1      -1.165  10.245  19.428  0.00  0.00    +0.000 OA
ATOM     11  H   UNL     1      -1.625  10.627  20.202  0.00  0.00    +0.000 HD
ENDBRANCH   8  10
ENDBRANCH   7   8
ENDBRANCH   6   7
ENDBRANCH   5   6
ENDBRANCH   4   5
ENDBRANCH   1   2
BRANCH   1  12
ATOM     12  C   UNL     1       4.349   3.884  17.318  0.00  0.00    +0.000 C 
BRANCH  12  15
ATOM     13  C   UNL     1       6.196   4.603  15.780  0.00  0.00    +0.000 C 
ATOM     14  C   UNL     1       7.140   4.635  16.956  0.00  0.00    +0.000 C 
ATOM     15  C   UNL     1       4.904   4.254  15.967  0.00  0.00    +0.000 C 
BRANCH  13  16
ATOM     16  C   UNL     1       6.687   4.948  14.381  0.00  0.00    +0.000 C 
BRANCH  16  17
ATOM     17  C   UNL     1       6.564   3.830  13.338  0.00  0.00    +0.000 C 
BRANCH  17  21
ATOM     18  C   UNL     1       3.607   3.127  10.901  0.00  0.00    +0.000 C 
ATOM     19  C   UNL     1       4.896   2.948  11.651  0.00  0.00    +0.000 C 
ATOM     20  C   UNL     1       5.736   1.750  11.304  0.00  0.00    +0.000 C 
ATOM     21  C   UNL     1       5.257   3.840  12.595  0.00  0.00    +0.000 C 
ENDBRANCH  17  21
ENDBRANCH  16  17
ENDBRANCH  13  16
ENDBRANCH  12  15
ENDBRANCH   1  12
TORSDOF 11
ENDMDL
MODEL 6
REMARK VINA RESULT:      -6.1      4.561      9.148
REMARK  Name = 
REMARK  16 active torsions:
REMARK  status: ('A' for Active; 'I' for Inactive)
REMARK    1  A    between atoms: C_1  and  C_2
REMARK    2  A    between atoms: C_2  and  C_3
REMARK    3  A    between atoms: C_4  and  C_5
REMARK    4  A    between atoms: C_5  and  C_6
REMARK    5  A    between atoms: C_6  and  C_7
REMARK    6  A    between atoms: C_7  and  C_8
REMARK    7  A    between atoms: C_9  and  C_10
REMARK    8  A    between atoms: C_10  and  C_11
REMARK    9  A    between atoms: C_11  and  C_12
REMARK   10  A    between atoms: C_12  and  C_13
REMARK   11  A    between atoms: C_14  and  C_15
REMARK   12  A    between atoms: C_15  and  S_16
REMARK   13  A    between atoms: S_16  and  C_17
REMARK   14  A    between atoms: C_17  and  C_18
REMARK   15  A    between atoms: C_18  and  C_19
REMARK   16  A    between atoms: C_18  and  O_20
REMARK                            x       y       z     vdW  Elec       q    Type
REMARK                         _______ _______ _______ _____ _____    ______ ____
ROOT
ATOM      1  C   UNL     1       6.866   4.554  17.350  0.00  0.00    +0.000 C 
ENDROOT
BRANCH   1   2
ATOM      2  C   UNL     1       6.249   4.952  16.024  0.00  0.00    +0.000 C 
ATOM      3  C   UNL     1       5.965   6.416  15.811  0.00  0.00    +0.000 C 
ATOM      4  C   UNL     1       6.005   4.026  15.073  0.00  0.00    +0.000 C 
BRANCH   4   5
ATOM      5  C   UNL     1       5.385   4.283  13.730  0.00  0.00    +0.000 C 
BRANCH   5   6
ATOM      6  S   UNL     1       6.508   3.650  12.450  0.00  0.00    +0.000 S 
BRANCH   6   7
ATOM      7  C   UNL     1       5.437   2.335  11.766  0.00  0.00    +0.000 C 
BRANCH   7   8
ATOM      8  C   UNL     1       6.244   1.326  10.934  0.00  0.00    +0.000 C 
ATOM      9  C   UNL     1       7.729   1.657  10.830  0.00  0.00    +0.000 C 
BRANCH   8  10
ATOM     10  O   UNL     1       6.098   0.012  11.473  0.00  0.00    +0.000 OA
ATOM     11  H   UNL     1       6.252   0.094  12.435  0.00  0.00    +0.000 HD
ENDBRANCH   8  10
ENDBRANCH   7   8
ENDBRANCH   6   7
ENDBRANCH   5   6
ENDBRANCH   4   5
ENDBRANCH   1   2
BRANCH   1  12
ATOM     12  C   UNL     1       5.809   4.497  18.455  0.00  0.00    +0.000 C 
BRANCH  12  15
ATOM     13  C   UNL     1       3.391   4.288  17.819  0.00  0.00    +0.000 C 
ATOM     14  C   UNL     1       3.271   5.791  17.845  0.00  0.00    +0.000 C 
ATOM     15  C   UNL     1       4.576   3.705  18.106  0.00  0.00    +0.000 C 
BRANCH  13  16
ATOM     16  C   UNL     1       2.194   3.420  17.459  0.00  0.00    +0.000 C 
BRANCH  16  17
ATOM     17  C   UNL     1       0.953   3.596  18.344  0.00  0.00    +0.000 C 
BRANCH  17  21
ATOM     18  C   UNL     1       1.604   2.500  22.025  0.00  0.00    +0.000 C 
ATOM     19  C   UNL     1       1.468   3.376  20.812  0.00  0.00    +0.000 C 
ATOM     20  C   UNL     1       1.829   4.827  20.965  0.00  0.00    +0.000 C 
ATOM     21  C   UNL     1       1.033   2.853  19.649  0.00  0.00    +0.000 C 
ENDBRANCH  17  21
ENDBRANCH  16  17
ENDBRANCH  13  16
ENDBRANCH  12  15
ENDBRANCH   1  12
TORSDOF 11
ENDMDL
MODEL 7
REMARK VINA RESULT:      -6.1      4.289      8.082
REMARK  Name = 
REMARK  16 active torsions:
REMARK  status: ('A' for Active; 'I' for Inactive)
REMARK    1  A    between atoms: C_1  and  C_2
REMARK    2  A    between atoms: C_2  and  C_3
REMARK    3  A    between atoms: C_4  and  C_5
REMARK    4  A    between atoms: C_5  and  C_6
REMARK    5  A    between atoms: C_6  and  C_7
REMARK    6  A    between atoms: C_7  and  C_8
REMARK    7  A    between atoms: C_9  and  C_10
REMARK    8  A    between atoms: C_10  and  C_11
REMARK    9  A    between atoms: C_11  and  C_12
REMARK   10  A    between atoms: C_12  and  C_13
REMARK   11  A    between atoms: C_14  and  C_15
REMARK   12  A    between atoms: C_15  and  S_16
REMARK   13  A    between atoms: S_16  and  C_17
REMARK   14  A    between atoms: C_17  and  C_18
REMARK   15  A    between atoms: C_18  and  C_19
REMARK   16  A    between atoms: C_18  and  O_20
REMARK                            x       y       z     vdW  Elec       q    Type
REMARK                         _______ _______ _______ _____ _____    ______ ____
ROOT
ATOM      1  C   UNL     1       3.184   8.059  17.865  0.00  0.00    +0.000 C 
ENDROOT
BRANCH   1   2
ATOM      2  C   UNL     1       3.462   6.603  17.547  0.00  0.00    +0.000 C 
ATOM      3  C   UNL     1       4.733   6.293  16.801  0.00  0.00    +0.000 C 
ATOM      4  C   UNL     1       2.614   5.635  17.954  0.00  0.00    +0.000 C 
BRANCH   4   5
ATOM      5  C   UNL     1       2.762   4.165  17.692  0.00  0.00    +0.000 C 
BRANCH   5   6
ATOM      6  S   UNL     1       3.653   3.421  19.089  0.00  0.00    +0.000 S 
BRANCH   6   7
ATOM      7  C   UNL     1       2.424   2.151  19.559  0.00  0.00    +0.000 C 
BRANCH   7   8
ATOM      8  C   UNL     1       1.525   2.633  20.708  0.00  0.00    +0.000 C 
ATOM      9  C   UNL     1       2.210   3.603  21.664  0.00  0.00    +0.000 C 
BRANCH   8  10
ATOM     10  O   UNL     1       0.346   3.249  20.188  0.00  0.00    +0.000 OA
ATOM     11  H   UNL     1       0.030   3.861  20.882  0.00  0.00    +0.000 HD
ENDBRANCH   8  10
ENDBRANCH   7   8
ENDBRANCH   6   7
ENDBRANCH   5   6
ENDBRANCH   4   5
ENDBRANCH   1   2
BRANCH   1  12
ATOM     12  C   UNL     1       2.005   8.196  18.831  0.00  0.00    +0.000 C 
BRANCH  12  15
ATOM     13  C   UNL     1       0.298  10.026  19.001  0.00  0.00    +0.000 C 
ATOM     14  C   UNL     1       0.836  10.380  20.365  0.00  0.00    +0.000 C 
ATOM     15  C   UNL     1       0.851   9.009  18.305  0.00  0.00    +0.000 C 
BRANCH  13  16
ATOM     16  C   UNL     1      -0.856  10.812  18.395  0.00  0.00    +0.000 C 
BRANCH  16  17
ATOM     17  C   UNL     1      -2.078   9.985  17.975  0.00  0.00    +0.000 C 
BRANCH  17  21
ATOM     18  C   UNL     1      -3.445  10.210  14.335  0.00  0.00    +0.000 C 
ATOM     19  C   UNL     1      -3.306  10.448  15.811  0.00  0.00    +0.000 C 
ATOM     20  C   UNL     1      -4.353  11.299  16.475  0.00  0.00    +0.000 C 
ATOM     21  C   UNL     1      -2.271   9.909  16.486  0.00  0.00    +0.000 C 
ENDBRANCH  17  21
ENDBRANCH  16  17
ENDBRANCH  13  16
ENDBRANCH  12  15
ENDBRANCH   1  12
TORSDOF 11
ENDMDL
MODEL 8
REMARK VINA RESULT:      -6.1      7.150      9.210
REMARK  Name = 
REMARK  16 active torsions:
REMARK  status: ('A' for Active; 'I' for Inactive)
REMARK    1  A    between atoms: C_1  and  C_2
REMARK    2  A    between atoms: C_2  and  C_3
REMARK    3  A    between atoms: C_4  and  C_5
REMARK    4  A    between atoms: C_5  and  C_6
REMARK    5  A    between atoms: C_6  and  C_7
REMARK    6  A    between atoms: C_7  and  C_8
REMARK    7  A    between atoms: C_9  and  C_10
REMARK    8  A    between atoms: C_10  and  C_11
REMARK    9  A    between atoms: C_11  and  C_12
REMARK   10  A    between atoms: C_12  and  C_13
REMARK   11  A    between atoms: C_14  and  C_15
REMARK   12  A    between atoms: C_15  and  S_16
REMARK   13  A    between atoms: S_16  and  C_17
REMARK   14  A    between atoms: C_17  and  C_18
REMARK   15  A    between atoms: C_18  and  C_19
REMARK   16  A    between atoms: C_18  and  O_20
REMARK                            x       y       z     vdW  Elec       q    Type
REMARK                         _______ _______ _______ _____ _____    ______ ____
ROOT
ATOM      1  C   UNL     1       8.435  10.045  18.297  0.00  0.00    +0.000 C 
ENDROOT
BRANCH   1   2
ATOM      2  C   UNL     1       9.497  10.814  19.058  0.00  0.00    +0.000 C 
ATOM      3  C   UNL     1       9.397  10.817  20.561  0.00  0.00    +0.000 C 
ATOM      4  C   UNL     1      10.502  11.432  18.403  0.00  0.00    +0.000 C 
BRANCH   4   5
ATOM      5  C   UNL     1      11.603  12.235  19.033  0.00  0.00    +0.000 C 
BRANCH   5   6
ATOM      6  S   UNL     1      10.934  13.859  19.496  0.00  0.00    +0.000 S 
BRANCH   6   7
ATOM      7  C   UNL     1      10.074  14.263  17.934  0.00  0.00    +0.000 C 
BRANCH   7   8
ATOM      8  C   UNL     1      11.041  14.848  16.892  0.00  0.00    +0.000 C 
ATOM      9  C   UNL     1      12.331  15.400  17.487  0.00  0.00    +0.000 C 
BRANCH   8  10
ATOM     10  O   UNL     1      11.367  13.862  15.912  0.00  0.00    +0.000 OA
ATOM     11  H   UNL     1      10.911  14.133  15.091  0.00  0.00    +0.000 HD
ENDBRANCH   8  10
ENDBRANCH   7   8
ENDBRANCH   6   7
ENDBRANCH   5   6
ENDBRANCH   4   5
ENDBRANCH   1   2
BRANCH   1  12
ATOM     12  C   UNL     1       8.696   8.538  18.356  0.00  0.00    +0.000 C 
BRANCH  12  15
ATOM     13  C   UNL     1       7.394   6.438  17.925  0.00  0.00    +0.000 C 
ATOM     14  C   UNL     1       8.012   5.822  19.155  0.00  0.00    +0.000 C 
ATOM     15  C   UNL     1       7.724   7.699  17.569  0.00  0.00    +0.000 C 
BRANCH  13  16
ATOM     16  C   UNL     1       6.391   5.659  17.088  0.00  0.00    +0.000 C 
BRANCH  16  17
ATOM     17  C   UNL     1       5.071   5.306  17.786  0.00  0.00    +0.000 C 
BRANCH  17  21
ATOM     18  C   UNL     1       2.035   7.722  18.130  0.00  0.00    +0.000 C 
ATOM     19  C   UNL     1       2.824   6.450  18.003  0.00  0.00    +0.000 C 
ATOM     20  C   UNL     1       2.050   5.167  17.878  0.00  0.00    +0.000 C 
ATOM     21  C   UNL     1       4.171   6.489  18.008  0.00  0.00    +0.000 C 
ENDBRANCH  17  21
ENDBRANCH  16  17
ENDBRANCH  13  16
ENDBRANCH  12  15
ENDBRANCH   1  12
TORSDOF 11
ENDMDL
MODEL 9
REMARK VINA RESULT:      -6.0      2.914      4.175
REMARK  Name = 
REMARK  16 active torsions:
REMARK  status: ('A' for Active; 'I' for Inactive)
REMARK    1  A    between atoms: C_1  and  C_2
REMARK    2  A    between atoms: C_2  and  C_3
REMARK    3  A    between atoms: C_4  and  C_5
REMARK    4  A    between atoms: C_5  and  C_6
REMARK    5  A    between atoms: C_6  and  C_7
REMARK    6  A    between atoms: C_7  and  C_8
REMARK    7  A    between atoms: C_9  and  C_10
REMARK    8  A    between atoms: C_10  and  C_11
REMARK    9  A    between atoms: C_11  and  C_12
REMARK   10  A    between atoms: C_12  and  C_13
REMARK   11  A    between atoms: C_14  and  C_15
REMARK   12  A    between atoms: C_15  and  S_16
REMARK   13  A    between atoms: S_16  and  C_17
REMARK   14  A    between atoms: C_17  and  C_18
REMARK   15  A    between atoms: C_18  and  C_19
REMARK   16  A    between atoms: C_18  and  O_20
REMARK                            x       y       z     vdW  Elec       q    Type
REMARK                         _______ _______ _______ _____ _____    ______ ____
ROOT
ATOM      1  C   UNL     1       4.950   4.006  16.926  0.00  0.00    +0.000 C 
ENDROOT
BRANCH   1   2
ATOM      2  C   UNL     1       4.668   4.943  18.085  0.00  0.00    +0.000 C 
ATOM      3  C   UNL     1       5.837   5.334  18.951  0.00  0.00    +0.000 C 
ATOM      4  C   UNL     1       3.425   5.425  18.295  0.00  0.00    +0.000 C 
BRANCH   4   5
ATOM      5  C   UNL     1       3.010   6.341  19.409  0.00  0.00    +0.000 C 
BRANCH   5   6
ATOM      6  S   UNL     1       1.910   5.425  20.525  0.00  0.00    +0.000 S 
BRANCH   6   7
ATOM      7  C   UNL     1       1.470   4.043  19.411  0.00  0.00    +0.000 C 
BRANCH   7   8
ATOM      8  C   UNL     1       1.955   2.695  19.965  0.00  0.00    +0.000 C 
ATOM      9  C   UNL     1       1.637   2.481  21.441  0.00  0.00    +0.000 C 
BRANCH   8  10
ATOM     10  O   UNL     1       1.394   1.620  19.210  0.00  0.00    +0.000 OA
ATOM     11  H   UNL     1       0.425   1.744  19.238  0.00  0.00    +0.000 HD
ENDBRANCH   8  10
ENDBRANCH   7   8
ENDBRANCH   6   7
ENDBRANCH   5   6
ENDBRANCH   4   5
ENDBRANCH   1   2
BRANCH   1  12
ATOM     12  C   UNL     1       5.676   4.735  15.793  0.00  0.00    +0.000 C 
BRANCH  12  15
ATOM     13  C   UNL     1       6.452   4.232  13.462  0.00  0.00    +0.000 C 
ATOM     14  C   UNL     1       7.692   5.052  13.715  0.00  0.00    +0.000 C 
ATOM     15  C   UNL     1       5.526   4.097  14.437  0.00  0.00    +0.000 C 
BRANCH  13  16
ATOM     16  C   UNL     1       6.238   3.543  12.122  0.00  0.00    +0.000 C 
BRANCH  16  17
ATOM     17  C   UNL     1       4.797   3.115  11.815  0.00  0.00    +0.000 C 
BRANCH  17  21
ATOM     18  C   UNL     1       2.554   4.782   9.103  0.00  0.00    +0.000 C 
ATOM     19  C   UNL     1       3.147   3.733   9.999  0.00  0.00    +0.000 C 
ATOM     20  C   UNL     1       2.679   2.317   9.808  0.00  0.00    +0.000 C 
ATOM     21  C   UNL     1       4.056   4.079  10.932  0.00  0.00    +0.000 C 
ENDBRANCH  17  21
ENDBRANCH  16  17
ENDBRANCH  13  16
ENDBRANCH  12  15
ENDBRANCH   1  12
TORSDOF 11
ENDMDL
