MODEL 1
REMARK VINA RESULT:      -8.1      0.000      0.000
REMARK  Name = 
REMARK  8 active torsions:
REMARK  status: ('A' for Active; 'I' for Inactive)
REMARK    1  A    between atoms: C_1  and  C_2
REMARK    2  A    between atoms: N_4  and  C_5
REMARK    3  A    between atoms: C_9  and  C_10
REMARK    4  A    between atoms: N_12  and  C_13
REMARK    5  A    between atoms: C_17  and  S_18
REMARK    6  A    between atoms: S_18  and  N_21
REMARK    7  A    between atoms: N_21  and  C_22
REMARK    8  A    between atoms: C_22  and  C_23
REMARK                            x       y       z     vdW  Elec       q    Type
REMARK                         _______ _______ _______ _____ _____    ______ ____
ROOT
ATOM      1  C   UNL     1       3.018   6.437  17.911  0.00  0.00    +0.000 A 
ATOM      2  C   UNL     1       2.468   5.150  17.933  0.00  0.00    +0.000 A 
ATOM      3  C   UNL     1       3.249   4.022  17.711  0.00  0.00    +0.000 A 
ATOM      4  C   UNL     1       4.605   4.158  17.463  0.00  0.00    +0.000 A 
ATOM      5  C   UNL     1       5.172   5.433  17.422  0.00  0.00    +0.000 A 
ATOM      6  C   UNL     1       4.386   6.586  17.628  0.00  0.00    +0.000 A 
ENDROOT
BRANCH   1   9
ATOM      7  C   UNL     1       1.820   8.001  19.439  0.00  0.00    +0.000 C 
ATOM      8  O   UNL     1       2.119   7.494  20.511  0.00  0.00    +0.000 OA
ATOM      9  N   UNL     1       2.226   7.580  18.170  0.00  0.00    +0.000 N 
ATOM     10  H   UNL     1       2.062   8.207  17.391  0.00  0.00    +0.000 HD
BRANCH   7  15
ATOM     11  C   UNL     1      -0.547  10.757  18.361  0.00  0.00    +0.000 A 
ATOM     12  C   UNL     1      -0.520  11.561  19.503  0.00  0.00    +0.000 A 
ATOM     13  C   UNL     1       0.256  11.228  20.611  0.00  0.00    +0.000 A 
ATOM     14  C   UNL     1       1.018  10.068  20.598  0.00  0.00    +0.000 A 
ATOM     15  C   UNL     1       0.984   9.232  19.480  0.00  0.00    +0.000 A 
ATOM     16  C   UNL     1       0.202   9.574  18.357  0.00  0.00    +0.000 A 
BRANCH  11  20
ATOM     17  C   UNL     1      -3.097  11.005  15.582  0.00  0.00    +0.000 C 
ATOM     18  C   UNL     1      -2.525  10.504  16.880  0.00  0.00    +0.000 C 
ATOM     19  O   UNL     1      -3.131   9.652  17.521  0.00  0.00    +0.000 OA
ATOM     20  N   UNL     1      -1.319  11.100  17.225  0.00  0.00    +0.000 N 
ATOM     21  H   UNL     1      -1.026  11.910  16.694  0.00  0.00    +0.000 HD
ENDBRANCH  11  20
ENDBRANCH   7  15
ENDBRANCH   1   9
BRANCH   5  22
ATOM     22  S   UNL     1       6.941   5.554  17.275  0.00  0.00    +0.000 S 
ATOM     23  O   UNL     1       7.262   6.910  16.876  0.00  0.00    +0.000 OA
ATOM     24  O   UNL     1       7.506   4.955  18.461  0.00  0.00    +0.000 OA
BRANCH  22  25
ATOM     25  N   UNL     1       7.275   4.517  15.988  0.00  0.00    +0.000 NA
ATOM     26  H   UNL     1       6.611   3.743  15.940  0.00  0.00    +0.000 HD
BRANCH  25  27
ATOM     27  C   UNL     1       7.439   5.177  14.687  0.00  0.00    +0.000 C 
BRANCH  27  28
ATOM     28  C   UNL     1       6.671   4.403  13.679  0.00  0.00    +0.000 A 
ATOM     29  C   UNL     1       6.991   3.860  12.452  0.00  0.00    +0.000 A 
ATOM     30  C   UNL     1       5.815   3.232  11.976  0.00  0.00    +0.000 A 
ATOM     31  C   UNL     1       4.854   3.438  12.937  0.00  0.00    +0.000 A 
ATOM     32  O   UNL     1       5.365   4.144  13.979  0.00  0.00    +0.000 OA
ENDBRANCH  27  28
ENDBRANCH  25  27
ENDBRANCH  22  25
ENDBRANCH   5  22
TORSDOF 7
ENDMDL
MODEL 2
REMARK VINA RESULT:      -8.1      2.018      2.355
REMARK  Name = 
REMARK  8 active torsions:
REMARK  status: ('A' for Active; 'I' for Inactive)
REMARK    1  A    between atoms: C_1  and  C_2
REMARK    2  A    between atoms: N_4  and  C_5
REMARK    3  A    between atoms: C_9  and  C_10
REMARK    4  A    between atoms: N_12  and  C_13
REMARK    5  A    between atoms: C_17  and  S_18
REMARK    6  A    between atoms: S_18  and  N_21
REMARK    7  A    between atoms: N_21  and  C_22
REMARK    8  A    between atoms: C_22  and  C_23
REMARK                            x       y       z     vdW  Elec       q    Type
REMARK                         _______ _______ _______ _____ _____    ______ ____
ROOT
ATOM      1  C   UNL     1       3.291   5.872  18.157  0.00  0.00    +0.000 A 
ATOM      2  C   UNL     1       2.685   4.682  17.738  0.00  0.00    +0.000 A 
ATOM      3  C   UNL     1       3.403   3.699  17.066  0.00  0.00    +0.000 A 
ATOM      4  C   UNL     1       4.750   3.887  16.800  0.00  0.00    +0.000 A 
ATOM      5  C   UNL     1       5.370   5.072  17.196  0.00  0.00    +0.000 A 
ATOM      6  C   UNL     1       4.648   6.084  17.863  0.00  0.00    +0.000 A 
ENDROOT
BRANCH   1   9
ATOM      7  C   UNL     1       2.209   8.108  18.368  0.00  0.00    +0.000 C 
ATOM      8  O   UNL     1       2.414   8.531  17.238  0.00  0.00    +0.000 OA
ATOM      9  N   UNL     1       2.565   6.855  18.870  0.00  0.00    +0.000 N 
ATOM     10  H   UNL     1       2.161   6.570  19.755  0.00  0.00    +0.000 HD
BRANCH   7  15
ATOM     11  C   UNL     1       0.356  11.121  19.728  0.00  0.00    +0.000 A 
ATOM     12  C   UNL     1       0.101  10.682  21.030  0.00  0.00    +0.000 A 
ATOM     13  C   UNL     1       0.524   9.432  21.473  0.00  0.00    +0.000 A 
ATOM     14  C   UNL     1       1.209   8.587  20.611  0.00  0.00    +0.000 A 
ATOM     15  C   UNL     1       1.448   8.990  19.295  0.00  0.00    +0.000 A 
ATOM     16  C   UNL     1       1.024  10.260  18.850  0.00  0.00    +0.000 A 
BRANCH  11  20
ATOM     17  C   UNL     1       0.032  14.775  18.817  0.00  0.00    +0.000 C 
ATOM     18  C   UNL     1       0.745  13.533  19.277  0.00  0.00    +0.000 C 
ATOM     19  O   UNL     1       1.926  13.595  19.598  0.00  0.00    +0.000 OA
ATOM     20  N   UNL     1      -0.056  12.399  19.277  0.00  0.00    +0.000 N 
ATOM     21  H   UNL     1      -0.959  12.459  18.822  0.00  0.00    +0.000 HD
ENDBRANCH  11  20
ENDBRANCH   7  15
ENDBRANCH   1   9
BRANCH   5  22
ATOM     22  S   UNL     1       7.134   5.200  16.992  0.00  0.00    +0.000 S 
ATOM     23  O   UNL     1       7.461   6.601  16.827  0.00  0.00    +0.000 OA
ATOM     24  O   UNL     1       7.738   4.391  18.024  0.00  0.00    +0.000 OA
BRANCH  22  25
ATOM     25  N   UNL     1       7.391   4.406  15.525  0.00  0.00    +0.000 NA
ATOM     26  H   UNL     1       6.972   3.476  15.517  0.00  0.00    +0.000 HD
BRANCH  25  27
ATOM     27  C   UNL     1       7.029   5.180  14.331  0.00  0.00    +0.000 C 
BRANCH  27  28
ATOM     28  C   UNL     1       6.406   4.251  13.354  0.00  0.00    +0.000 A 
ATOM     29  C   UNL     1       5.104   3.875  13.097  0.00  0.00    +0.000 A 
ATOM     30  C   UNL     1       5.161   2.947  12.029  0.00  0.00    +0.000 A 
ATOM     31  C   UNL     1       6.492   2.812  11.710  0.00  0.00    +0.000 A 
ATOM     32  O   UNL     1       7.256   3.604  12.506  0.00  0.00    +0.000 OA
ENDBRANCH  27  28
ENDBRANCH  25  27
ENDBRANCH  22  25
ENDBRANCH   5  22
TORSDOF 7
ENDMDL
MODEL 3
REMARK VINA RESULT:      -8.1      1.199      1.421
REMARK  Name = 
REMARK  8 active torsions:
REMARK  status: ('A' for Active; 'I' for Inactive)
REMARK    1  A    between atoms: C_1  and  C_2
REMARK    2  A    between atoms: N_4  and  C_5
REMARK    3  A    between atoms: C_9  and  C_10
REMARK    4  A    between atoms: N_12  and  C_13
REMARK    5  A    between atoms: C_17  and  S_18
REMARK    6  A    between atoms: S_18  and  N_21
REMARK    7  A    between atoms: N_21  and  C_22
REMARK    8  A    between atoms: C_22  and  C_23
REMARK                            x       y       z     vdW  Elec       q    Type
REMARK                         _______ _______ _______ _____ _____    ______ ____
ROOT
ATOM      1  C   UNL     1       2.688   6.606  19.259  0.00  0.00    +0.000 A 
ATOM      2  C   UNL     1       2.257   5.437  19.897  0.00  0.00    +0.000 A 
ATOM      3  C   UNL     1       3.065   4.308  19.967  0.00  0.00    +0.000 A 
ATOM      4  C   UNL     1       4.329   4.326  19.399  0.00  0.00    +0.000 A 
ATOM      5  C   UNL     1       4.772   5.476  18.745  0.00  0.00    +0.000 A 
ATOM      6  C   UNL     1       3.954   6.622  18.652  0.00  0.00    +0.000 A 
ENDROOT
BRANCH   1   9
ATOM      7  C   UNL     1       1.468   8.495  20.337  0.00  0.00    +0.000 C 
ATOM      8  O   UNL     1       1.782   8.289  21.502  0.00  0.00    +0.000 OA
ATOM      9  N   UNL     1       1.876   7.764  19.219  0.00  0.00    +0.000 N 
ATOM     10  H   UNL     1       1.697   8.163  18.305  0.00  0.00    +0.000 HD
BRANCH   7  15
ATOM     11  C   UNL     1      -0.762  10.953  18.508  0.00  0.00    +0.000 A 
ATOM     12  C   UNL     1      -0.929  11.917  19.506  0.00  0.00    +0.000 A 
ATOM     13  C   UNL     1      -0.327  11.786  20.754  0.00  0.00    +0.000 A 
ATOM     14  C   UNL     1       0.453  10.673  21.033  0.00  0.00    +0.000 A 
ATOM     15  C   UNL     1       0.609   9.679  20.064  0.00  0.00    +0.000 A 
ATOM     16  C   UNL     1       0.003   9.817  18.798  0.00  0.00    +0.000 A 
BRANCH  11  20
ATOM     17  C   UNL     1      -2.852  10.668  15.373  0.00  0.00    +0.000 C 
ATOM     18  C   UNL     1      -2.476  10.388  16.802  0.00  0.00    +0.000 C 
ATOM     19  O   UNL     1      -3.150   9.606  17.464  0.00  0.00    +0.000 OA
ATOM     20  N   UNL     1      -1.357  11.089  17.231  0.00  0.00    +0.000 N 
ATOM     21  H   UNL     1      -1.008  11.829  16.635  0.00  0.00    +0.000 HD
ENDBRANCH  11  20
ENDBRANCH   7  15
ENDBRANCH   1   9
BRANCH   5  22
ATOM     22  S   UNL     1       6.461   5.517  18.184  0.00  0.00    +0.000 S 
ATOM     23  O   UNL     1       6.674   6.782  17.510  0.00  0.00    +0.000 OA
ATOM     24  O   UNL     1       7.285   5.095  19.292  0.00  0.00    +0.000 OA
BRANCH  22  25
ATOM     25  N   UNL     1       6.497   4.279  17.039  0.00  0.00    +0.000 NA
ATOM     26  H   UNL     1       6.500   3.356  17.475  0.00  0.00    +0.000 HD
BRANCH  25  27
ATOM     27  C   UNL     1       5.481   4.382  15.984  0.00  0.00    +0.000 C 
BRANCH  27  28
ATOM     28  C   UNL     1       6.182   4.411  14.674  0.00  0.00    +0.000 A 
ATOM     29  C   UNL     1       5.968   3.778  13.468  0.00  0.00    +0.000 A 
ATOM     30  C   UNL     1       6.989   4.227  12.596  0.00  0.00    +0.000 A 
ATOM     31  C   UNL     1       7.762   5.098  13.327  0.00  0.00    +0.000 A 
ATOM     32  O   UNL     1       7.277   5.221  14.590  0.00  0.00    +0.000 OA
ENDBRANCH  27  28
ENDBRANCH  25  27
ENDBRANCH  22  25
ENDBRANCH   5  22
TORSDOF 7
ENDMDL
MODEL 4
REMARK VINA RESULT:      -8.0      2.228      2.547
REMARK  Name = 
REMARK  8 active torsions:
REMARK  status: ('A' for Active; 'I' for Inactive)
REMARK    1  A    between atoms: C_1  and  C_2
REMARK    2  A    between atoms: N_4  and  C_5
REMARK    3  A    between atoms: C_9  and  C_10
REMARK    4  A    between atoms: N_12  and  C_13
REMARK    5  A    between atoms: C_17  and  S_18
REMARK    6  A    between atoms: S_18  and  N_21
REMARK    7  A    between atoms: N_21  and  C_22
REMARK    8  A    between atoms: C_22  and  C_23
REMARK                            x       y       z     vdW  Elec       q    Type
REMARK                         _______ _______ _______ _____ _____    ______ ____
ROOT
ATOM      1  C   UNL     1       2.960   6.207  18.224  0.00  0.00    +0.000 A 
ATOM      2  C   UNL     1       2.265   5.033  17.910  0.00  0.00    +0.000 A 
ATOM      3  C   UNL     1       2.897   3.958  17.295  0.00  0.00    +0.000 A 
ATOM      4  C   UNL     1       4.244   4.035  16.983  0.00  0.00    +0.000 A 
ATOM      5  C   UNL     1       4.953   5.201  17.275  0.00  0.00    +0.000 A 
ATOM      6  C   UNL     1       4.318   6.305  17.882  0.00  0.00    +0.000 A 
ENDROOT
BRANCH   1   9
ATOM      7  C   UNL     1       1.764   7.229  20.159  0.00  0.00    +0.000 C 
ATOM      8  O   UNL     1       1.783   6.275  20.925  0.00  0.00    +0.000 OA
ATOM      9  N   UNL     1       2.321   7.286  18.880  0.00  0.00    +0.000 N 
ATOM     10  H   UNL     1       2.401   8.196  18.441  0.00  0.00    +0.000 HD
BRANCH   7  15
ATOM     11  C   UNL     1       0.793  10.882  20.420  0.00  0.00    +0.000 A 
ATOM     12  C   UNL     1       0.043  10.851  21.598  0.00  0.00    +0.000 A 
ATOM     13  C   UNL     1      -0.147   9.669  22.310  0.00  0.00    +0.000 A 
ATOM     14  C   UNL     1       0.409   8.485  21.846  0.00  0.00    +0.000 A 
ATOM     15  C   UNL     1       1.136   8.485  20.654  0.00  0.00    +0.000 A 
ATOM     16  C   UNL     1       1.332   9.684  19.938  0.00  0.00    +0.000 A 
BRANCH  11  20
ATOM     17  C   UNL     1       1.775  14.329  19.222  0.00  0.00    +0.000 C 
ATOM     18  C   UNL     1       1.784  13.143  20.146  0.00  0.00    +0.000 C 
ATOM     19  O   UNL     1       2.450  13.182  21.175  0.00  0.00    +0.000 OA
ATOM     20  N   UNL     1       1.004  12.084  19.702  0.00  0.00    +0.000 N 
ATOM     21  H   UNL     1       0.652  12.124  18.754  0.00  0.00    +0.000 HD
ENDBRANCH  11  20
ENDBRANCH   7  15
ENDBRANCH   1   9
BRANCH   5  22
ATOM     22  S   UNL     1       6.714   5.193  17.018  0.00  0.00    +0.000 S 
ATOM     23  O   UNL     1       7.110   6.528  16.620  0.00  0.00    +0.000 OA
ATOM     24  O   UNL     1       7.303   4.530  18.157  0.00  0.00    +0.000 OA
BRANCH  22  25
ATOM     25  N   UNL     1       6.887   4.158  15.697  0.00  0.00    +0.000 NA
ATOM     26  H   UNL     1       6.109   3.503  15.622  0.00  0.00    +0.000 HD
BRANCH  25  27
ATOM     27  C   UNL     1       7.166   4.826  14.420  0.00  0.00    +0.000 C 
BRANCH  27  28
ATOM     28  C   UNL     1       6.448   4.088  13.350  0.00  0.00    +0.000 A 
ATOM     29  C   UNL     1       6.860   3.411  12.221  0.00  0.00    +0.000 A 
ATOM     30  C   UNL     1       5.687   2.916  11.603  0.00  0.00    +0.000 A 
ATOM     31  C   UNL     1       4.636   3.328  12.389  0.00  0.00    +0.000 A 
ATOM     32  O   UNL     1       5.088   4.036  13.456  0.00  0.00    +0.000 OA
ENDBRANCH  27  28
ENDBRANCH  25  27
ENDBRANCH  22  25
ENDBRANCH   5  22
TORSDOF 7
ENDMDL
MODEL 5
REMARK VINA RESULT:      -7.9      2.159      2.797
REMARK  Name = 
REMARK  8 active torsions:
REMARK  status: ('A' for Active; 'I' for Inactive)
REMARK    1  A    between atoms: C_1  and  C_2
REMARK    2  A    between atoms: N_4  and  C_5
REMARK    3  A    between atoms: C_9  and  C_10
REMARK    4  A    between atoms: N_12  and  C_13
REMARK    5  A    between atoms: C_17  and  S_18
REMARK    6  A    between atoms: S_18  and  N_21
REMARK    7  A    between atoms: N_21  and  C_22
REMARK    8  A    between atoms: C_22  and  C_23
REMARK                            x       y       z     vdW  Elec       q    Type
REMARK                         _______ _______ _______ _____ _____    ______ ____
ROOT
ATOM      1  C   UNL     1       2.893   6.664  18.059  0.00  0.00    +0.000 A 
ATOM      2  C   UNL     1       2.213   5.466  18.312  0.00  0.00    +0.000 A 
ATOM      3  C   UNL     1       2.860   4.237  18.248  0.00  0.00    +0.000 A 
ATOM      4  C   UNL     1       4.208   4.180  17.932  0.00  0.00    +0.000 A 
ATOM      5  C   UNL     1       4.901   5.361  17.662  0.00  0.00    +0.000 A 
ATOM      6  C   UNL     1       4.251   6.612  17.706  0.00  0.00    +0.000 A 
ENDROOT
BRANCH   1   9
ATOM      7  C   UNL     1       1.729   8.460  19.338  0.00  0.00    +0.000 C 
ATOM      8  O   UNL     1       1.808   7.982  20.461  0.00  0.00    +0.000 OA
ATOM      9  N   UNL     1       2.239   7.915  18.158  0.00  0.00    +0.000 N 
ATOM     10  H   UNL     1       2.271   8.510  17.339  0.00  0.00    +0.000 HD
BRANCH   7  15
ATOM     11  C   UNL     1       1.191  12.120  18.517  0.00  0.00    +0.000 A 
ATOM     12  C   UNL     1      -0.095  12.299  19.034  0.00  0.00    +0.000 A 
ATOM     13  C   UNL     1      -0.785  11.256  19.647  0.00  0.00    +0.000 A 
ATOM     14  C   UNL     1      -0.198  10.003  19.748  0.00  0.00    +0.000 A 
ATOM     15  C   UNL     1       1.074   9.791  19.211  0.00  0.00    +0.000 A 
ATOM     16  C   UNL     1       1.773  10.850  18.595  0.00  0.00    +0.000 A 
BRANCH  11  20
ATOM     17  C   UNL     1       3.315  15.140  17.707  0.00  0.00    +0.000 C 
ATOM     18  C   UNL     1       2.743  14.058  18.582  0.00  0.00    +0.000 C 
ATOM     19  O   UNL     1       3.044  14.017  19.770  0.00  0.00    +0.000 OA
ATOM     20  N   UNL     1       1.904  13.181  17.908  0.00  0.00    +0.000 N 
ATOM     21  H   UNL     1       1.885  13.231  16.897  0.00  0.00    +0.000 HD
ENDBRANCH  11  20
ENDBRANCH   7  15
ENDBRANCH   1   9
BRANCH   5  22
ATOM     22  S   UNL     1       6.663   5.260  17.433  0.00  0.00    +0.000 S 
ATOM     23  O   UNL     1       7.107   6.509  16.849  0.00  0.00    +0.000 OA
ATOM     24  O   UNL     1       7.220   4.752  18.664  0.00  0.00    +0.000 OA
BRANCH  22  25
ATOM     25  N   UNL     1       6.812   4.038  16.279  0.00  0.00    +0.000 NA
ATOM     26  H   UNL     1       6.924   3.119  16.709  0.00  0.00    +0.000 HD
BRANCH  25  27
ATOM     27  C   UNL     1       5.772   4.034  15.243  0.00  0.00    +0.000 C 
BRANCH  27  28
ATOM     28  C   UNL     1       6.433   4.229  13.928  0.00  0.00    +0.000 A 
ATOM     29  C   UNL     1       6.314   3.607  12.702  0.00  0.00    +0.000 A 
ATOM     30  C   UNL     1       7.224   4.258  11.836  0.00  0.00    +0.000 A 
ATOM     31  C   UNL     1       7.844   5.228  12.588  0.00  0.00    +0.000 A 
ATOM     32  O   UNL     1       7.366   5.223  13.860  0.00  0.00    +0.000 OA
ENDBRANCH  27  28
ENDBRANCH  25  27
ENDBRANCH  22  25
ENDBRANCH   5  22
TORSDOF 7
ENDMDL
MODEL 6
REMARK VINA RESULT:      -7.9      5.880      8.196
REMARK  Name = 
REMARK  8 active torsions:
REMARK  status: ('A' for Active; 'I' for Inactive)
REMARK    1  A    between atoms: C_1  and  C_2
REMARK    2  A    between atoms: N_4  and  C_5
REMARK    3  A    between atoms: C_9  and  C_10
REMARK    4  A    between atoms: N_12  and  C_13
REMARK    5  A    between atoms: C_17  and  S_18
REMARK    6  A    between atoms: S_18  and  N_21
REMARK    7  A    between atoms: N_21  and  C_22
REMARK    8  A    between atoms: C_22  and  C_23
REMARK                            x       y       z     vdW  Elec       q    Type
REMARK                         _______ _______ _______ _____ _____    ______ ____
ROOT
ATOM      1  C   UNL     1       8.027   8.087  17.999  0.00  0.00    +0.000 A 
ATOM      2  C   UNL     1       8.487   7.239  19.013  0.00  0.00    +0.000 A 
ATOM      3  C   UNL     1       7.928   5.983  19.218  0.00  0.00    +0.000 A 
ATOM      4  C   UNL     1       6.893   5.546  18.407  0.00  0.00    +0.000 A 
ATOM      5  C   UNL     1       6.409   6.381  17.400  0.00  0.00    +0.000 A 
ATOM      6  C   UNL     1       6.957   7.665  17.194  0.00  0.00    +0.000 A 
ENDROOT
BRANCH   1   9
ATOM      7  C   UNL     1       9.060  10.221  18.773  0.00  0.00    +0.000 C 
ATOM      8  O   UNL     1       9.053  10.015  19.978  0.00  0.00    +0.000 OA
ATOM      9  N   UNL     1       8.621   9.351  17.772  0.00  0.00    +0.000 N 
ATOM     10  H   UNL     1       8.867   9.573  16.814  0.00  0.00    +0.000 HD
BRANCH   7  15
ATOM     11  C   UNL     1       9.376  13.868  17.794  0.00  0.00    +0.000 A 
ATOM     12  C   UNL     1      10.707  13.890  17.368  0.00  0.00    +0.000 A 
ATOM     13  C   UNL     1      11.498  12.745  17.388  0.00  0.00    +0.000 A 
ATOM     14  C   UNL     1      10.969  11.546  17.846  0.00  0.00    +0.000 A 
ATOM     15  C   UNL     1       9.651  11.505  18.307  0.00  0.00    +0.000 A 
ATOM     16  C   UNL     1       8.850  12.666  18.281  0.00  0.00    +0.000 A 
BRANCH  11  20
ATOM     17  C   UNL     1       7.535  17.094  18.488  0.00  0.00    +0.000 C 
ATOM     18  C   UNL     1       8.551  16.013  18.735  0.00  0.00    +0.000 C 
ATOM     19  O   UNL     1       9.271  16.072  19.726  0.00  0.00    +0.000 OA
ATOM     20  N   UNL     1       8.562  15.026  17.759  0.00  0.00    +0.000 N 
ATOM     21  H   UNL     1       8.037  15.196  16.911  0.00  0.00    +0.000 HD
ENDBRANCH  11  20
ENDBRANCH   7  15
ENDBRANCH   1   9
BRANCH   5  22
ATOM     22  S   UNL     1       5.202   5.717  16.273  0.00  0.00    +0.000 S 
ATOM     23  O   UNL     1       4.987   6.695  15.226  0.00  0.00    +0.000 OA
ATOM     24  O   UNL     1       5.600   4.360  15.980  0.00  0.00    +0.000 OA
BRANCH  22  25
ATOM     25  N   UNL     1       3.815   5.632  17.230  0.00  0.00    +0.000 NA
ATOM     26  H   UNL     1       3.069   6.229  16.873  0.00  0.00    +0.000 HD
BRANCH  25  27
ATOM     27  C   UNL     1       3.340   4.272  17.512  0.00  0.00    +0.000 C 
BRANCH  27  28
ATOM     28  C   UNL     1       2.509   4.322  18.742  0.00  0.00    +0.000 A 
ATOM     29  C   UNL     1       1.354   3.679  19.135  0.00  0.00    +0.000 A 
ATOM     30  C   UNL     1       1.055   4.157  20.433  0.00  0.00    +0.000 A 
ATOM     31  C   UNL     1       2.041   5.064  20.745  0.00  0.00    +0.000 A 
ATOM     32  O   UNL     1       2.933   5.167  19.726  0.00  0.00    +0.000 OA
ENDBRANCH  27  28
ENDBRANCH  25  27
ENDBRANCH  22  25
ENDBRANCH   5  22
TORSDOF 7
ENDMDL
MODEL 7
REMARK VINA RESULT:      -7.9      2.841      4.380
REMARK  Name = 
REMARK  8 active torsions:
REMARK  status: ('A' for Active; 'I' for Inactive)
REMARK    1  A    between atoms: C_1  and  C_2
REMARK    2  A    between atoms: N_4  and  C_5
REMARK    3  A    between atoms: C_9  and  C_10
REMARK    4  A    between atoms: N_12  and  C_13
REMARK    5  A    between atoms: C_17  and  S_18
REMARK    6  A    between atoms: S_18  and  N_21
REMARK    7  A    between atoms: N_21  and  C_22
REMARK    8  A    between atoms: C_22  and  C_23
REMARK                            x       y       z     vdW  Elec       q    Type
REMARK                         _______ _______ _______ _____ _____    ______ ____
ROOT
ATOM      1  C   UNL     1       3.202   5.983  18.331  0.00  0.00    +0.000 A 
ATOM      2  C   UNL     1       2.650   4.738  18.008  0.00  0.00    +0.000 A 
ATOM      3  C   UNL     1       3.322   3.837  17.190  0.00  0.00    +0.000 A 
ATOM      4  C   UNL     1       4.566   4.163  16.676  0.00  0.00    +0.000 A 
ATOM      5  C   UNL     1       5.128   5.405  16.973  0.00  0.00    +0.000 A 
ATOM      6  C   UNL     1       4.448   6.335  17.788  0.00  0.00    +0.000 A 
ENDROOT
BRANCH   1   9
ATOM      7  C   UNL     1       1.986   8.109  18.800  0.00  0.00    +0.000 C 
ATOM      8  O   UNL     1       1.953   8.568  17.667  0.00  0.00    +0.000 OA
ATOM      9  N   UNL     1       2.531   6.884  19.191  0.00  0.00    +0.000 N 
ATOM     10  H   UNL     1       2.314   6.548  20.122  0.00  0.00    +0.000 HD
BRANCH   7  15
ATOM     11  C   UNL     1       0.503  11.044  20.684  0.00  0.00    +0.000 A 
ATOM     12  C   UNL     1       0.175  10.417  21.889  0.00  0.00    +0.000 A 
ATOM     13  C   UNL     1       0.431   9.065  22.101  0.00  0.00    +0.000 A 
ATOM     14  C   UNL     1       1.018   8.306  21.099  0.00  0.00    +0.000 A 
ATOM     15  C   UNL     1       1.327   8.902  19.874  0.00  0.00    +0.000 A 
ATOM     16  C   UNL     1       1.072  10.273  19.663  0.00  0.00    +0.000 A 
BRANCH  11  20
ATOM     17  C   UNL     1      -0.831  14.432  19.673  0.00  0.00    +0.000 C 
ATOM     18  C   UNL     1      -0.863  12.938  19.839  0.00  0.00    +0.000 C 
ATOM     19  O   UNL     1      -1.833  12.304  19.435  0.00  0.00    +0.000 OA
ATOM     20  N   UNL     1       0.261  12.422  20.469  0.00  0.00    +0.000 N 
ATOM     21  H   UNL     1       0.899  13.076  20.904  0.00  0.00    +0.000 HD
ENDBRANCH  11  20
ENDBRANCH   7  15
ENDBRANCH   1   9
BRANCH   5  22
ATOM     22  S   UNL     1       6.797   5.715  16.440  0.00  0.00    +0.000 S 
ATOM     23  O   UNL     1       7.670   4.816  17.168  0.00  0.00    +0.000 OA
ATOM     24  O   UNL     1       6.778   5.756  14.996  0.00  0.00    +0.000 OA
BRANCH  22  25
ATOM     25  N   UNL     1       7.068   7.290  16.978  0.00  0.00    +0.000 NA
ATOM     26  H   UNL     1       6.195   7.799  17.121  0.00  0.00    +0.000 HD
BRANCH  25  27
ATOM     27  C   UNL     1       7.963   7.403  18.136  0.00  0.00    +0.000 C 
BRANCH  27  28
ATOM     28  C   UNL     1       8.381   8.823  18.257  0.00  0.00    +0.000 A 
ATOM     29  C   UNL     1       8.159   9.947  17.489  0.00  0.00    +0.000 A 
ATOM     30  C   UNL     1       8.829  11.011  18.139  0.00  0.00    +0.000 A 
ATOM     31  C   UNL     1       9.421  10.468  19.255  0.00  0.00    +0.000 A 
ATOM     32  O   UNL     1       9.151   9.139  19.338  0.00  0.00    +0.000 OA
ENDBRANCH  27  28
ENDBRANCH  25  27
ENDBRANCH  22  25
ENDBRANCH   5  22
TORSDOF 7
ENDMDL
MODEL 8
REMARK VINA RESULT:      -7.9      2.429      2.891
REMARK  Name = 
REMARK  8 active torsions:
REMARK  status: ('A' for Active; 'I' for Inactive)
REMARK    1  A    between atoms: C_1  and  C_2
REMARK    2  A    between atoms: N_4  and  C_5
REMARK    3  A    between atoms: C_9  and  C_10
REMARK    4  A    between atoms: N_12  and  C_13
REMARK    5  A    between atoms: C_17  and  S_18
REMARK    6  A    between atoms: S_18  and  N_21
REMARK    7  A    between atoms: N_21  and  C_22
REMARK    8  A    between atoms: C_22  and  C_23
REMARK                            x       y       z     vdW  Elec       q    Type
REMARK                         _______ _______ _______ _____ _____    ______ ____
ROOT
ATOM      1  C   UNL     1       3.028   5.661  19.907  0.00  0.00    +0.000 A 
ATOM      2  C   UNL     1       2.534   4.372  19.674  0.00  0.00    +0.000 A 
ATOM      3  C   UNL     1       3.337   3.371  19.141  0.00  0.00    +0.000 A 
ATOM      4  C   UNL     1       4.660   3.639  18.829  0.00  0.00    +0.000 A 
ATOM      5  C   UNL     1       5.170   4.920  19.039  0.00  0.00    +0.000 A 
ATOM      6  C   UNL     1       4.360   5.949  19.563  0.00  0.00    +0.000 A 
ENDROOT
BRANCH   1   9
ATOM      7  C   UNL     1       1.885   7.876  19.864  0.00  0.00    +0.000 C 
ATOM      8  O   UNL     1       2.190   8.231  18.734  0.00  0.00    +0.000 OA
ATOM      9  N   UNL     1       2.217   6.668  20.481  0.00  0.00    +0.000 N 
ATOM     10  H   UNL     1       1.736   6.430  21.340  0.00  0.00    +0.000 HD
BRANCH   7  15
ATOM     11  C   UNL     1      -0.207  10.890  20.812  0.00  0.00    +0.000 A 
ATOM     12  C   UNL     1      -0.522  10.561  22.134  0.00  0.00    +0.000 A 
ATOM     13  C   UNL     1      -0.064   9.384  22.721  0.00  0.00    +0.000 A 
ATOM     14  C   UNL     1       0.719   8.504  21.987  0.00  0.00    +0.000 A 
ATOM     15  C   UNL     1       1.022   8.795  20.655  0.00  0.00    +0.000 A 
ATOM     16  C   UNL     1       0.560   9.990  20.064  0.00  0.00    +0.000 A 
BRANCH  11  20
ATOM     17  C   UNL     1      -0.649  14.409  19.506  0.00  0.00    +0.000 C 
ATOM     18  C   UNL     1       0.098  13.254  20.116  0.00  0.00    +0.000 C 
ATOM     19  O   UNL     1       1.266  13.402  20.461  0.00  0.00    +0.000 OA
ATOM     20  N   UNL     1      -0.656  12.093  20.216  0.00  0.00    +0.000 N 
ATOM     21  H   UNL     1      -1.545  12.066  19.733  0.00  0.00    +0.000 HD
ENDBRANCH  11  20
ENDBRANCH   7  15
ENDBRANCH   1   9
BRANCH   5  22
ATOM     22  S   UNL     1       6.914   5.175  18.791  0.00  0.00    +0.000 S 
ATOM     23  O   UNL     1       7.494   5.550  20.065  0.00  0.00    +0.000 OA
ATOM     24  O   UNL     1       7.401   4.047  18.033  0.00  0.00    +0.000 OA
BRANCH  22  25
ATOM     25  N   UNL     1       6.946   6.513  17.765  0.00  0.00    +0.000 NA
ATOM     26  H   UNL     1       7.839   6.599  17.278  0.00  0.00    +0.000 HD
BRANCH  25  27
ATOM     27  C   UNL     1       5.809   6.614  16.842  0.00  0.00    +0.000 C 
BRANCH  27  28
ATOM     28  C   UNL     1       6.035   5.657  15.729  0.00  0.00    +0.000 A 
ATOM     29  C   UNL     1       5.267   4.664  15.158  0.00  0.00    +0.000 A 
ATOM     30  C   UNL     1       6.050   4.102  14.121  0.00  0.00    +0.000 A 
ATOM     31  C   UNL     1       7.245   4.782  14.131  0.00  0.00    +0.000 A 
ATOM     32  O   UNL     1       7.244   5.733  15.101  0.00  0.00    +0.000 OA
ENDBRANCH  27  28
ENDBRANCH  25  27
ENDBRANCH  22  25
ENDBRANCH   5  22
TORSDOF 7
ENDMDL
MODEL 9
REMARK VINA RESULT:      -7.8      2.943      3.738
REMARK  Name = 
REMARK  8 active torsions:
REMARK  status: ('A' for Active; 'I' for Inactive)
REMARK    1  A    between atoms: C_1  and  C_2
REMARK    2  A    between atoms: N_4  and  C_5
REMARK    3  A    between atoms: C_9  and  C_10
REMARK    4  A    between atoms: N_12  and  C_13
REMARK    5  A    between atoms: C_17  and  S_18
REMARK    6  A    between atoms: S_18  and  N_21
REMARK    7  A    between atoms: N_21  and  C_22
REMARK    8  A    between atoms: C_22  and  C_23
REMARK                            x       y       z     vdW  Elec       q    Type
REMARK                         _______ _______ _______ _____ _____    ______ ____
ROOT
ATOM      1  C   UNL     1       2.192   7.051  19.791  0.00  0.00    +0.000 A 
ATOM      2  C   UNL     1       1.445   6.173  20.585  0.00  0.00    +0.000 A 
ATOM      3  C   UNL     1       1.848   4.859  20.791  0.00  0.00    +0.000 A 
ATOM      4  C   UNL     1       3.014   4.393  20.206  0.00  0.00    +0.000 A 
ATOM      5  C   UNL     1       3.767   5.246  19.399  0.00  0.00    +0.000 A 
ATOM      6  C   UNL     1       3.359   6.577  19.168  0.00  0.00    +0.000 A 
ENDROOT
BRANCH   1   9
ATOM      7  C   UNL     1       1.851   9.092  18.400  0.00  0.00    +0.000 C 
ATOM      8  O   UNL     1       2.189   8.645  17.313  0.00  0.00    +0.000 OA
ATOM      9  N   UNL     1       1.797   8.397  19.611  0.00  0.00    +0.000 N 
ATOM     10  H   UNL     1       1.315   8.837  20.385  0.00  0.00    +0.000 HD
BRANCH   7  15
ATOM     11  C   UNL     1       1.884  12.874  18.177  0.00  0.00    +0.000 A 
ATOM     12  C   UNL     1       0.576  13.153  18.582  0.00  0.00    +0.000 A 
ATOM     13  C   UNL     1      -0.311  12.137  18.932  0.00  0.00    +0.000 A 
ATOM     14  C   UNL     1       0.097  10.812  18.872  0.00  0.00    +0.000 A 
ATOM     15  C   UNL     1       1.389  10.506  18.440  0.00  0.00    +0.000 A 
ATOM     16  C   UNL     1       2.287  11.537  18.092  0.00  0.00    +0.000 A 
BRANCH  11  20
ATOM     17  C   UNL     1       4.397  15.696  18.130  0.00  0.00    +0.000 C 
ATOM     18  C   UNL     1       3.573  14.602  18.751  0.00  0.00    +0.000 C 
ATOM     19  O   UNL     1       3.642  14.403  19.959  0.00  0.00    +0.000 OA
ATOM     20  N   UNL     1       2.795  13.903  17.838  0.00  0.00    +0.000 N 
ATOM     21  H   UNL     1       2.970  14.060  16.853  0.00  0.00    +0.000 HD
ENDBRANCH  11  20
ENDBRANCH   7  15
ENDBRANCH   1   9
BRANCH   5  22
ATOM     22  S   UNL     1       5.343   4.664  18.811  0.00  0.00    +0.000 S 
ATOM     23  O   UNL     1       6.339   4.995  19.810  0.00  0.00    +0.000 OA
ATOM     24  O   UNL     1       5.146   3.311  18.348  0.00  0.00    +0.000 OA
BRANCH  22  25
ATOM     25  N   UNL     1       5.602   5.623  17.448  0.00  0.00    +0.000 NA
ATOM     26  H   UNL     1       5.357   6.599  17.616  0.00  0.00    +0.000 HD
BRANCH  25  27
ATOM     27  C   UNL     1       6.932   5.489  16.841  0.00  0.00    +0.000 C 
BRANCH  27  28
ATOM     28  C   UNL     1       6.758   4.935  15.473  0.00  0.00    +0.000 A 
ATOM     29  C   UNL     1       5.891   4.014  14.924  0.00  0.00    +0.000 A 
ATOM     30  C   UNL     1       6.233   3.914  13.554  0.00  0.00    +0.000 A 
ATOM     31  C   UNL     1       7.288   4.773  13.358  0.00  0.00    +0.000 A 
ATOM     32  O   UNL     1       7.612   5.403  14.517  0.00  0.00    +0.000 OA
ENDBRANCH  27  28
ENDBRANCH  25  27
ENDBRANCH  22  25
ENDBRANCH   5  22
TORSDOF 7
ENDMDL
