MODEL 1
REMARK VINA RESULT:      -7.9      0.000      0.000
REMARK  Name = 
REMARK  6 active torsions:
REMARK  status: ('A' for Active; 'I' for Inactive)
REMARK    1  A    between atoms: C_1  and  O_2
REMARK    2  A    between atoms: O_2  and  C_3
REMARK    3  A    between atoms: C_7  and  C_8
REMARK    4  A    between atoms: C_10  and  C_11
REMARK    5  A    between atoms: N_16  and  C_17
REMARK    6  A    between atoms: C_17  and  C_18
REMARK                            x       y       z     vdW  Elec       q    Type
REMARK                         _______ _______ _______ _____ _____    ______ ____
ROOT
ATOM      1  C   UNL     1       0.459  10.289  19.762  0.00  0.00    +0.000 C 
ATOM      2  O   UNL     1       0.828  10.782  20.831  0.00  0.00    +0.000 OA
ATOM      3  N   UNL     1      -0.799  10.583  19.235  0.00  0.00    +0.000 N 
ATOM      4  C   UNL     1      -1.599  11.651  19.835  0.00  0.00    +0.000 C 
ATOM      5  C   UNL     1      -2.295  12.499  18.745  0.00  0.00    +0.000 C 
ATOM      6  N   UNL     1      -3.066  11.720  17.744  0.00  0.00    +0.000 NA
ATOM      7  C   UNL     1      -2.182  10.660  17.194  0.00  0.00    +0.000 C 
ATOM      8  C   UNL     1      -1.533   9.765  18.261  0.00  0.00    +0.000 C 
ENDROOT
BRANCH   1  11
ATOM      9  C   UNL     1       2.536   7.773  18.141  0.00  0.00    +0.000 A 
ATOM     10  C   UNL     1       1.750   8.118  19.270  0.00  0.00    +0.000 A 
ATOM     11  C   UNL     1       1.313   9.397  19.017  0.00  0.00    +0.000 A 
ATOM     12  O   UNL     1       1.912   9.832  17.873  0.00  0.00    +0.000 OA
ATOM     13  N   UNL     1       2.621   8.808  17.289  0.00  0.00    +0.000 NA
BRANCH   9  18
ATOM     14  C   UNL     1       5.211   5.365  17.108  0.00  0.00    +0.000 A 
ATOM     15  C   UNL     1       4.529   4.149  17.212  0.00  0.00    +0.000 A 
ATOM     16  C   UNL     1       3.206   4.112  17.656  0.00  0.00    +0.000 A 
ATOM     17  C   UNL     1       2.551   5.299  17.977  0.00  0.00    +0.000 A 
ATOM     18  C   UNL     1       3.222   6.524  17.868  0.00  0.00    +0.000 A 
ATOM     19  C   UNL     1       4.563   6.546  17.454  0.00  0.00    +0.000 A 
BRANCH  14  21
ATOM     20  C   UNL     1       7.447   4.649  17.477  0.00  0.00    +0.000 C 
ATOM     21  O   UNL     1       6.489   5.270  16.626  0.00  0.00    +0.000 OA
ENDBRANCH  14  21
ENDBRANCH   9  18
ENDBRANCH   1  11
BRANCH   6  22
ATOM     22  C   UNL     1      -4.326  11.220  18.337  0.00  0.00    +0.000 C 
BRANCH  22  23
ATOM     23  C   UNL     1      -5.428  12.259  18.355  0.00  0.00    +0.000 A 
ATOM     24  C   UNL     1      -5.771  12.927  19.556  0.00  0.00    +0.000 A 
ATOM     25  C   UNL     1      -6.542  14.094  19.529  0.00  0.00    +0.000 A 
ATOM     26  C   UNL     1      -6.903  14.577  18.292  0.00  0.00    +0.000 A 
ATOM     27  C   UNL     1      -6.648  13.878  17.132  0.00  0.00    +0.000 A 
ATOM     28  C   UNL     1      -5.965  12.687  17.132  0.00  0.00    +0.000 A 
ATOM     29  O   UNL     1      -6.990  14.585  16.018  0.00  0.00    +0.000 OA
ATOM     30  C   UNL     1      -7.104  15.890  16.619  0.00  0.00    +0.000 C 
ATOM     31  O   UNL     1      -7.413  15.814  18.028  0.00  0.00    +0.000 OA
ENDBRANCH  22  23
ENDBRANCH   6  22
TORSDOF 5
ENDMDL
MODEL 2
REMARK VINA RESULT:      -7.7      2.604      3.510
REMARK  Name = 
REMARK  6 active torsions:
REMARK  status: ('A' for Active; 'I' for Inactive)
REMARK    1  A    between atoms: C_1  and  O_2
REMARK    2  A    between atoms: O_2  and  C_3
REMARK    3  A    between atoms: C_7  and  C_8
REMARK    4  A    between atoms: C_10  and  C_11
REMARK    5  A    between atoms: N_16  and  C_17
REMARK    6  A    between atoms: C_17  and  C_18
REMARK                            x       y       z     vdW  Elec       q    Type
REMARK                         _______ _______ _______ _____ _____    ______ ____
ROOT
ATOM      1  C   UNL     1       1.703  10.698  18.449  0.00  0.00    +0.000 C 
ATOM      2  O   UNL     1       2.531  11.512  18.033  0.00  0.00    +0.000 OA
ATOM      3  N   UNL     1       0.429  11.111  18.842  0.00  0.00    +0.000 N 
ATOM      4  C   UNL     1      -0.006  12.477  18.551  0.00  0.00    +0.000 C 
ATOM      5  C   UNL     1      -1.478  12.500  18.078  0.00  0.00    +0.000 C 
ATOM      6  N   UNL     1      -2.431  11.788  18.966  0.00  0.00    +0.000 NA
ATOM      7  C   UNL     1      -1.910  10.419  19.211  0.00  0.00    +0.000 C 
ATOM      8  C   UNL     1      -0.469  10.379  19.745  0.00  0.00    +0.000 C 
ENDROOT
BRANCH   1  11
ATOM      9  C   UNL     1       2.620   7.174  18.327  0.00  0.00    +0.000 A 
ATOM     10  C   UNL     1       2.469   8.388  17.609  0.00  0.00    +0.000 A 
ATOM     11  C   UNL     1       2.017   9.293  18.542  0.00  0.00    +0.000 A 
ATOM     12  O   UNL     1       1.787   8.624  19.707  0.00  0.00    +0.000 OA
ATOM     13  N   UNL     1       2.220   7.323  19.600  0.00  0.00    +0.000 NA
BRANCH   9  18
ATOM     14  C   UNL     1       2.772   3.500  17.623  0.00  0.00    +0.000 A 
ATOM     15  C   UNL     1       4.032   3.395  17.027  0.00  0.00    +0.000 A 
ATOM     16  C   UNL     1       4.818   4.530  16.821  0.00  0.00    +0.000 A 
ATOM     17  C   UNL     1       4.352   5.777  17.232  0.00  0.00    +0.000 A 
ATOM     18  C   UNL     1       3.094   5.892  17.839  0.00  0.00    +0.000 A 
ATOM     19  C   UNL     1       2.298   4.750  18.009  0.00  0.00    +0.000 A 
BRANCH  14  21
ATOM     20  C   UNL     1       1.142   2.267  18.837  0.00  0.00    +0.000 C 
ATOM     21  O   UNL     1       2.118   2.310  17.801  0.00  0.00    +0.000 OA
ENDBRANCH  14  21
ENDBRANCH   9  18
ENDBRANCH   1  11
BRANCH   6  22
ATOM     22  C   UNL     1      -2.682  12.577  20.193  0.00  0.00    +0.000 C 
BRANCH  22  23
ATOM     23  C   UNL     1      -4.155  12.753  20.496  0.00  0.00    +0.000 A 
ATOM     24  C   UNL     1      -5.140  12.239  19.617  0.00  0.00    +0.000 A 
ATOM     25  C   UNL     1      -6.469  12.107  20.032  0.00  0.00    +0.000 A 
ATOM     26  C   UNL     1      -6.756  12.453  21.332  0.00  0.00    +0.000 A 
ATOM     27  C   UNL     1      -5.819  13.038  22.156  0.00  0.00    +0.000 A 
ATOM     28  C   UNL     1      -4.526  13.257  21.751  0.00  0.00    +0.000 A 
ATOM     29  O   UNL     1      -6.279  13.196  23.429  0.00  0.00    +0.000 OA
ATOM     30  C   UNL     1      -7.412  12.309  23.360  0.00  0.00    +0.000 C 
ATOM     31  O   UNL     1      -7.902  12.159  22.010  0.00  0.00    +0.000 OA
ENDBRANCH  22  23
ENDBRANCH   6  22
TORSDOF 5
ENDMDL
MODEL 3
REMARK VINA RESULT:      -7.7      3.891      4.810
REMARK  Name = 
REMARK  6 active torsions:
REMARK  status: ('A' for Active; 'I' for Inactive)
REMARK    1  A    between atoms: C_1  and  O_2
REMARK    2  A    between atoms: O_2  and  C_3
REMARK    3  A    between atoms: C_7  and  C_8
REMARK    4  A    between atoms: C_10  and  C_11
REMARK    5  A    between atoms: N_16  and  C_17
REMARK    6  A    between atoms: C_17  and  C_18
REMARK                            x       y       z     vdW  Elec       q    Type
REMARK                         _______ _______ _______ _____ _____    ______ ____
ROOT
ATOM      1  C   UNL     1       1.973   9.946  18.135  0.00  0.00    +0.000 C 
ATOM      2  O   UNL     1       2.311  10.744  17.256  0.00  0.00    +0.000 OA
ATOM      3  N   UNL     1       1.225  10.367  19.234  0.00  0.00    +0.000 N 
ATOM      4  C   UNL     1       0.646  11.710  19.239  0.00  0.00    +0.000 C 
ATOM      5  C   UNL     1      -0.790  11.690  19.815  0.00  0.00    +0.000 C 
ATOM      6  N   UNL     1      -0.927  11.019  21.131  0.00  0.00    +0.000 NA
ATOM      7  C   UNL     1      -0.310   9.671  21.036  0.00  0.00    +0.000 C 
ATOM      8  C   UNL     1       1.141   9.676  20.528  0.00  0.00    +0.000 C 
ENDROOT
BRANCH   1  11
ATOM      9  C   UNL     1       2.544   6.348  18.067  0.00  0.00    +0.000 A 
ATOM     10  C   UNL     1       1.682   7.408  18.451  0.00  0.00    +0.000 A 
ATOM     11  C   UNL     1       2.336   8.552  18.056  0.00  0.00    +0.000 A 
ATOM     12  O   UNL     1       3.567   8.199  17.590  0.00  0.00    +0.000 OA
ATOM     13  N   UNL     1       3.678   6.829  17.533  0.00  0.00    +0.000 NA
BRANCH   9  18
ATOM     14  C   UNL     1       1.585   3.060  19.581  0.00  0.00    +0.000 A 
ATOM     15  C   UNL     1       2.045   2.173  18.604  0.00  0.00    +0.000 A 
ATOM     16  C   UNL     1       2.636   2.650  17.432  0.00  0.00    +0.000 A 
ATOM     17  C   UNL     1       2.788   4.022  17.244  0.00  0.00    +0.000 A 
ATOM     18  C   UNL     1       2.338   4.920  18.221  0.00  0.00    +0.000 A 
ATOM     19  C   UNL     1       1.715   4.430  19.378  0.00  0.00    +0.000 A 
BRANCH  14  21
ATOM     20  C   UNL     1       1.786   2.631  21.910  0.00  0.00    +0.000 C 
ATOM     21  O   UNL     1       1.060   2.466  20.698  0.00  0.00    +0.000 OA
ENDBRANCH  14  21
ENDBRANCH   9  18
ENDBRANCH   1  11
BRANCH   6  22
ATOM     22  C   UNL     1      -0.373  11.872  22.207  0.00  0.00    +0.000 C 
BRANCH  22  23
ATOM     23  C   UNL     1      -1.439  12.606  22.992  0.00  0.00    +0.000 A 
ATOM     24  C   UNL     1      -1.338  14.001  23.218  0.00  0.00    +0.000 A 
ATOM     25  C   UNL     1      -2.447  14.737  23.648  0.00  0.00    +0.000 A 
ATOM     26  C   UNL     1      -3.633  14.056  23.791  0.00  0.00    +0.000 A 
ATOM     27  C   UNL     1      -3.709  12.686  23.659  0.00  0.00    +0.000 A 
ATOM     28  C   UNL     1      -2.620  11.923  23.319  0.00  0.00    +0.000 A 
ATOM     29  O   UNL     1      -4.992  12.231  23.732  0.00  0.00    +0.000 OA
ATOM     30  C   UNL     1      -5.676  13.484  23.532  0.00  0.00    +0.000 C 
ATOM     31  O   UNL     1      -4.870  14.612  23.937  0.00  0.00    +0.000 OA
ENDBRANCH  22  23
ENDBRANCH   6  22
TORSDOF 5
ENDMDL
MODEL 4
REMARK VINA RESULT:      -7.7      4.307      5.229
REMARK  Name = 
REMARK  6 active torsions:
REMARK  status: ('A' for Active; 'I' for Inactive)
REMARK    1  A    between atoms: C_1  and  O_2
REMARK    2  A    between atoms: O_2  and  C_3
REMARK    3  A    between atoms: C_7  and  C_8
REMARK    4  A    between atoms: C_10  and  C_11
REMARK    5  A    between atoms: N_16  and  C_17
REMARK    6  A    between atoms: C_17  and  C_18
REMARK                            x       y       z     vdW  Elec       q    Type
REMARK                         _______ _______ _______ _____ _____    ______ ____
ROOT
ATOM      1  C   UNL     1       1.947   9.665  18.249  0.00  0.00    +0.000 C 
ATOM      2  O   UNL     1       2.170  10.521  17.389  0.00  0.00    +0.000 OA
ATOM      3  N   UNL     1       1.204   9.972  19.389  0.00  0.00    +0.000 N 
ATOM      4  C   UNL     1       0.495  11.250  19.463  0.00  0.00    +0.000 C 
ATOM      5  C   UNL     1      -0.908  11.068  20.088  0.00  0.00    +0.000 C 
ATOM      6  N   UNL     1      -0.926  10.344  21.383  0.00  0.00    +0.000 NA
ATOM      7  C   UNL     1      -0.183   9.068  21.217  0.00  0.00    +0.000 C 
ATOM      8  C   UNL     1       1.239   9.235  20.659  0.00  0.00    +0.000 C 
ENDROOT
BRANCH   1  11
ATOM      9  C   UNL     1       2.876   6.147  18.052  0.00  0.00    +0.000 A 
ATOM     10  C   UNL     1       1.951   7.107  18.538  0.00  0.00    +0.000 A 
ATOM     11  C   UNL     1       2.443   8.318  18.107  0.00  0.00    +0.000 A 
ATOM     12  O   UNL     1       3.653   8.100  17.520  0.00  0.00    +0.000 OA
ATOM     13  N   UNL     1       3.898   6.750  17.424  0.00  0.00    +0.000 NA
BRANCH   9  18
ATOM     14  C   UNL     1       2.072   2.754  19.415  0.00  0.00    +0.000 A 
ATOM     15  C   UNL     1       2.837   1.941  18.574  0.00  0.00    +0.000 A 
ATOM     16  C   UNL     1       3.588   2.499  17.537  0.00  0.00    +0.000 A 
ATOM     17  C   UNL     1       3.592   3.879  17.351  0.00  0.00    +0.000 A 
ATOM     18  C   UNL     1       2.835   4.704  18.194  0.00  0.00    +0.000 A 
ATOM     19  C   UNL     1       2.057   4.130  19.211  0.00  0.00    +0.000 A 
BRANCH  14  21
ATOM     20  C   UNL     1       1.578   2.595  21.734  0.00  0.00    +0.000 C 
ATOM     21  O   UNL     1       1.412   2.090  20.414  0.00  0.00    +0.000 OA
ENDBRANCH  14  21
ENDBRANCH   9  18
ENDBRANCH   1  11
BRANCH   6  22
ATOM     22  C   UNL     1      -0.418  11.212  22.469  0.00  0.00    +0.000 C 
BRANCH  22  23
ATOM     23  C   UNL     1      -1.401  12.290  22.877  0.00  0.00    +0.000 A 
ATOM     24  C   UNL     1      -2.725  11.956  23.254  0.00  0.00    +0.000 A 
ATOM     25  C   UNL     1      -3.529  12.878  23.931  0.00  0.00    +0.000 A 
ATOM     26  C   UNL     1      -2.960  14.089  24.249  0.00  0.00    +0.000 A 
ATOM     27  C   UNL     1      -1.706  14.446  23.804  0.00  0.00    +0.000 A 
ATOM     28  C   UNL     1      -0.923  13.595  23.066  0.00  0.00    +0.000 A 
ATOM     29  O   UNL     1      -1.294  15.637  24.324  0.00  0.00    +0.000 OA
ATOM     30  C   UNL     1      -2.249  15.745  25.398  0.00  0.00    +0.000 C 
ATOM     31  O   UNL     1      -3.462  15.011  25.121  0.00  0.00    +0.000 OA
ENDBRANCH  22  23
ENDBRANCH   6  22
TORSDOF 5
ENDMDL
MODEL 5
REMARK VINA RESULT:      -7.6      4.602      7.341
REMARK  Name = 
REMARK  6 active torsions:
REMARK  status: ('A' for Active; 'I' for Inactive)
REMARK    1  A    between atoms: C_1  and  O_2
REMARK    2  A    between atoms: O_2  and  C_3
REMARK    3  A    between atoms: C_7  and  C_8
REMARK    4  A    between atoms: C_10  and  C_11
REMARK    5  A    between atoms: N_16  and  C_17
REMARK    6  A    between atoms: C_17  and  C_18
REMARK                            x       y       z     vdW  Elec       q    Type
REMARK                         _______ _______ _______ _____ _____    ______ ____
ROOT
ATOM      1  C   UNL     1       0.014  11.044  18.616  0.00  0.00    +0.000 C 
ATOM      2  O   UNL     1      -1.188  10.992  18.341  0.00  0.00    +0.000 OA
ATOM      3  N   UNL     1       0.649  12.270  18.822  0.00  0.00    +0.000 N 
ATOM      4  C   UNL     1      -0.156  13.486  18.935  0.00  0.00    +0.000 C 
ATOM      5  C   UNL     1       0.385  14.404  20.056  0.00  0.00    +0.000 C 
ATOM      6  N   UNL     1       1.837  14.701  19.976  0.00  0.00    +0.000 NA
ATOM      7  C   UNL     1       2.572  13.415  19.859  0.00  0.00    +0.000 C 
ATOM      8  C   UNL     1       2.092  12.517  18.707  0.00  0.00    +0.000 C 
ENDROOT
BRANCH   1  11
ATOM      9  C   UNL     1       2.071   8.038  18.547  0.00  0.00    +0.000 A 
ATOM     10  C   UNL     1       1.417   9.048  17.796  0.00  0.00    +0.000 A 
ATOM     11  C   UNL     1       0.805   9.844  18.736  0.00  0.00    +0.000 A 
ATOM     12  O   UNL     1       0.973   9.264  19.958  0.00  0.00    +0.000 OA
ATOM     13  N   UNL     1       1.812   8.179  19.857  0.00  0.00    +0.000 NA
BRANCH   9  18
ATOM     14  C   UNL     1       4.831   6.188  16.820  0.00  0.00    +0.000 A 
ATOM     15  C   UNL     1       4.422   4.864  17.008  0.00  0.00    +0.000 A 
ATOM     16  C   UNL     1       3.263   4.574  17.730  0.00  0.00    +0.000 A 
ATOM     17  C   UNL     1       2.496   5.612  18.252  0.00  0.00    +0.000 A 
ATOM     18  C   UNL     1       2.891   6.943  18.063  0.00  0.00    +0.000 A 
ATOM     19  C   UNL     1       4.076   7.222  17.365  0.00  0.00    +0.000 A 
BRANCH  14  21
ATOM     20  C   UNL     1       6.952   5.326  16.185  0.00  0.00    +0.000 C 
ATOM     21  O   UNL     1       5.962   6.340  16.064  0.00  0.00    +0.000 OA
ENDBRANCH  14  21
ENDBRANCH   9  18
ENDBRANCH   1  11
BRANCH   6  22
ATOM     22  C   UNL     1       2.109  15.663  18.885  0.00  0.00    +0.000 C 
BRANCH  22  23
ATOM     23  C   UNL     1       3.575  16.018  18.757  0.00  0.00    +0.000 A 
ATOM     24  C   UNL     1       4.182  16.924  19.661  0.00  0.00    +0.000 A 
ATOM     25  C   UNL     1       5.574  17.011  19.759  0.00  0.00    +0.000 A 
ATOM     26  C   UNL     1       6.312  16.151  18.978  0.00  0.00    +0.000 A 
ATOM     27  C   UNL     1       5.724  15.336  18.035  0.00  0.00    +0.000 A 
ATOM     28  C   UNL     1       4.365  15.287  17.856  0.00  0.00    +0.000 A 
ATOM     29  O   UNL     1       6.622  14.490  17.454  0.00  0.00    +0.000 OA
ATOM     30  C   UNL     1       7.692  14.621  18.411  0.00  0.00    +0.000 C 
ATOM     31  O   UNL     1       7.643  15.885  19.109  0.00  0.00    +0.000 OA
ENDBRANCH  22  23
ENDBRANCH   6  22
TORSDOF 5
ENDMDL
MODEL 6
REMARK VINA RESULT:      -7.6      2.952      3.361
REMARK  Name = 
REMARK  6 active torsions:
REMARK  status: ('A' for Active; 'I' for Inactive)
REMARK    1  A    between atoms: C_1  and  O_2
REMARK    2  A    between atoms: O_2  and  C_3
REMARK    3  A    between atoms: C_7  and  C_8
REMARK    4  A    between atoms: C_10  and  C_11
REMARK    5  A    between atoms: N_16  and  C_17
REMARK    6  A    between atoms: C_17  and  C_18
REMARK                            x       y       z     vdW  Elec       q    Type
REMARK                         _______ _______ _______ _____ _____    ______ ____
ROOT
ATOM      1  C   UNL     1       0.739   9.158  20.999  0.00  0.00    +0.000 C 
ATOM      2  O   UNL     1       0.909   8.795  22.165  0.00  0.00    +0.000 OA
ATOM      3  N   UNL     1      -0.177  10.164  20.690  0.00  0.00    +0.000 N 
ATOM      4  C   UNL     1      -0.777  10.948  21.769  0.00  0.00    +0.000 C 
ATOM      5  C   UNL     1      -0.860  12.444  21.386  0.00  0.00    +0.000 C 
ATOM      6  N   UNL     1      -1.500  12.719  20.076  0.00  0.00    +0.000 NA
ATOM      7  C   UNL     1      -0.835  11.881  19.044  0.00  0.00    +0.000 C 
ATOM      8  C   UNL     1      -0.802  10.381  19.378  0.00  0.00    +0.000 C 
ENDROOT
BRANCH   1  11
ATOM      9  C   UNL     1       2.645   7.343  18.480  0.00  0.00    +0.000 A 
ATOM     10  C   UNL     1       2.156   7.367  19.812  0.00  0.00    +0.000 A 
ATOM     11  C   UNL     1       1.480   8.561  19.915  0.00  0.00    +0.000 A 
ATOM     12  O   UNL     1       1.671   9.259  18.761  0.00  0.00    +0.000 OA
ATOM     13  N   UNL     1       2.337   8.483  17.841  0.00  0.00    +0.000 NA
BRANCH   9  18
ATOM     14  C   UNL     1       5.245   5.668  16.369  0.00  0.00    +0.000 A 
ATOM     15  C   UNL     1       4.825   4.336  16.436  0.00  0.00    +0.000 A 
ATOM     16  C   UNL     1       3.712   3.980  17.201  0.00  0.00    +0.000 A 
ATOM     17  C   UNL     1       3.002   4.961  17.887  0.00  0.00    +0.000 A 
ATOM     18  C   UNL     1       3.409   6.301  17.820  0.00  0.00    +0.000 A 
ATOM     19  C   UNL     1       4.549   6.643  17.076  0.00  0.00    +0.000 A 
BRANCH  14  21
ATOM     20  C   UNL     1       6.826   4.770  14.839  0.00  0.00    +0.000 C 
ATOM     21  O   UNL     1       6.324   5.892  15.556  0.00  0.00    +0.000 OA
ENDBRANCH  14  21
ENDBRANCH   9  18
ENDBRANCH   1  11
BRANCH   6  22
ATOM     22  C   UNL     1      -2.965  12.533  20.165  0.00  0.00    +0.000 C 
BRANCH  22  23
ATOM     23  C   UNL     1      -3.598  13.329  21.286  0.00  0.00    +0.000 A 
ATOM     24  C   UNL     1      -3.697  14.740  21.204  0.00  0.00    +0.000 A 
ATOM     25  C   UNL     1      -4.550  15.447  22.058  0.00  0.00    +0.000 A 
ATOM     26  C   UNL     1      -5.311  14.709  22.935  0.00  0.00    +0.000 A 
ATOM     27  C   UNL     1      -5.147  13.348  23.076  0.00  0.00    +0.000 A 
ATOM     28  C   UNL     1      -4.259  12.635  22.311  0.00  0.00    +0.000 A 
ATOM     29  O   UNL     1      -6.074  12.802  23.914  0.00  0.00    +0.000 OA
ATOM     30  C   UNL     1      -7.013  13.894  23.938  0.00  0.00    +0.000 C 
ATOM     31  O   UNL     1      -6.379  15.161  23.653  0.00  0.00    +0.000 OA
ENDBRANCH  22  23
ENDBRANCH   6  22
TORSDOF 5
ENDMDL
MODEL 7
REMARK VINA RESULT:      -7.5      3.082      5.526
REMARK  Name = 
REMARK  6 active torsions:
REMARK  status: ('A' for Active; 'I' for Inactive)
REMARK    1  A    between atoms: C_1  and  O_2
REMARK    2  A    between atoms: O_2  and  C_3
REMARK    3  A    between atoms: C_7  and  C_8
REMARK    4  A    between atoms: C_10  and  C_11
REMARK    5  A    between atoms: N_16  and  C_17
REMARK    6  A    between atoms: C_17  and  C_18
REMARK                            x       y       z     vdW  Elec       q    Type
REMARK                         _______ _______ _______ _____ _____    ______ ____
ROOT
ATOM      1  C   UNL     1       3.715   5.828  18.881  0.00  0.00    +0.000 C 
ATOM      2  O   UNL     1       3.766   5.016  19.809  0.00  0.00    +0.000 OA
ATOM      3  N   UNL     1       2.769   6.854  18.880  0.00  0.00    +0.000 N 
ATOM      4  C   UNL     1       1.980   7.106  20.086  0.00  0.00    +0.000 C 
ATOM      5  C   UNL     1       1.830   8.625  20.340  0.00  0.00    +0.000 C 
ATOM      6  N   UNL     1       1.339   9.408  19.179  0.00  0.00    +0.000 NA
ATOM      7  C   UNL     1       2.191   9.086  18.004  0.00  0.00    +0.000 C 
ATOM      8  C   UNL     1       2.298   7.584  17.696  0.00  0.00    +0.000 C 
ENDROOT
BRANCH   1  11
ATOM      9  C   UNL     1       5.765   5.416  15.898  0.00  0.00    +0.000 A 
ATOM     10  C   UNL     1       4.586   5.039  16.591  0.00  0.00    +0.000 A 
ATOM     11  C   UNL     1       4.630   5.750  17.769  0.00  0.00    +0.000 A 
ATOM     12  O   UNL     1       5.824   6.402  17.828  0.00  0.00    +0.000 OA
ATOM     13  N   UNL     1       6.506   6.252  16.643  0.00  0.00    +0.000 NA
BRANCH   9  18
ATOM     14  C   UNL     1       5.907   3.579  12.639  0.00  0.00    +0.000 A 
ATOM     15  C   UNL     1       7.119   4.046  12.122  0.00  0.00    +0.000 A 
ATOM     16  C   UNL     1       7.873   4.990  12.822  0.00  0.00    +0.000 A 
ATOM     17  C   UNL     1       7.425   5.455  14.056  0.00  0.00    +0.000 A 
ATOM     18  C   UNL     1       6.215   4.987  14.587  0.00  0.00    +0.000 A 
ATOM     19  C   UNL     1       5.449   4.065  13.859  0.00  0.00    +0.000 A 
BRANCH  14  21
ATOM     20  C   UNL     1       4.092   3.029  11.206  0.00  0.00    +0.000 C 
ATOM     21  O   UNL     1       5.283   2.629  11.875  0.00  0.00    +0.000 OA
ENDBRANCH  14  21
ENDBRANCH   9  18
ENDBRANCH   1  11
BRANCH   6  22
ATOM     22  C   UNL     1      -0.106   9.173  18.969  0.00  0.00    +0.000 C 
BRANCH  22  23
ATOM     23  C   UNL     1      -0.937  10.433  19.092  0.00  0.00    +0.000 A 
ATOM     24  C   UNL     1      -1.963  10.716  18.158  0.00  0.00    +0.000 A 
ATOM     25  C   UNL     1      -2.934  11.684  18.434  0.00  0.00    +0.000 A 
ATOM     26  C   UNL     1      -2.869  12.304  19.660  0.00  0.00    +0.000 A 
ATOM     27  C   UNL     1      -1.820  12.094  20.529  0.00  0.00    +0.000 A 
ATOM     28  C   UNL     1      -0.807  11.211  20.252  0.00  0.00    +0.000 A 
ATOM     29  O   UNL     1      -2.009  12.718  21.726  0.00  0.00    +0.000 OA
ATOM     30  C   UNL     1      -3.421  12.984  21.610  0.00  0.00    +0.000 C 
ATOM     31  O   UNL     1      -3.845  13.066  20.231  0.00  0.00    +0.000 OA
ENDBRANCH  22  23
ENDBRANCH   6  22
TORSDOF 5
ENDMDL
MODEL 8
REMARK VINA RESULT:      -7.5      3.947      4.659
REMARK  Name = 
REMARK  6 active torsions:
REMARK  status: ('A' for Active; 'I' for Inactive)
REMARK    1  A    between atoms: C_1  and  O_2
REMARK    2  A    between atoms: O_2  and  C_3
REMARK    3  A    between atoms: C_7  and  C_8
REMARK    4  A    between atoms: C_10  and  C_11
REMARK    5  A    between atoms: N_16  and  C_17
REMARK    6  A    between atoms: C_17  and  C_18
REMARK                            x       y       z     vdW  Elec       q    Type
REMARK                         _______ _______ _______ _____ _____    ______ ____
ROOT
ATOM      1  C   UNL     1       1.818   9.799  18.461  0.00  0.00    +0.000 C 
ATOM      2  O   UNL     1       2.171  10.451  17.475  0.00  0.00    +0.000 OA
ATOM      3  N   UNL     1       1.048  10.383  19.468  0.00  0.00    +0.000 N 
ATOM      4  C   UNL     1       0.467  11.708  19.251  0.00  0.00    +0.000 C 
ATOM      5  C   UNL     1      -0.979  11.773  19.796  0.00  0.00    +0.000 C 
ATOM      6  N   UNL     1      -1.139  11.316  21.199  0.00  0.00    +0.000 NA
ATOM      7  C   UNL     1      -0.519   9.972  21.328  0.00  0.00    +0.000 C 
ATOM      8  C   UNL     1       0.941   9.904  20.852  0.00  0.00    +0.000 C 
ENDROOT
BRANCH   1  11
ATOM      9  C   UNL     1       2.586   6.310  19.178  0.00  0.00    +0.000 A 
ATOM     10  C   UNL     1       2.096   7.546  19.674  0.00  0.00    +0.000 A 
ATOM     11  C   UNL     1       2.184   8.411  18.609  0.00  0.00    +0.000 A 
ATOM     12  O   UNL     1       2.811   7.765  17.586  0.00  0.00    +0.000 OA
ATOM     13  N   UNL     1       3.005   6.442  17.909  0.00  0.00    +0.000 NA
BRANCH   9  18
ATOM     14  C   UNL     1       3.621   2.803  19.984  0.00  0.00    +0.000 A 
ATOM     15  C   UNL     1       2.832   2.544  21.108  0.00  0.00    +0.000 A 
ATOM     16  C   UNL     1       1.987   3.529  21.625  0.00  0.00    +0.000 A 
ATOM     17  C   UNL     1       1.914   4.773  21.004  0.00  0.00    +0.000 A 
ATOM     18  C   UNL     1       2.695   5.040  19.872  0.00  0.00    +0.000 A 
ATOM     19  C   UNL     1       3.566   4.056  19.381  0.00  0.00    +0.000 A 
BRANCH  14  21
ATOM     20  C   UNL     1       3.926   1.072  18.384  0.00  0.00    +0.000 C 
ATOM     21  O   UNL     1       4.378   1.745  19.554  0.00  0.00    +0.000 OA
ENDBRANCH  14  21
ENDBRANCH   9  18
ENDBRANCH   1  11
BRANCH   6  22
ATOM     22  C   UNL     1      -0.607  12.328  22.138  0.00  0.00    +0.000 C 
BRANCH  22  23
ATOM     23  C   UNL     1      -1.681  12.972  22.990  0.00  0.00    +0.000 A 
ATOM     24  C   UNL     1      -1.659  14.365  23.250  0.00  0.00    +0.000 A 
ATOM     25  C   UNL     1      -2.791  15.016  23.749  0.00  0.00    +0.000 A 
ATOM     26  C   UNL     1      -3.924  14.256  23.926  0.00  0.00    +0.000 A 
ATOM     27  C   UNL     1      -3.918  12.888  23.759  0.00  0.00    +0.000 A 
ATOM     28  C   UNL     1      -2.800  12.206  23.350  0.00  0.00    +0.000 A 
ATOM     29  O   UNL     1      -5.165  12.349  23.875  0.00  0.00    +0.000 OA
ATOM     30  C   UNL     1      -5.936  13.559  23.741  0.00  0.00    +0.000 C 
ATOM     31  O   UNL     1      -5.185  14.727  24.141  0.00  0.00    +0.000 OA
ENDBRANCH  22  23
ENDBRANCH   6  22
TORSDOF 5
ENDMDL
MODEL 9
REMARK VINA RESULT:      -7.5      4.509     10.688
REMARK  Name = 
REMARK  6 active torsions:
REMARK  status: ('A' for Active; 'I' for Inactive)
REMARK    1  A    between atoms: C_1  and  O_2
REMARK    2  A    between atoms: O_2  and  C_3
REMARK    3  A    between atoms: C_7  and  C_8
REMARK    4  A    between atoms: C_10  and  C_11
REMARK    5  A    between atoms: N_16  and  C_17
REMARK    6  A    between atoms: C_17  and  C_18
REMARK                            x       y       z     vdW  Elec       q    Type
REMARK                         _______ _______ _______ _____ _____    ______ ____
ROOT
ATOM      1  C   UNL     1       1.240   7.872  20.736  0.00  0.00    +0.000 C 
ATOM      2  O   UNL     1       0.714   7.812  21.851  0.00  0.00    +0.000 OA
ATOM      3  N   UNL     1       1.858   6.754  20.176  0.00  0.00    +0.000 N 
ATOM      4  C   UNL     1       1.690   5.446  20.809  0.00  0.00    +0.000 C 
ATOM      5  C   UNL     1       1.478   4.341  19.747  0.00  0.00    +0.000 C 
ATOM      6  N   UNL     1       2.494   4.311  18.666  0.00  0.00    +0.000 NA
ATOM      7  C   UNL     1       2.602   5.674  18.086  0.00  0.00    +0.000 C 
ATOM      8  C   UNL     1       2.879   6.778  19.120  0.00  0.00    +0.000 C 
ENDROOT
BRANCH   1  11
ATOM      9  C   UNL     1       1.185  11.145  19.137  0.00  0.00    +0.000 A 
ATOM     10  C   UNL     1       1.025  10.406  20.337  0.00  0.00    +0.000 A 
ATOM     11  C   UNL     1       1.234   9.096  19.973  0.00  0.00    +0.000 A 
ATOM     12  O   UNL     1       1.373   9.048  18.618  0.00  0.00    +0.000 OA
ATOM     13  N   UNL     1       1.410  10.322  18.100  0.00  0.00    +0.000 NA
BRANCH   9  18
ATOM     14  C   UNL     1       2.210  14.700  18.559  0.00  0.00    +0.000 A 
ATOM     15  C   UNL     1       0.984  15.356  18.699  0.00  0.00    +0.000 A 
ATOM     16  C   UNL     1      -0.185  14.634  18.945  0.00  0.00    +0.000 A 
ATOM     17  C   UNL     1      -0.127  13.249  19.074  0.00  0.00    +0.000 A 
ATOM     18  C   UNL     1       1.098  12.581  18.945  0.00  0.00    +0.000 A 
ATOM     19  C   UNL     1       2.261  13.313  18.663  0.00  0.00    +0.000 A 
BRANCH  14  21
ATOM     20  C   UNL     1       3.083  16.637  17.495  0.00  0.00    +0.000 C 
ATOM     21  O   UNL     1       3.286  15.523  18.357  0.00  0.00    +0.000 OA
ENDBRANCH  14  21
ENDBRANCH   9  18
ENDBRANCH   1  11
BRANCH   6  22
ATOM     22  C   UNL     1       3.770   3.756  19.169  0.00  0.00    +0.000 C 
BRANCH  22  23
ATOM     23  C   UNL     1       4.972   4.201  18.363  0.00  0.00    +0.000 A 
ATOM     24  C   UNL     1       5.009   4.014  16.959  0.00  0.00    +0.000 A 
ATOM     25  C   UNL     1       5.943   4.696  16.173  0.00  0.00    +0.000 A 
ATOM     26  C   UNL     1       6.778   5.579  16.817  0.00  0.00    +0.000 A 
ATOM     27  C   UNL     1       6.802   5.692  18.190  0.00  0.00    +0.000 A 
ATOM     28  C   UNL     1       5.955   4.975  18.997  0.00  0.00    +0.000 A 
ATOM     29  O   UNL     1       7.619   6.699  18.610  0.00  0.00    +0.000 OA
ATOM     30  C   UNL     1       7.762   7.398  17.358  0.00  0.00    +0.000 C 
ATOM     31  O   UNL     1       7.563   6.524  16.224  0.00  0.00    +0.000 OA
ENDBRANCH  22  23
ENDBRANCH   6  22
TORSDOF 5
ENDMDL
