MODEL 1
REMARK VINA RESULT:      -8.7      0.000      0.000
REMARK  Name = 
REMARK  9 active torsions:
REMARK  status: ('A' for Active; 'I' for Inactive)
REMARK    1  A    between atoms: C_1  and  O_2
REMARK    2  A    between atoms: O_2  and  C_3
REMARK    3  A    between atoms: C_7  and  C_8
REMARK    4  A    between atoms: C_8  and  N_9
REMARK    5  A    between atoms: C_10  and  C_12
REMARK    6  A    between atoms: C_13  and  C_14
REMARK    7  A    between atoms: C_22  and  C_23
REMARK    8  A    between atoms: C_27  and  O_28
REMARK    9  A    between atoms: O_28  and  C_29
REMARK                            x       y       z     vdW  Elec       q    Type
REMARK                         _______ _______ _______ _____ _____    ______ ____
ROOT
ATOM      1  N   UNL     1       2.066   7.782  19.518  0.00  0.00    +0.000 N 
ATOM      2  C   UNL     1       2.671   7.033  18.544  0.00  0.00    +0.000 C 
ATOM      3  O   UNL     1       2.875   7.413  17.400  0.00  0.00    +0.000 OA
ATOM      4  H   UNL     1       2.076   7.481  20.480  0.00  0.00    +0.000 HD
ENDROOT
BRANCH   2   5
ATOM      5  C   UNL     1       3.118   5.696  18.995  0.00  0.00    +0.000 C 
ATOM      6  C   UNL     1       2.571   4.996  19.995  0.00  0.00    +0.000 C 
ATOM      7  C   UNL     1       1.412   5.217  20.892  0.00  0.00    +0.000 C 
ATOM      8  C   UNL     1       3.355   3.763  20.098  0.00  0.00    +0.000 C 
ATOM      9  O   UNL     1       3.161   2.875  20.909  0.00  0.00    +0.000 OA
ATOM     10  O   UNL     1       4.346   3.776  19.172  0.00  0.00    +0.000 OA
ATOM     11  C   UNL     1       4.197   4.922  18.304  0.00  0.00    +0.000 C 
ATOM     12  C   UNL     1       5.555   5.641  18.237  0.00  0.00    +0.000 C 
ATOM     13  C   UNL     1       6.613   4.770  17.552  0.00  0.00    +0.000 C 
ATOM     14  N   UNL     1       6.139   4.313  16.245  0.00  0.00    +0.000 N 
ATOM     15  C   UNL     1       6.811   4.727  15.107  0.00  0.00    +0.000 C 
ATOM     16  C   UNL     1       6.355   4.267  13.742  0.00  0.00    +0.000 C 
ATOM     17  O   UNL     1       7.799   5.466  15.170  0.00  0.00    +0.000 OA
ATOM     18  C   UNL     1       4.909   3.529  16.308  0.00  0.00    +0.000 C 
ATOM     19  C   UNL     1       3.786   4.371  16.921  0.00  0.00    +0.000 C 
ENDBRANCH   2   5
BRANCH   1  20
ATOM     20  C   UNL     1       1.417   9.053  19.274  0.00  0.00    +0.000 C 
BRANCH  20  25
ATOM     21  C   UNL     1      -0.077  11.309  21.990  0.00  0.00    +0.000 A 
ATOM     22  C   UNL     1      -0.597  10.325  22.850  0.00  0.00    +0.000 A 
ATOM     23  C   UNL     1      -0.434   8.974  22.569  0.00  0.00    +0.000 A 
ATOM     24  C   UNL     1       0.235   8.590  21.415  0.00  0.00    +0.000 A 
ATOM     25  C   UNL     1       0.712   9.555  20.510  0.00  0.00    +0.000 A 
ATOM     26  C   UNL     1       0.514  10.930  20.770  0.00  0.00    +0.000 A 
BRANCH  21  28
ATOM     27  C   UNL     1      -1.414  13.027  22.919  0.00  0.00    +0.000 C 
ATOM     28  O   UNL     1      -0.170  12.633  22.331  0.00  0.00    +0.000 OA
ENDBRANCH  21  28
BRANCH  26  29
ATOM     29  O   UNL     1       0.965  11.765  19.774  0.00  0.00    +0.000 OA
ATOM     30  C   UNL     1       0.019  12.370  18.901  0.00  0.00    +0.000 C 
ENDBRANCH  26  29
ENDBRANCH  20  25
ENDBRANCH   1  20
TORSDOF 5
ENDMDL
MODEL 2
REMARK VINA RESULT:      -8.7      2.131      4.053
REMARK  Name = 
REMARK  9 active torsions:
REMARK  status: ('A' for Active; 'I' for Inactive)
REMARK    1  A    between atoms: C_1  and  O_2
REMARK    2  A    between atoms: O_2  and  C_3
REMARK    3  A    between atoms: C_7  and  C_8
REMARK    4  A    between atoms: C_8  and  N_9
REMARK    5  A    between atoms: C_10  and  C_12
REMARK    6  A    between atoms: C_13  and  C_14
REMARK    7  A    between atoms: C_22  and  C_23
REMARK    8  A    between atoms: C_27  and  O_28
REMARK    9  A    between atoms: O_28  and  C_29
REMARK                            x       y       z     vdW  Elec       q    Type
REMARK                         _______ _______ _______ _____ _____    ______ ____
ROOT
ATOM      1  N   UNL     1       3.277   7.513  18.143  0.00  0.00    +0.000 N 
ATOM      2  C   UNL     1       4.185   7.135  17.189  0.00  0.00    +0.000 C 
ATOM      3  O   UNL     1       4.287   7.646  16.083  0.00  0.00    +0.000 OA
ATOM      4  H   UNL     1       3.351   7.171  19.088  0.00  0.00    +0.000 HD
ENDROOT
BRANCH   2   5
ATOM      5  C   UNL     1       5.099   6.052  17.616  0.00  0.00    +0.000 C 
ATOM      6  C   UNL     1       6.434   6.135  17.641  0.00  0.00    +0.000 C 
ATOM      7  C   UNL     1       7.403   7.218  17.352  0.00  0.00    +0.000 C 
ATOM      8  C   UNL     1       6.909   4.826  18.097  0.00  0.00    +0.000 C 
ATOM      9  O   UNL     1       8.079   4.515  18.236  0.00  0.00    +0.000 OA
ATOM     10  O   UNL     1       5.850   4.008  18.313  0.00  0.00    +0.000 OA
ATOM     11  C   UNL     1       4.616   4.748  18.169  0.00  0.00    +0.000 C 
ATOM     12  C   UNL     1       3.700   3.954  17.223  0.00  0.00    +0.000 C 
ATOM     13  C   UNL     1       3.281   2.617  17.844  0.00  0.00    +0.000 C 
ATOM     14  N   UNL     1       2.699   2.823  19.170  0.00  0.00    +0.000 N 
ATOM     15  C   UNL     1       1.370   2.490  19.378  0.00  0.00    +0.000 C 
ATOM     16  C   UNL     1       0.739   2.681  20.736  0.00  0.00    +0.000 C 
ATOM     17  O   UNL     1       0.671   2.021  18.474  0.00  0.00    +0.000 OA
ATOM     18  C   UNL     1       3.603   3.474  20.114  0.00  0.00    +0.000 C 
ATOM     19  C   UNL     1       4.004   4.853  19.583  0.00  0.00    +0.000 C 
ENDBRANCH   2   5
BRANCH   1  20
ATOM     20  C   UNL     1       2.192   8.440  17.902  0.00  0.00    +0.000 C 
BRANCH  20  25
ATOM     21  C   UNL     1      -0.126  10.053  20.495  0.00  0.00    +0.000 A 
ATOM     22  C   UNL     1       0.213   9.283  21.621  0.00  0.00    +0.000 A 
ATOM     23  C   UNL     1       1.188   8.296  21.542  0.00  0.00    +0.000 A 
ATOM     24  C   UNL     1       1.824   8.055  20.333  0.00  0.00    +0.000 A 
ATOM     25  C   UNL     1       1.461   8.772  19.178  0.00  0.00    +0.000 A 
ATOM     26  C   UNL     1       0.442   9.749  19.243  0.00  0.00    +0.000 A 
BRANCH  21  28
ATOM     27  C   UNL     1      -0.450  12.375  20.816  0.00  0.00    +0.000 C 
ATOM     28  O   UNL     1      -1.025  11.081  20.615  0.00  0.00    +0.000 OA
ENDBRANCH  21  28
BRANCH  26  29
ATOM     29  O   UNL     1       0.134  10.327  18.032  0.00  0.00    +0.000 OA
ATOM     30  C   UNL     1      -1.148  10.091  17.462  0.00  0.00    +0.000 C 
ENDBRANCH  26  29
ENDBRANCH  20  25
ENDBRANCH   1  20
TORSDOF 5
ENDMDL
MODEL 3
REMARK VINA RESULT:      -8.6      1.947      2.992
REMARK  Name = 
REMARK  9 active torsions:
REMARK  status: ('A' for Active; 'I' for Inactive)
REMARK    1  A    between atoms: C_1  and  O_2
REMARK    2  A    between atoms: O_2  and  C_3
REMARK    3  A    between atoms: C_7  and  C_8
REMARK    4  A    between atoms: C_8  and  N_9
REMARK    5  A    between atoms: C_10  and  C_12
REMARK    6  A    between atoms: C_13  and  C_14
REMARK    7  A    between atoms: C_22  and  C_23
REMARK    8  A    between atoms: C_27  and  O_28
REMARK    9  A    between atoms: O_28  and  C_29
REMARK                            x       y       z     vdW  Elec       q    Type
REMARK                         _______ _______ _______ _____ _____    ______ ____
ROOT
ATOM      1  N   UNL     1       1.887   6.428  20.139  0.00  0.00    +0.000 N 
ATOM      2  C   UNL     1       2.343   5.163  20.400  0.00  0.00    +0.000 C 
ATOM      3  O   UNL     1       2.413   4.664  21.515  0.00  0.00    +0.000 OA
ATOM      4  H   UNL     1       1.696   6.721  19.195  0.00  0.00    +0.000 HD
ENDROOT
BRANCH   2   5
ATOM      5  C   UNL     1       2.722   4.393  19.195  0.00  0.00    +0.000 C 
ATOM      6  C   UNL     1       1.952   3.483  18.587  0.00  0.00    +0.000 C 
ATOM      7  C   UNL     1       0.571   2.993  18.806  0.00  0.00    +0.000 C 
ATOM      8  C   UNL     1       2.748   2.966  17.471  0.00  0.00    +0.000 C 
ATOM      9  O   UNL     1       2.381   2.106  16.689  0.00  0.00    +0.000 OA
ATOM     10  O   UNL     1       3.962   3.568  17.460  0.00  0.00    +0.000 OA
ATOM     11  C   UNL     1       4.002   4.620  18.452  0.00  0.00    +0.000 C 
ATOM     12  C   UNL     1       5.273   4.423  19.294  0.00  0.00    +0.000 C 
ATOM     13  C   UNL     1       6.537   4.634  18.454  0.00  0.00    +0.000 C 
ATOM     14  N   UNL     1       6.493   5.927  17.771  0.00  0.00    +0.000 N 
ATOM     15  C   UNL     1       7.441   6.886  18.092  0.00  0.00    +0.000 C 
ATOM     16  C   UNL     1       7.432   8.229  17.401  0.00  0.00    +0.000 C 
ATOM     17  O   UNL     1       8.319   6.673  18.934  0.00  0.00    +0.000 OA
ATOM     18  C   UNL     1       5.350   6.081  16.878  0.00  0.00    +0.000 C 
ATOM     19  C   UNL     1       4.047   5.952  17.672  0.00  0.00    +0.000 C 
ENDBRANCH   2   5
BRANCH   1  20
ATOM     20  C   UNL     1       1.604   7.412  21.163  0.00  0.00    +0.000 C 
BRANCH  20  25
ATOM     21  C   UNL     1       0.834  11.138  20.698  0.00  0.00    +0.000 A 
ATOM     22  C   UNL     1       1.002  11.239  19.306  0.00  0.00    +0.000 A 
ATOM     23  C   UNL     1       1.321  10.121  18.544  0.00  0.00    +0.000 A 
ATOM     24  C   UNL     1       1.494   8.894  19.166  0.00  0.00    +0.000 A 
ATOM     25  C   UNL     1       1.389   8.779  20.564  0.00  0.00    +0.000 A 
ATOM     26  C   UNL     1       1.105   9.920  21.349  0.00  0.00    +0.000 A 
BRANCH  21  28
ATOM     27  C   UNL     1      -0.962  12.542  21.332  0.00  0.00    +0.000 C 
ATOM     28  O   UNL     1       0.432  12.232  21.419  0.00  0.00    +0.000 OA
ENDBRANCH  21  28
BRANCH  26  29
ATOM     29  O   UNL     1       1.099   9.687  22.705  0.00  0.00    +0.000 OA
ATOM     30  C   UNL     1      -0.148   9.554  23.376  0.00  0.00    +0.000 C 
ENDBRANCH  26  29
ENDBRANCH  20  25
ENDBRANCH   1  20
TORSDOF 5
ENDMDL
MODEL 4
REMARK VINA RESULT:      -8.6      1.071      1.098
REMARK  Name = 
REMARK  9 active torsions:
REMARK  status: ('A' for Active; 'I' for Inactive)
REMARK    1  A    between atoms: C_1  and  O_2
REMARK    2  A    between atoms: O_2  and  C_3
REMARK    3  A    between atoms: C_7  and  C_8
REMARK    4  A    between atoms: C_8  and  N_9
REMARK    5  A    between atoms: C_10  and  C_12
REMARK    6  A    between atoms: C_13  and  C_14
REMARK    7  A    between atoms: C_22  and  C_23
REMARK    8  A    between atoms: C_27  and  O_28
REMARK    9  A    between atoms: O_28  and  C_29
REMARK                            x       y       z     vdW  Elec       q    Type
REMARK                         _______ _______ _______ _____ _____    ______ ____
ROOT
ATOM      1  N   UNL     1       2.570   7.409  18.914  0.00  0.00    +0.000 N 
ATOM      2  C   UNL     1       2.234   6.215  18.333  0.00  0.00    +0.000 C 
ATOM      3  O   UNL     1       1.424   6.085  17.426  0.00  0.00    +0.000 OA
ATOM      4  H   UNL     1       3.361   7.474  19.535  0.00  0.00    +0.000 HD
ENDROOT
BRANCH   2   5
ATOM      5  C   UNL     1       2.976   5.050  18.864  0.00  0.00    +0.000 C 
ATOM      6  C   UNL     1       2.581   4.285  19.888  0.00  0.00    +0.000 C 
ATOM      7  C   UNL     1       1.373   4.259  20.746  0.00  0.00    +0.000 C 
ATOM      8  C   UNL     1       3.637   3.286  20.074  0.00  0.00    +0.000 C 
ATOM      9  O   UNL     1       3.635   2.417  20.927  0.00  0.00    +0.000 OA
ATOM     10  O   UNL     1       4.626   3.496  19.171  0.00  0.00    +0.000 OA
ATOM     11  C   UNL     1       4.233   4.531  18.239  0.00  0.00    +0.000 C 
ATOM     12  C   UNL     1       5.379   5.554  18.164  0.00  0.00    +0.000 C 
ATOM     13  C   UNL     1       6.639   4.937  17.550  0.00  0.00    +0.000 C 
ATOM     14  N   UNL     1       6.335   4.317  16.260  0.00  0.00    +0.000 N 
ATOM     15  C   UNL     1       6.926   4.829  15.116  0.00  0.00    +0.000 C 
ATOM     16  C   UNL     1       6.642   4.209  13.768  0.00  0.00    +0.000 C 
ATOM     17  O   UNL     1       7.702   5.789  15.161  0.00  0.00    +0.000 OA
ATOM     18  C   UNL     1       5.330   3.262  16.337  0.00  0.00    +0.000 C 
ATOM     19  C   UNL     1       4.016   3.832  16.879  0.00  0.00    +0.000 C 
ENDBRANCH   2   5
BRANCH   1  20
ATOM     20  C   UNL     1       1.874   8.653  18.664  0.00  0.00    +0.000 C 
BRANCH  20  25
ATOM     21  C   UNL     1      -0.435  10.569  21.051  0.00  0.00    +0.000 A 
ATOM     22  C   UNL     1      -0.169   9.871  22.242  0.00  0.00    +0.000 A 
ATOM     23  C   UNL     1       0.757   8.836  22.270  0.00  0.00    +0.000 A 
ATOM     24  C   UNL     1       1.415   8.473  21.104  0.00  0.00    +0.000 A 
ATOM     25  C   UNL     1       1.123   9.116  19.887  0.00  0.00    +0.000 A 
ATOM     26  C   UNL     1       0.153  10.143  19.845  0.00  0.00    +0.000 A 
BRANCH  21  28
ATOM     27  C   UNL     1      -0.704  12.876  21.503  0.00  0.00    +0.000 C 
ATOM     28  O   UNL     1      -1.285  11.644  21.064  0.00  0.00    +0.000 OA
ENDBRANCH  21  28
BRANCH  26  29
ATOM     29  O   UNL     1      -0.089  10.640  18.585  0.00  0.00    +0.000 OA
ATOM     30  C   UNL     1      -1.314  10.314  17.939  0.00  0.00    +0.000 C 
ENDBRANCH  26  29
ENDBRANCH  20  25
ENDBRANCH   1  20
TORSDOF 5
ENDMDL
MODEL 5
REMARK VINA RESULT:      -8.2      2.268      4.466
REMARK  Name = 
REMARK  9 active torsions:
REMARK  status: ('A' for Active; 'I' for Inactive)
REMARK    1  A    between atoms: C_1  and  O_2
REMARK    2  A    between atoms: O_2  and  C_3
REMARK    3  A    between atoms: C_7  and  C_8
REMARK    4  A    between atoms: C_8  and  N_9
REMARK    5  A    between atoms: C_10  and  C_12
REMARK    6  A    between atoms: C_13  and  C_14
REMARK    7  A    between atoms: C_22  and  C_23
REMARK    8  A    between atoms: C_27  and  O_28
REMARK    9  A    between atoms: O_28  and  C_29
REMARK                            x       y       z     vdW  Elec       q    Type
REMARK                         _______ _______ _______ _____ _____    ______ ____
ROOT
ATOM      1  N   UNL     1       3.333   7.377  17.941  0.00  0.00    +0.000 N 
ATOM      2  C   UNL     1       4.314   6.987  17.069  0.00  0.00    +0.000 C 
ATOM      3  O   UNL     1       4.446   7.416  15.931  0.00  0.00    +0.000 OA
ATOM      4  H   UNL     1       3.375   7.117  18.913  0.00  0.00    +0.000 HD
ENDROOT
BRANCH   2   5
ATOM      5  C   UNL     1       5.271   6.006  17.629  0.00  0.00    +0.000 C 
ATOM      6  C   UNL     1       6.595   6.177  17.705  0.00  0.00    +0.000 C 
ATOM      7  C   UNL     1       7.510   7.292  17.366  0.00  0.00    +0.000 C 
ATOM      8  C   UNL     1       7.126   4.944  18.295  0.00  0.00    +0.000 C 
ATOM      9  O   UNL     1       8.303   4.723  18.511  0.00  0.00    +0.000 OA
ATOM     10  O   UNL     1       6.108   4.081  18.534  0.00  0.00    +0.000 OA
ATOM     11  C   UNL     1       4.840   4.724  18.272  0.00  0.00    +0.000 C 
ATOM     12  C   UNL     1       4.022   3.796  17.359  0.00  0.00    +0.000 C 
ATOM     13  C   UNL     1       3.655   2.492  18.075  0.00  0.00    +0.000 C 
ATOM     14  N   UNL     1       2.996   2.772  19.352  0.00  0.00    +0.000 N 
ATOM     15  C   UNL     1       1.681   2.372  19.528  0.00  0.00    +0.000 C 
ATOM     16  C   UNL     1       0.973   2.636  20.835  0.00  0.00    +0.000 C 
ATOM     17  O   UNL     1       1.057   1.784  18.639  0.00  0.00    +0.000 OA
ATOM     18  C   UNL     1       3.811   3.557  20.274  0.00  0.00    +0.000 C 
ATOM     19  C   UNL     1       4.154   4.909  19.643  0.00  0.00    +0.000 C 
ENDBRANCH   2   5
BRANCH   1  20
ATOM     20  C   UNL     1       2.206   8.207  17.570  0.00  0.00    +0.000 C 
BRANCH  20  25
ATOM     21  C   UNL     1       1.102   9.369  21.053  0.00  0.00    +0.000 A 
ATOM     22  C   UNL     1       0.841  10.722  20.774  0.00  0.00    +0.000 A 
ATOM     23  C   UNL     1       0.987  11.226  19.488  0.00  0.00    +0.000 A 
ATOM     24  C   UNL     1       1.414  10.389  18.468  0.00  0.00    +0.000 A 
ATOM     25  C   UNL     1       1.738   9.046  18.732  0.00  0.00    +0.000 A 
ATOM     26  C   UNL     1       1.630   8.537  20.047  0.00  0.00    +0.000 A 
BRANCH  21  28
ATOM     27  C   UNL     1      -0.128   9.569  23.065  0.00  0.00    +0.000 C 
ATOM     28  O   UNL     1       0.865   8.871  22.307  0.00  0.00    +0.000 OA
ENDBRANCH  21  28
BRANCH  26  29
ATOM     29  O   UNL     1       2.043   7.232  20.184  0.00  0.00    +0.000 OA
ATOM     30  C   UNL     1       1.127   6.269  20.690  0.00  0.00    +0.000 C 
ENDBRANCH  26  29
ENDBRANCH  20  25
ENDBRANCH   1  20
TORSDOF 5
ENDMDL
MODEL 6
REMARK VINA RESULT:      -8.1      1.681      2.790
REMARK  Name = 
REMARK  9 active torsions:
REMARK  status: ('A' for Active; 'I' for Inactive)
REMARK    1  A    between atoms: C_1  and  O_2
REMARK    2  A    between atoms: O_2  and  C_3
REMARK    3  A    between atoms: C_7  and  C_8
REMARK    4  A    between atoms: C_8  and  N_9
REMARK    5  A    between atoms: C_10  and  C_12
REMARK    6  A    between atoms: C_13  and  C_14
REMARK    7  A    between atoms: C_22  and  C_23
REMARK    8  A    between atoms: C_27  and  O_28
REMARK    9  A    between atoms: O_28  and  C_29
REMARK                            x       y       z     vdW  Elec       q    Type
REMARK                         _______ _______ _______ _____ _____    ______ ____
ROOT
ATOM      1  N   UNL     1       2.246   6.078  20.742  0.00  0.00    +0.000 N 
ATOM      2  C   UNL     1       2.030   4.905  20.068  0.00  0.00    +0.000 C 
ATOM      3  O   UNL     1       1.034   4.657  19.403  0.00  0.00    +0.000 OA
ATOM      4  H   UNL     1       3.151   6.289  21.131  0.00  0.00    +0.000 HD
ENDROOT
BRANCH   2   5
ATOM      5  C   UNL     1       3.144   3.935  20.164  0.00  0.00    +0.000 C 
ATOM      6  C   UNL     1       3.190   2.893  21.002  0.00  0.00    +0.000 C 
ATOM      7  C   UNL     1       2.244   2.327  21.992  0.00  0.00    +0.000 C 
ATOM      8  C   UNL     1       4.481   2.244  20.765  0.00  0.00    +0.000 C 
ATOM      9  O   UNL     1       4.888   1.258  21.354  0.00  0.00    +0.000 OA
ATOM     10  O   UNL     1       5.164   2.924  19.811  0.00  0.00    +0.000 OA
ATOM     11  C   UNL     1       4.327   3.960  19.248  0.00  0.00    +0.000 C 
ATOM     12  C   UNL     1       5.126   5.274  19.273  0.00  0.00    +0.000 C 
ATOM     13  C   UNL     1       6.340   5.206  18.341  0.00  0.00    +0.000 C 
ATOM     14  N   UNL     1       5.936   4.804  16.994  0.00  0.00    +0.000 N 
ATOM     15  C   UNL     1       6.113   5.694  15.947  0.00  0.00    +0.000 C 
ATOM     16  C   UNL     1       5.716   5.309  14.542  0.00  0.00    +0.000 C 
ATOM     17  O   UNL     1       6.607   6.812  16.124  0.00  0.00    +0.000 OA
ATOM     18  C   UNL     1       5.278   3.502  16.942  0.00  0.00    +0.000 C 
ATOM     19  C   UNL     1       4.010   3.525  17.801  0.00  0.00    +0.000 C 
ENDBRANCH   2   5
BRANCH   1  20
ATOM     20  C   UNL     1       1.242   7.107  20.915  0.00  0.00    +0.000 C 
BRANCH  20  25
ATOM     21  C   UNL     1       0.803  10.331  18.888  0.00  0.00    +0.000 A 
ATOM     22  C   UNL     1       1.770  10.114  17.892  0.00  0.00    +0.000 A 
ATOM     23  C   UNL     1       2.514   8.940  17.865  0.00  0.00    +0.000 A 
ATOM     24  C   UNL     1       2.313   7.978  18.844  0.00  0.00    +0.000 A 
ATOM     25  C   UNL     1       1.392   8.197  19.885  0.00  0.00    +0.000 A 
ATOM     26  C   UNL     1       0.662   9.406  19.940  0.00  0.00    +0.000 A 
BRANCH  21  28
ATOM     27  C   UNL     1       0.719  12.695  18.967  0.00  0.00    +0.000 C 
ATOM     28  O   UNL     1       0.017  11.454  18.845  0.00  0.00    +0.000 OA
ENDBRANCH  21  28
BRANCH  26  29
ATOM     29  O   UNL     1      -0.151   9.525  21.044  0.00  0.00    +0.000 OA
ATOM     30  C   UNL     1       0.211  10.442  22.071  0.00  0.00    +0.000 C 
ENDBRANCH  26  29
ENDBRANCH  20  25
ENDBRANCH   1  20
TORSDOF 5
ENDMDL
MODEL 7
REMARK VINA RESULT:      -7.8      2.210      4.407
REMARK  Name = 
REMARK  9 active torsions:
REMARK  status: ('A' for Active; 'I' for Inactive)
REMARK    1  A    between atoms: C_1  and  O_2
REMARK    2  A    between atoms: O_2  and  C_3
REMARK    3  A    between atoms: C_7  and  C_8
REMARK    4  A    between atoms: C_8  and  N_9
REMARK    5  A    between atoms: C_10  and  C_12
REMARK    6  A    between atoms: C_13  and  C_14
REMARK    7  A    between atoms: C_22  and  C_23
REMARK    8  A    between atoms: C_27  and  O_28
REMARK    9  A    between atoms: O_28  and  C_29
REMARK                            x       y       z     vdW  Elec       q    Type
REMARK                         _______ _______ _______ _____ _____    ______ ____
ROOT
ATOM      1  N   UNL     1       3.217   7.677  17.862  0.00  0.00    +0.000 N 
ATOM      2  C   UNL     1       4.189   7.169  17.042  0.00  0.00    +0.000 C 
ATOM      3  O   UNL     1       4.314   7.445  15.857  0.00  0.00    +0.000 OA
ATOM      4  H   UNL     1       3.265   7.545  18.860  0.00  0.00    +0.000 HD
ENDROOT
BRANCH   2   5
ATOM      5  C   UNL     1       5.142   6.262  17.718  0.00  0.00    +0.000 C 
ATOM      6  C   UNL     1       6.450   6.496  17.878  0.00  0.00    +0.000 C 
ATOM      7  C   UNL     1       7.339   7.634  17.545  0.00  0.00    +0.000 C 
ATOM      8  C   UNL     1       6.987   5.320  18.567  0.00  0.00    +0.000 C 
ATOM      9  O   UNL     1       8.155   5.163  18.877  0.00  0.00    +0.000 OA
ATOM     10  O   UNL     1       5.992   4.423  18.780  0.00  0.00    +0.000 OA
ATOM     11  C   UNL     1       4.721   4.995  18.396  0.00  0.00    +0.000 C 
ATOM     12  C   UNL     1       4.011   3.986  17.478  0.00  0.00    +0.000 C 
ATOM     13  C   UNL     1       3.647   2.704  18.235  0.00  0.00    +0.000 C 
ATOM     14  N   UNL     1       2.887   3.016  19.445  0.00  0.00    +0.000 N 
ATOM     15  C   UNL     1       1.581   2.566  19.550  0.00  0.00    +0.000 C 
ATOM     16  C   UNL     1       0.769   2.862  20.789  0.00  0.00    +0.000 C 
ATOM     17  O   UNL     1       1.048   1.907  18.651  0.00  0.00    +0.000 OA
ATOM     18  C   UNL     1       3.599   3.882  20.379  0.00  0.00    +0.000 C 
ATOM     19  C   UNL     1       3.930   5.216  19.704  0.00  0.00    +0.000 C 
ENDBRANCH   2   5
BRANCH   1  20
ATOM     20  C   UNL     1       2.093   8.461  17.395  0.00  0.00    +0.000 C 
BRANCH  20  25
ATOM     21  C   UNL     1       0.982  10.782  20.237  0.00  0.00    +0.000 A 
ATOM     22  C   UNL     1       1.504  11.997  19.762  0.00  0.00    +0.000 A 
ATOM     23  C   UNL     1       2.165  12.061  18.541  0.00  0.00    +0.000 A 
ATOM     24  C   UNL     1       2.327  10.908  17.788  0.00  0.00    +0.000 A 
ATOM     25  C   UNL     1       1.866   9.669  18.269  0.00  0.00    +0.000 A 
ATOM     26  C   UNL     1       1.229   9.590  19.528  0.00  0.00    +0.000 A 
BRANCH  21  28
ATOM     27  C   UNL     1      -0.928  11.559  21.397  0.00  0.00    +0.000 C 
ATOM     28  O   UNL     1       0.256  10.757  21.399  0.00  0.00    +0.000 OA
ENDBRANCH  21  28
BRANCH  26  29
ATOM     29  O   UNL     1       0.889   8.313  19.912  0.00  0.00    +0.000 OA
ATOM     30  C   UNL     1       1.529   7.742  21.047  0.00  0.00    +0.000 C 
ENDBRANCH  26  29
ENDBRANCH  20  25
ENDBRANCH   1  20
TORSDOF 5
ENDMDL
MODEL 8
REMARK VINA RESULT:      -7.7      1.416      2.287
REMARK  Name = 
REMARK  9 active torsions:
REMARK  status: ('A' for Active; 'I' for Inactive)
REMARK    1  A    between atoms: C_1  and  O_2
REMARK    2  A    between atoms: O_2  and  C_3
REMARK    3  A    between atoms: C_7  and  C_8
REMARK    4  A    between atoms: C_8  and  N_9
REMARK    5  A    between atoms: C_10  and  C_12
REMARK    6  A    between atoms: C_13  and  C_14
REMARK    7  A    between atoms: C_22  and  C_23
REMARK    8  A    between atoms: C_27  and  O_28
REMARK    9  A    between atoms: O_28  and  C_29
REMARK                            x       y       z     vdW  Elec       q    Type
REMARK                         _______ _______ _______ _____ _____    ______ ____
ROOT
ATOM      1  N   UNL     1       1.592   8.556  18.677  0.00  0.00    +0.000 N 
ATOM      2  C   UNL     1       2.560   7.812  18.057  0.00  0.00    +0.000 C 
ATOM      3  O   UNL     1       3.110   8.119  17.009  0.00  0.00    +0.000 OA
ATOM      4  H   UNL     1       1.298   8.339  19.616  0.00  0.00    +0.000 HD
ENDROOT
BRANCH   2   5
ATOM      5  C   UNL     1       2.944   6.583  18.788  0.00  0.00    +0.000 C 
ATOM      6  C   UNL     1       2.355   6.132  19.902  0.00  0.00    +0.000 C 
ATOM      7  C   UNL     1       1.196   6.582  20.707  0.00  0.00    +0.000 C 
ATOM      8  C   UNL     1       3.084   4.918  20.277  0.00  0.00    +0.000 C 
ATOM      9  O   UNL     1       2.842   4.230  21.253  0.00  0.00    +0.000 OA
ATOM     10  O   UNL     1       4.086   4.696  19.391  0.00  0.00    +0.000 OA
ATOM     11  C   UNL     1       3.997   5.639  18.298  0.00  0.00    +0.000 C 
ATOM     12  C   UNL     1       5.385   6.273  18.111  0.00  0.00    +0.000 C 
ATOM     13  C   UNL     1       6.414   5.237  17.646  0.00  0.00    +0.000 C 
ATOM     14  N   UNL     1       5.937   4.533  16.456  0.00  0.00    +0.000 N 
ATOM     15  C   UNL     1       6.640   4.671  15.270  0.00  0.00    +0.000 C 
ATOM     16  C   UNL     1       6.182   3.953  14.023  0.00  0.00    +0.000 C 
ATOM     17  O   UNL     1       7.658   5.368  15.197  0.00  0.00    +0.000 OA
ATOM     18  C   UNL     1       4.674   3.830  16.655  0.00  0.00    +0.000 C 
ATOM     19  C   UNL     1       3.581   4.825  17.054  0.00  0.00    +0.000 C 
ENDBRANCH   2   5
BRANCH   1  20
ATOM     20  C   UNL     1       0.954   9.711  18.080  0.00  0.00    +0.000 C 
BRANCH  20  25
ATOM     21  C   UNL     1       1.408  12.643  20.508  0.00  0.00    +0.000 A 
ATOM     22  C   UNL     1       2.354  13.395  19.790  0.00  0.00    +0.000 A 
ATOM     23  C   UNL     1       2.799  12.976  18.543  0.00  0.00    +0.000 A 
ATOM     24  C   UNL     1       2.320  11.790  18.005  0.00  0.00    +0.000 A 
ATOM     25  C   UNL     1       1.418  10.990  18.730  0.00  0.00    +0.000 A 
ATOM     26  C   UNL     1       0.991  11.391  20.017  0.00  0.00    +0.000 A 
BRANCH  21  28
ATOM     27  C   UNL     1       0.254  14.385  21.618  0.00  0.00    +0.000 C 
ATOM     28  O   UNL     1       0.914  13.118  21.695  0.00  0.00    +0.000 OA
ENDBRANCH  21  28
BRANCH  26  29
ATOM     29  O   UNL     1       0.166  10.487  20.646  0.00  0.00    +0.000 OA
ATOM     30  C   UNL     1       0.597   9.896  21.867  0.00  0.00    +0.000 C 
ENDBRANCH  26  29
ENDBRANCH  20  25
ENDBRANCH   1  20
TORSDOF 5
ENDMDL
MODEL 9
REMARK VINA RESULT:      -7.7      2.076      3.060
REMARK  Name = 
REMARK  9 active torsions:
REMARK  status: ('A' for Active; 'I' for Inactive)
REMARK    1  A    between atoms: C_1  and  O_2
REMARK    2  A    between atoms: O_2  and  C_3
REMARK    3  A    between atoms: C_7  and  C_8
REMARK    4  A    between atoms: C_8  and  N_9
REMARK    5  A    between atoms: C_10  and  C_12
REMARK    6  A    between atoms: C_13  and  C_14
REMARK    7  A    between atoms: C_22  and  C_23
REMARK    8  A    between atoms: C_27  and  O_28
REMARK    9  A    between atoms: O_28  and  C_29
REMARK                            x       y       z     vdW  Elec       q    Type
REMARK                         _______ _______ _______ _____ _____    ______ ____
ROOT
ATOM      1  N   UNL     1       2.274   6.742  20.249  0.00  0.00    +0.000 N 
ATOM      2  C   UNL     1       2.451   5.390  20.374  0.00  0.00    +0.000 C 
ATOM      3  O   UNL     1       2.323   4.765  21.417  0.00  0.00    +0.000 OA
ATOM      4  H   UNL     1       2.228   7.174  19.339  0.00  0.00    +0.000 HD
ENDROOT
BRANCH   2   5
ATOM      5  C   UNL     1       2.777   4.700  19.107  0.00  0.00    +0.000 C 
ATOM      6  C   UNL     1       1.961   3.870  18.447  0.00  0.00    +0.000 C 
ATOM      7  C   UNL     1       0.565   3.419  18.656  0.00  0.00    +0.000 C 
ATOM      8  C   UNL     1       2.716   3.408  17.279  0.00  0.00    +0.000 C 
ATOM      9  O   UNL     1       2.301   2.626  16.443  0.00  0.00    +0.000 OA
ATOM     10  O   UNL     1       3.953   3.962  17.289  0.00  0.00    +0.000 OA
ATOM     11  C   UNL     1       4.052   4.932  18.357  0.00  0.00    +0.000 C 
ATOM     12  C   UNL     1       5.328   4.622  19.157  0.00  0.00    +0.000 C 
ATOM     13  C   UNL     1       6.586   4.847  18.310  0.00  0.00    +0.000 C 
ATOM     14  N   UNL     1       6.583   6.189  17.728  0.00  0.00    +0.000 N 
ATOM     15  C   UNL     1       7.574   7.082  18.101  0.00  0.00    +0.000 C 
ATOM     16  C   UNL     1       7.608   8.473  17.513  0.00  0.00    +0.000 C 
ATOM     17  O   UNL     1       8.458   6.772  18.907  0.00  0.00    +0.000 OA
ATOM     18  C   UNL     1       5.432   6.456  16.871  0.00  0.00    +0.000 C 
ATOM     19  C   UNL     1       4.139   6.317  17.680  0.00  0.00    +0.000 C 
ENDBRANCH   2   5
BRANCH   1  20
ATOM     20  C   UNL     1       2.098   7.642  21.370  0.00  0.00    +0.000 C 
BRANCH  20  25
ATOM     21  C   UNL     1      -0.109  10.223  19.592  0.00  0.00    +0.000 A 
ATOM     22  C   UNL     1      -0.884  10.657  20.681  0.00  0.00    +0.000 A 
ATOM     23  C   UNL     1      -0.668  10.149  21.956  0.00  0.00    +0.000 A 
ATOM     24  C   UNL     1       0.312   9.187  22.155  0.00  0.00    +0.000 A 
ATOM     25  C   UNL     1       1.061   8.694  21.071  0.00  0.00    +0.000 A 
ATOM     26  C   UNL     1       0.819   9.178  19.765  0.00  0.00    +0.000 A 
BRANCH  21  28
ATOM     27  C   UNL     1      -1.487  10.456  17.682  0.00  0.00    +0.000 C 
ATOM     28  O   UNL     1      -0.276  10.802  18.361  0.00  0.00    +0.000 OA
ENDBRANCH  21  28
BRANCH  26  29
ATOM     29  O   UNL     1       1.567   8.565  18.787  0.00  0.00    +0.000 OA
ATOM     30  C   UNL     1       2.248   9.373  17.833  0.00  0.00    +0.000 C 
ENDBRANCH  26  29
ENDBRANCH  20  25
ENDBRANCH   1  20
TORSDOF 5
ENDMDL
