MODEL 1
REMARK VINA RESULT:      -8.8      0.000      0.000
REMARK  Name = 
REMARK  8 active torsions:
REMARK  status: ('A' for Active; 'I' for Inactive)
REMARK    1  A    between atoms: C_2  and  C_3
REMARK    2  A    between atoms: C_6  and  C_7
REMARK    3  A    between atoms: C_9  and  C_10
REMARK    4  A    between atoms: C_10  and  C_11
REMARK    5  A    between atoms: C_10  and  C_18
REMARK    6  A    between atoms: C_26  and  C_27
REMARK    7  A    between atoms: C_27  and  C_28
REMARK    8  A    between atoms: C_28  and  O_30
REMARK                            x       y       z     vdW  Elec       q    Type
REMARK                         _______ _______ _______ _____ _____    ______ ____
ROOT
ATOM      1  C   UNL     1       2.949   5.863  18.241  0.00  0.00    +0.000 A 
ATOM      2  N   UNL     1       4.233   6.084  17.797  0.00  0.00    +0.000 NA
ATOM      3  C   UNL     1       4.819   4.972  17.412  0.00  0.00    +0.000 A 
ATOM      4  S   UNL     1       3.805   3.585  17.502  0.00  0.00    +0.000 S 
ATOM      5  C   UNL     1       2.502   4.559  18.101  0.00  0.00    +0.000 A 
ENDROOT
BRANCH   1   9
ATOM      6  C   UNL     1       1.067   9.332  19.843  0.00  0.00    +0.000 A 
ATOM      7  C   UNL     1       1.386   9.265  18.484  0.00  0.00    +0.000 A 
ATOM      8  C   UNL     1       1.959   8.103  17.962  0.00  0.00    +0.000 A 
ATOM      9  C   UNL     1       2.229   7.001  18.793  0.00  0.00    +0.000 A 
ATOM     10  C   UNL     1       1.919   7.090  20.152  0.00  0.00    +0.000 A 
ATOM     11  C   UNL     1       1.328   8.240  20.672  0.00  0.00    +0.000 A 
BRANCH   6  13
ATOM     12  N   UNL     1       0.045  11.492  20.838  0.00  0.00    +0.000 NA
ATOM     13  C   UNL     1       0.498  10.522  20.398  0.00  0.00    +0.000 C 
ENDBRANCH   6  13
ENDBRANCH   1   9
BRANCH   3  14
ATOM     14  C   UNL     1       6.284   4.896  16.979  0.00  0.00    +0.000 C 
BRANCH  14  15
ATOM     15  C   UNL     1       6.432   4.701  15.466  0.00  0.00    +0.000 A 
ATOM     16  C   UNL     1       7.581   5.148  14.784  0.00  0.00    +0.000 A 
ATOM     17  C   UNL     1       7.736   4.931  13.415  0.00  0.00    +0.000 A 
ATOM     18  C   UNL     1       6.743   4.263  12.712  0.00  0.00    +0.000 A 
ATOM     19  F   UNL     1       6.903   4.029  11.403  0.00  0.00    +0.000 F 
ATOM     20  C   UNL     1       5.587   3.829  13.351  0.00  0.00    +0.000 A 
ATOM     21  C   UNL     1       5.429   4.047  14.723  0.00  0.00    +0.000 A 
ENDBRANCH  14  15
BRANCH  14  22
ATOM     22  C   UNL     1       7.129   6.073  17.512  0.00  0.00    +0.000 A 
ATOM     23  C   UNL     1       7.856   5.919  18.708  0.00  0.00    +0.000 A 
ATOM     24  C   UNL     1       8.533   7.004  19.277  0.00  0.00    +0.000 A 
ATOM     25  C   UNL     1       8.501   8.244  18.651  0.00  0.00    +0.000 A 
ATOM     26  F   UNL     1       9.100   9.294  19.227  0.00  0.00    +0.000 F 
ATOM     27  C   UNL     1       7.850   8.409  17.440  0.00  0.00    +0.000 A 
ATOM     28  C   UNL     1       7.187   7.324  16.864  0.00  0.00    +0.000 A 
ENDBRANCH  14  22
ENDBRANCH   3  14
BRANCH   5  29
ATOM     29  C   UNL     1       1.142   3.953  18.308  0.00  0.00    +0.000 C 
BRANCH  29  30
ATOM     30  C   UNL     1       1.070   2.965  19.450  0.00  0.00    +0.000 C 
ATOM     31  O   UNL     1       1.474   1.813  19.349  0.00  0.00    +0.000 OA
BRANCH  30  32
ATOM     32  O   UNL     1       0.586   3.435  20.619  0.00  0.00    +0.000 OA
ATOM     33  H   UNL     1      -0.370   3.625  20.617  0.00  0.00    +0.000 HD
ENDBRANCH  30  32
ENDBRANCH  29  30
ENDBRANCH   5  29
TORSDOF 8
ENDMDL
MODEL 2
REMARK VINA RESULT:      -8.8      0.461      1.078
REMARK  Name = 
REMARK  8 active torsions:
REMARK  status: ('A' for Active; 'I' for Inactive)
REMARK    1  A    between atoms: C_2  and  C_3
REMARK    2  A    between atoms: C_6  and  C_7
REMARK    3  A    between atoms: C_9  and  C_10
REMARK    4  A    between atoms: C_10  and  C_11
REMARK    5  A    between atoms: C_10  and  C_18
REMARK    6  A    between atoms: C_26  and  C_27
REMARK    7  A    between atoms: C_27  and  C_28
REMARK    8  A    between atoms: C_28  and  O_30
REMARK                            x       y       z     vdW  Elec       q    Type
REMARK                         _______ _______ _______ _____ _____    ______ ____
ROOT
ATOM      1  C   UNL     1       2.936   5.939  18.537  0.00  0.00    +0.000 A 
ATOM      2  N   UNL     1       4.184   6.133  17.989  0.00  0.00    +0.000 NA
ATOM      3  C   UNL     1       4.807   4.997  17.769  0.00  0.00    +0.000 A 
ATOM      4  S   UNL     1       3.873   3.605  18.156  0.00  0.00    +0.000 S 
ATOM      5  C   UNL     1       2.552   4.612  18.650  0.00  0.00    +0.000 A 
ENDROOT
BRANCH   1   9
ATOM      6  C   UNL     1       0.963   9.544  19.655  0.00  0.00    +0.000 A 
ATOM      7  C   UNL     1       1.362   9.338  18.332  0.00  0.00    +0.000 A 
ATOM      8  C   UNL     1       1.964   8.132  17.968  0.00  0.00    +0.000 A 
ATOM      9  C   UNL     1       2.184   7.124  18.924  0.00  0.00    +0.000 A 
ATOM     10  C   UNL     1       1.795   7.352  20.246  0.00  0.00    +0.000 A 
ATOM     11  C   UNL     1       1.175   8.546  20.608  0.00  0.00    +0.000 A 
BRANCH   6  13
ATOM     12  N   UNL     1      -0.117  11.782  20.379  0.00  0.00    +0.000 NA
ATOM     13  C   UNL     1       0.363  10.782  20.048  0.00  0.00    +0.000 C 
ENDBRANCH   6  13
ENDBRANCH   1   9
BRANCH   3  14
ATOM     14  C   UNL     1       6.251   4.910  17.273  0.00  0.00    +0.000 C 
BRANCH  14  15
ATOM     15  C   UNL     1       6.331   4.622  15.769  0.00  0.00    +0.000 A 
ATOM     16  C   UNL     1       5.240   4.060  15.078  0.00  0.00    +0.000 A 
ATOM     17  C   UNL     1       5.297   3.838  13.702  0.00  0.00    +0.000 A 
ATOM     18  C   UNL     1       6.446   4.176  13.002  0.00  0.00    +0.000 A 
ATOM     19  F   UNL     1       6.492   3.989  11.676  0.00  0.00    +0.000 F 
ATOM     20  C   UNL     1       7.549   4.711  13.658  0.00  0.00    +0.000 A 
ATOM     21  C   UNL     1       7.494   4.933  15.038  0.00  0.00    +0.000 A 
ENDBRANCH  14  15
BRANCH  14  22
ATOM     22  C   UNL     1       7.105   6.127  17.690  0.00  0.00    +0.000 A 
ATOM     23  C   UNL     1       7.900   6.051  18.850  0.00  0.00    +0.000 A 
ATOM     24  C   UNL     1       8.588   7.175  19.319  0.00  0.00    +0.000 A 
ATOM     25  C   UNL     1       8.500   8.377  18.628  0.00  0.00    +0.000 A 
ATOM     26  F   UNL     1       9.112   9.467  19.110  0.00  0.00    +0.000 F 
ATOM     27  C   UNL     1       7.780   8.465  17.448  0.00  0.00    +0.000 A 
ATOM     28  C   UNL     1       7.105   7.340  16.972  0.00  0.00    +0.000 A 
ENDBRANCH  14  22
ENDBRANCH   3  14
BRANCH   5  29
ATOM     29  C   UNL     1       1.237   3.993  19.037  0.00  0.00    +0.000 C 
BRANCH  29  30
ATOM     30  C   UNL     1       1.348   2.584  19.573  0.00  0.00    +0.000 C 
ATOM     31  O   UNL     1       1.527   2.346  20.761  0.00  0.00    +0.000 OA
BRANCH  30  32
ATOM     32  O   UNL     1       1.184   1.588  18.678  0.00  0.00    +0.000 OA
ATOM     33  H   UNL     1       0.397   1.031  18.826  0.00  0.00    +0.000 HD
ENDBRANCH  30  32
ENDBRANCH  29  30
ENDBRANCH   5  29
TORSDOF 8
ENDMDL
MODEL 3
REMARK VINA RESULT:      -8.6      0.479      1.075
REMARK  Name = 
REMARK  8 active torsions:
REMARK  status: ('A' for Active; 'I' for Inactive)
REMARK    1  A    between atoms: C_2  and  C_3
REMARK    2  A    between atoms: C_6  and  C_7
REMARK    3  A    between atoms: C_9  and  C_10
REMARK    4  A    between atoms: C_10  and  C_11
REMARK    5  A    between atoms: C_10  and  C_18
REMARK    6  A    between atoms: C_26  and  C_27
REMARK    7  A    between atoms: C_27  and  C_28
REMARK    8  A    between atoms: C_28  and  O_30
REMARK                            x       y       z     vdW  Elec       q    Type
REMARK                         _______ _______ _______ _____ _____    ______ ____
ROOT
ATOM      1  C   UNL     1       2.967   6.099  18.572  0.00  0.00    +0.000 A 
ATOM      2  N   UNL     1       4.225   6.278  18.041  0.00  0.00    +0.000 NA
ATOM      3  C   UNL     1       4.801   5.134  17.746  0.00  0.00    +0.000 A 
ATOM      4  S   UNL     1       3.807   3.759  18.033  0.00  0.00    +0.000 S 
ATOM      5  C   UNL     1       2.526   4.785  18.592  0.00  0.00    +0.000 A 
ENDROOT
BRANCH   1   9
ATOM      6  C   UNL     1       0.689   9.425  19.946  0.00  0.00    +0.000 A 
ATOM      7  C   UNL     1       1.051   8.404  20.828  0.00  0.00    +0.000 A 
ATOM      8  C   UNL     1       1.839   7.343  20.377  0.00  0.00    +0.000 A 
ATOM      9  C   UNL     1       2.264   7.286  19.037  0.00  0.00    +0.000 A 
ATOM     10  C   UNL     1       1.880   8.305  18.164  0.00  0.00    +0.000 A 
ATOM     11  C   UNL     1       1.111   9.376  18.616  0.00  0.00    +0.000 A 
BRANCH   6  13
ATOM     12  N   UNL     1      -0.803  11.378  20.757  0.00  0.00    +0.000 NA
ATOM     13  C   UNL     1      -0.136  10.508  20.388  0.00  0.00    +0.000 C 
ENDBRANCH   6  13
ENDBRANCH   1   9
BRANCH   3  14
ATOM     14  C   UNL     1       6.243   5.020  17.248  0.00  0.00    +0.000 C 
BRANCH  14  15
ATOM     15  C   UNL     1       6.317   4.750  15.741  0.00  0.00    +0.000 A 
ATOM     16  C   UNL     1       7.475   5.064  15.003  0.00  0.00    +0.000 A 
ATOM     17  C   UNL     1       7.559   4.780  13.640  0.00  0.00    +0.000 A 
ATOM     18  C   UNL     1       6.485   4.176  13.000  0.00  0.00    +0.000 A 
ATOM     19  F   UNL     1       6.575   3.876  11.698  0.00  0.00    +0.000 F 
ATOM     20  C   UNL     1       5.320   3.874  13.695  0.00  0.00    +0.000 A 
ATOM     21  C   UNL     1       5.233   4.160  15.062  0.00  0.00    +0.000 A 
ENDBRANCH  14  15
BRANCH  14  22
ATOM     22  C   UNL     1       7.125   6.210  17.683  0.00  0.00    +0.000 A 
ATOM     23  C   UNL     1       7.906   6.104  18.850  0.00  0.00    +0.000 A 
ATOM     24  C   UNL     1       8.620   7.206  19.334  0.00  0.00    +0.000 A 
ATOM     25  C   UNL     1       8.571   8.415  18.651  0.00  0.00    +0.000 A 
ATOM     26  F   UNL     1       9.207   9.484  19.147  0.00  0.00    +0.000 F 
ATOM     27  C   UNL     1       7.865   8.530  17.465  0.00  0.00    +0.000 A 
ATOM     28  C   UNL     1       7.164   7.427  16.974  0.00  0.00    +0.000 A 
ENDBRANCH  14  22
ENDBRANCH   3  14
BRANCH   5  29
ATOM     29  C   UNL     1       1.184   4.198  18.931  0.00  0.00    +0.000 C 
BRANCH  29  30
ATOM     30  C   UNL     1       1.245   2.796  19.493  0.00  0.00    +0.000 C 
ATOM     31  O   UNL     1       1.569   2.566  20.652  0.00  0.00    +0.000 OA
BRANCH  30  32
ATOM     32  O   UNL     1       0.868   1.801  18.663  0.00  0.00    +0.000 OA
ATOM     33  H   UNL     1       1.325   0.952  18.808  0.00  0.00    +0.000 HD
ENDBRANCH  30  32
ENDBRANCH  29  30
ENDBRANCH   5  29
TORSDOF 8
ENDMDL
MODEL 4
REMARK VINA RESULT:      -8.5      0.847      1.480
REMARK  Name = 
REMARK  8 active torsions:
REMARK  status: ('A' for Active; 'I' for Inactive)
REMARK    1  A    between atoms: C_2  and  C_3
REMARK    2  A    between atoms: C_6  and  C_7
REMARK    3  A    between atoms: C_9  and  C_10
REMARK    4  A    between atoms: C_10  and  C_11
REMARK    5  A    between atoms: C_10  and  C_18
REMARK    6  A    between atoms: C_26  and  C_27
REMARK    7  A    between atoms: C_27  and  C_28
REMARK    8  A    between atoms: C_28  and  O_30
REMARK                            x       y       z     vdW  Elec       q    Type
REMARK                         _______ _______ _______ _____ _____    ______ ____
ROOT
ATOM      1  C   UNL     1       2.881   6.332  18.862  0.00  0.00    +0.000 A 
ATOM      2  N   UNL     1       4.096   6.418  18.221  0.00  0.00    +0.000 NA
ATOM      3  C   UNL     1       4.708   5.257  18.168  0.00  0.00    +0.000 A 
ATOM      4  S   UNL     1       3.798   3.960  18.841  0.00  0.00    +0.000 S 
ATOM      5  C   UNL     1       2.505   5.048  19.224  0.00  0.00    +0.000 A 
ENDROOT
BRANCH   1   9
ATOM      6  C   UNL     1       0.522   9.816  19.524  0.00  0.00    +0.000 A 
ATOM      7  C   UNL     1       0.857   8.977  20.590  0.00  0.00    +0.000 A 
ATOM      8  C   UNL     1       1.671   7.864  20.368  0.00  0.00    +0.000 A 
ATOM      9  C   UNL     1       2.150   7.572  19.078  0.00  0.00    +0.000 A 
ATOM     10  C   UNL     1       1.793   8.412  18.021  0.00  0.00    +0.000 A 
ATOM     11  C   UNL     1       0.998   9.535  18.242  0.00  0.00    +0.000 A 
BRANCH   6  13
ATOM     12  N   UNL     1      -1.009  11.871  19.887  0.00  0.00    +0.000 NA
ATOM     13  C   UNL     1      -0.327  10.949  19.731  0.00  0.00    +0.000 C 
ENDBRANCH   6  13
ENDBRANCH   1   9
BRANCH   3  14
ATOM     14  C   UNL     1       6.122   5.073  17.616  0.00  0.00    +0.000 C 
BRANCH  14  15
ATOM     15  C   UNL     1       6.121   4.676  16.135  0.00  0.00    +0.000 A 
ATOM     16  C   UNL     1       4.955   4.181  15.517  0.00  0.00    +0.000 A 
ATOM     17  C   UNL     1       4.942   3.862  14.159  0.00  0.00    +0.000 A 
ATOM     18  C   UNL     1       6.093   4.033  13.404  0.00  0.00    +0.000 A 
ATOM     19  F   UNL     1       6.073   3.754  12.095  0.00  0.00    +0.000 F 
ATOM     20  C   UNL     1       7.265   4.498  13.990  0.00  0.00    +0.000 A 
ATOM     21  C   UNL     1       7.282   4.818  15.351  0.00  0.00    +0.000 A 
ENDBRANCH  14  15
BRANCH  14  22
ATOM     22  C   UNL     1       7.042   6.278  17.907  0.00  0.00    +0.000 A 
ATOM     23  C   UNL     1       7.940   6.219  18.991  0.00  0.00    +0.000 A 
ATOM     24  C   UNL     1       8.698   7.339  19.352  0.00  0.00    +0.000 A 
ATOM     25  C   UNL     1       8.577   8.518  18.626  0.00  0.00    +0.000 A 
ATOM     26  F   UNL     1       9.259   9.605  19.009  0.00  0.00    +0.000 F 
ATOM     27  C   UNL     1       7.753   8.585  17.515  0.00  0.00    +0.000 A 
ATOM     28  C   UNL     1       7.007   7.464  17.146  0.00  0.00    +0.000 A 
ENDBRANCH  14  22
ENDBRANCH   3  14
BRANCH   5  29
ATOM     29  C   UNL     1       1.214   4.517  19.783  0.00  0.00    +0.000 C 
BRANCH  29  30
ATOM     30  C   UNL     1       1.128   3.008  19.818  0.00  0.00    +0.000 C 
ATOM     31  O   UNL     1       0.768   2.347  18.851  0.00  0.00    +0.000 OA
BRANCH  30  32
ATOM     32  O   UNL     1       1.526   2.412  20.962  0.00  0.00    +0.000 OA
ATOM     33  H   UNL     1       2.450   2.592  21.215  0.00  0.00    +0.000 HD
ENDBRANCH  30  32
ENDBRANCH  29  30
ENDBRANCH   5  29
TORSDOF 8
ENDMDL
MODEL 5
REMARK VINA RESULT:      -8.3      0.711      1.184
REMARK  Name = 
REMARK  8 active torsions:
REMARK  status: ('A' for Active; 'I' for Inactive)
REMARK    1  A    between atoms: C_2  and  C_3
REMARK    2  A    between atoms: C_6  and  C_7
REMARK    3  A    between atoms: C_9  and  C_10
REMARK    4  A    between atoms: C_10  and  C_11
REMARK    5  A    between atoms: C_10  and  C_18
REMARK    6  A    between atoms: C_26  and  C_27
REMARK    7  A    between atoms: C_27  and  C_28
REMARK    8  A    between atoms: C_28  and  O_30
REMARK                            x       y       z     vdW  Elec       q    Type
REMARK                         _______ _______ _______ _____ _____    ______ ____
ROOT
ATOM      1  C   UNL     1       2.833   6.079  18.831  0.00  0.00    +0.000 A 
ATOM      2  N   UNL     1       4.062   6.298  18.250  0.00  0.00    +0.000 NA
ATOM      3  C   UNL     1       4.729   5.180  18.074  0.00  0.00    +0.000 A 
ATOM      4  S   UNL     1       3.862   3.770  18.545  0.00  0.00    +0.000 S 
ATOM      5  C   UNL     1       2.507   4.744  19.015  0.00  0.00    +0.000 A 
ENDROOT
BRANCH   1   9
ATOM      6  C   UNL     1       0.730   9.647  19.821  0.00  0.00    +0.000 A 
ATOM      7  C   UNL     1       1.161   9.422  18.511  0.00  0.00    +0.000 A 
ATOM      8  C   UNL     1       1.807   8.226  18.189  0.00  0.00    +0.000 A 
ATOM      9  C   UNL     1       2.039   7.249  19.174  0.00  0.00    +0.000 A 
ATOM     10  C   UNL     1       1.616   7.496  20.481  0.00  0.00    +0.000 A 
ATOM     11  C   UNL     1       0.953   8.679  20.802  0.00  0.00    +0.000 A 
BRANCH   6  13
ATOM     12  N   UNL     1      -0.436  11.865  20.470  0.00  0.00    +0.000 NA
ATOM     13  C   UNL     1       0.085  10.875  20.173  0.00  0.00    +0.000 C 
ENDBRANCH   6  13
ENDBRANCH   1   9
BRANCH   3  14
ATOM     14  C   UNL     1       6.168   5.128  17.555  0.00  0.00    +0.000 C 
BRANCH  14  15
ATOM     15  C   UNL     1       6.232   4.818  16.055  0.00  0.00    +0.000 A 
ATOM     16  C   UNL     1       7.416   5.027  15.320  0.00  0.00    +0.000 A 
ATOM     17  C   UNL     1       7.488   4.704  13.965  0.00  0.00    +0.000 A 
ATOM     18  C   UNL     1       6.378   4.167  13.330  0.00  0.00    +0.000 A 
ATOM     19  F   UNL     1       6.455   3.830  12.037  0.00  0.00    +0.000 F 
ATOM     20  C   UNL     1       5.188   3.969  14.022  0.00  0.00    +0.000 A 
ATOM     21  C   UNL     1       5.113   4.294  15.380  0.00  0.00    +0.000 A 
ENDBRANCH  14  15
BRANCH  14  22
ATOM     22  C   UNL     1       6.990   6.377  17.940  0.00  0.00    +0.000 A 
ATOM     23  C   UNL     1       6.835   7.564  17.198  0.00  0.00    +0.000 A 
ATOM     24  C   UNL     1       7.654   8.672  17.446  0.00  0.00    +0.000 A 
ATOM     25  C   UNL     1       8.619   8.609  18.443  0.00  0.00    +0.000 A 
ATOM     26  F   UNL     1       9.439   9.650  18.640  0.00  0.00    +0.000 F 
ATOM     27  C   UNL     1       8.749   7.479  19.233  0.00  0.00    +0.000 A 
ATOM     28  C   UNL     1       7.924   6.378  18.996  0.00  0.00    +0.000 A 
ENDBRANCH  14  22
ENDBRANCH   3  14
BRANCH   5  29
ATOM     29  C   UNL     1       1.227   4.091  19.455  0.00  0.00    +0.000 C 
BRANCH  29  30
ATOM     30  C   UNL     1       1.354   2.613  19.749  0.00  0.00    +0.000 C 
ATOM     31  O   UNL     1       1.624   2.186  20.865  0.00  0.00    +0.000 OA
BRANCH  30  32
ATOM     32  O   UNL     1       1.097   1.775  18.723  0.00  0.00    +0.000 OA
ATOM     33  H   UNL     1       0.509   2.139  18.036  0.00  0.00    +0.000 HD
ENDBRANCH  30  32
ENDBRANCH  29  30
ENDBRANCH   5  29
TORSDOF 8
ENDMDL
MODEL 6
REMARK VINA RESULT:      -8.2      1.102      1.687
REMARK  Name = 
REMARK  8 active torsions:
REMARK  status: ('A' for Active; 'I' for Inactive)
REMARK    1  A    between atoms: C_2  and  C_3
REMARK    2  A    between atoms: C_6  and  C_7
REMARK    3  A    between atoms: C_9  and  C_10
REMARK    4  A    between atoms: C_10  and  C_11
REMARK    5  A    between atoms: C_10  and  C_18
REMARK    6  A    between atoms: C_26  and  C_27
REMARK    7  A    between atoms: C_27  and  C_28
REMARK    8  A    between atoms: C_28  and  O_30
REMARK                            x       y       z     vdW  Elec       q    Type
REMARK                         _______ _______ _______ _____ _____    ______ ____
ROOT
ATOM      1  C   UNL     1       2.835   6.358  19.195  0.00  0.00    +0.000 A 
ATOM      2  N   UNL     1       4.010   6.513  18.494  0.00  0.00    +0.000 NA
ATOM      3  C   UNL     1       4.735   5.418  18.502  0.00  0.00    +0.000 A 
ATOM      4  S   UNL     1       3.991   4.095  19.313  0.00  0.00    +0.000 S 
ATOM      5  C   UNL     1       2.608   5.076  19.671  0.00  0.00    +0.000 A 
ENDROOT
BRANCH   1   9
ATOM      6  C   UNL     1       0.578   9.944  19.626  0.00  0.00    +0.000 A 
ATOM      7  C   UNL     1       1.085   9.574  18.377  0.00  0.00    +0.000 A 
ATOM      8  C   UNL     1       1.782   8.372  18.240  0.00  0.00    +0.000 A 
ATOM      9  C   UNL     1       1.989   7.532  19.349  0.00  0.00    +0.000 A 
ATOM     10  C   UNL     1       1.490   7.924  20.593  0.00  0.00    +0.000 A 
ATOM     11  C   UNL     1       0.776   9.113  20.730  0.00  0.00    +0.000 A 
BRANCH   6  13
ATOM     12  N   UNL     1      -0.676  12.187  19.928  0.00  0.00    +0.000 NA
ATOM     13  C   UNL     1      -0.121  11.182  19.788  0.00  0.00    +0.000 C 
ENDBRANCH   6  13
ENDBRANCH   1   9
BRANCH   3  14
ATOM     14  C   UNL     1       6.140   5.332  17.901  0.00  0.00    +0.000 C 
BRANCH  14  15
ATOM     15  C   UNL     1       6.120   4.848  16.446  0.00  0.00    +0.000 A 
ATOM     16  C   UNL     1       4.958   4.284  15.884  0.00  0.00    +0.000 A 
ATOM     17  C   UNL     1       4.927   3.883  14.548  0.00  0.00    +0.000 A 
ATOM     18  C   UNL     1       6.057   4.043  13.760  0.00  0.00    +0.000 A 
ATOM     19  F   UNL     1       6.019   3.686  12.470  0.00  0.00    +0.000 F 
ATOM     20  C   UNL     1       7.226   4.577  14.290  0.00  0.00    +0.000 A 
ATOM     21  C   UNL     1       7.261   4.977  15.630  0.00  0.00    +0.000 A 
ENDBRANCH  14  15
BRANCH  14  22
ATOM     22  C   UNL     1       6.951   6.633  18.083  0.00  0.00    +0.000 A 
ATOM     23  C   UNL     1       6.632   7.764  17.307  0.00  0.00    +0.000 A 
ATOM     24  C   UNL     1       7.425   8.916  17.364  0.00  0.00    +0.000 A 
ATOM     25  C   UNL     1       8.531   8.952  18.203  0.00  0.00    +0.000 A 
ATOM     26  F   UNL     1       9.322  10.033  18.212  0.00  0.00    +0.000 F 
ATOM     27  C   UNL     1       8.832   7.880  19.026  0.00  0.00    +0.000 A 
ATOM     28  C   UNL     1       8.033   6.736  18.982  0.00  0.00    +0.000 A 
ENDBRANCH  14  22
ENDBRANCH   3  14
BRANCH   5  29
ATOM     29  C   UNL     1       1.401   4.465  20.327  0.00  0.00    +0.000 C 
BRANCH  29  30
ATOM     30  C   UNL     1       1.648   3.102  20.934  0.00  0.00    +0.000 C 
ATOM     31  O   UNL     1       1.511   2.065  20.297  0.00  0.00    +0.000 OA
BRANCH  30  32
ATOM     32  O   UNL     1       2.087   3.086  22.210  0.00  0.00    +0.000 OA
ATOM     33  H   UNL     1       3.057   3.103  22.308  0.00  0.00    +0.000 HD
ENDBRANCH  30  32
ENDBRANCH  29  30
ENDBRANCH   5  29
TORSDOF 8
ENDMDL
MODEL 7
REMARK VINA RESULT:      -8.1      3.794      7.272
REMARK  Name = 
REMARK  8 active torsions:
REMARK  status: ('A' for Active; 'I' for Inactive)
REMARK    1  A    between atoms: C_2  and  C_3
REMARK    2  A    between atoms: C_6  and  C_7
REMARK    3  A    between atoms: C_9  and  C_10
REMARK    4  A    between atoms: C_10  and  C_11
REMARK    5  A    between atoms: C_10  and  C_18
REMARK    6  A    between atoms: C_26  and  C_27
REMARK    7  A    between atoms: C_27  and  C_28
REMARK    8  A    between atoms: C_28  and  O_30
REMARK                            x       y       z     vdW  Elec       q    Type
REMARK                         _______ _______ _______ _____ _____    ______ ____
ROOT
ATOM      1  C   UNL     1       6.013   6.549  17.552  0.00  0.00    +0.000 A 
ATOM      2  N   UNL     1       4.792   6.750  18.155  0.00  0.00    +0.000 NA
ATOM      3  C   UNL     1       3.910   5.846  17.793  0.00  0.00    +0.000 A 
ATOM      4  S   UNL     1       4.540   4.641  16.739  0.00  0.00    +0.000 S 
ATOM      5  C   UNL     1       6.099   5.400  16.782  0.00  0.00    +0.000 A 
ENDROOT
BRANCH   1   9
ATOM      6  C   UNL     1       8.936   9.501  18.492  0.00  0.00    +0.000 A 
ATOM      7  C   UNL     1       9.005   8.229  19.067  0.00  0.00    +0.000 A 
ATOM      8  C   UNL     1       8.070   7.255  18.714  0.00  0.00    +0.000 A 
ATOM      9  C   UNL     1       7.048   7.544  17.791  0.00  0.00    +0.000 A 
ATOM     10  C   UNL     1       6.982   8.824  17.238  0.00  0.00    +0.000 A 
ATOM     11  C   UNL     1       7.927   9.793  17.573  0.00  0.00    +0.000 A 
BRANCH   6  13
ATOM     12  N   UNL     1      10.625  11.343  19.164  0.00  0.00    +0.000 NA
ATOM     13  C   UNL     1       9.874  10.517  18.859  0.00  0.00    +0.000 C 
ENDBRANCH   6  13
ENDBRANCH   1   9
BRANCH   3  14
ATOM     14  C   UNL     1       2.440   5.885  18.215  0.00  0.00    +0.000 C 
BRANCH  14  15
ATOM     15  C   UNL     1       2.109   4.818  19.265  0.00  0.00    +0.000 A 
ATOM     16  C   UNL     1       2.719   4.834  20.534  0.00  0.00    +0.000 A 
ATOM     17  C   UNL     1       2.385   3.888  21.504  0.00  0.00    +0.000 A 
ATOM     18  C   UNL     1       1.437   2.917  21.216  0.00  0.00    +0.000 A 
ATOM     19  F   UNL     1       1.095   2.027  22.156  0.00  0.00    +0.000 F 
ATOM     20  C   UNL     1       0.833   2.862  19.965  0.00  0.00    +0.000 A 
ATOM     21  C   UNL     1       1.167   3.807  18.990  0.00  0.00    +0.000 A 
ENDBRANCH  14  15
BRANCH  14  22
ATOM     22  C   UNL     1       1.973   7.296  18.634  0.00  0.00    +0.000 A 
ATOM     23  C   UNL     1       1.750   7.576  19.996  0.00  0.00    +0.000 A 
ATOM     24  C   UNL     1       1.212   8.805  20.393  0.00  0.00    +0.000 A 
ATOM     25  C   UNL     1       0.906   9.767  19.438  0.00  0.00    +0.000 A 
ATOM     26  F   UNL     1       0.337  10.919  19.814  0.00  0.00    +0.000 F 
ATOM     27  C   UNL     1       1.176   9.544  18.097  0.00  0.00    +0.000 A 
ATOM     28  C   UNL     1       1.727   8.324  17.702  0.00  0.00    +0.000 A 
ENDBRANCH  14  22
ENDBRANCH   3  14
BRANCH   5  29
ATOM     29  C   UNL     1       7.273   4.748  16.105  0.00  0.00    +0.000 C 
BRANCH  29  30
ATOM     30  C   UNL     1       7.183   4.721  14.596  0.00  0.00    +0.000 C 
ATOM     31  O   UNL     1       6.438   3.955  13.997  0.00  0.00    +0.000 OA
BRANCH  30  32
ATOM     32  O   UNL     1       7.929   5.629  13.936  0.00  0.00    +0.000 OA
ATOM     33  H   UNL     1       7.423   6.239  13.368  0.00  0.00    +0.000 HD
ENDBRANCH  30  32
ENDBRANCH  29  30
ENDBRANCH   5  29
TORSDOF 8
ENDMDL
MODEL 8
REMARK VINA RESULT:      -7.8      1.041      1.630
REMARK  Name = 
REMARK  8 active torsions:
REMARK  status: ('A' for Active; 'I' for Inactive)
REMARK    1  A    between atoms: C_2  and  C_3
REMARK    2  A    between atoms: C_6  and  C_7
REMARK    3  A    between atoms: C_9  and  C_10
REMARK    4  A    between atoms: C_10  and  C_11
REMARK    5  A    between atoms: C_10  and  C_18
REMARK    6  A    between atoms: C_26  and  C_27
REMARK    7  A    between atoms: C_27  and  C_28
REMARK    8  A    between atoms: C_28  and  O_30
REMARK                            x       y       z     vdW  Elec       q    Type
REMARK                         _______ _______ _______ _____ _____    ______ ____
ROOT
ATOM      1  C   UNL     1       2.967   6.283  19.242  0.00  0.00    +0.000 A 
ATOM      2  N   UNL     1       4.146   6.501  18.565  0.00  0.00    +0.000 NA
ATOM      3  C   UNL     1       4.839   5.395  18.416  0.00  0.00    +0.000 A 
ATOM      4  S   UNL     1       4.057   3.993  19.037  0.00  0.00    +0.000 S 
ATOM      5  C   UNL     1       2.702   4.954  19.534  0.00  0.00    +0.000 A 
ENDROOT
BRANCH   1   9
ATOM      6  C   UNL     1       0.377   9.535  20.167  0.00  0.00    +0.000 A 
ATOM      7  C   UNL     1       0.661   8.562  21.129  0.00  0.00    +0.000 A 
ATOM      8  C   UNL     1       1.549   7.527  20.828  0.00  0.00    +0.000 A 
ATOM      9  C   UNL     1       2.155   7.448  19.562  0.00  0.00    +0.000 A 
ATOM     10  C   UNL     1       1.849   8.419  18.606  0.00  0.00    +0.000 A 
ATOM     11  C   UNL     1       0.979   9.465  18.909  0.00  0.00    +0.000 A 
BRANCH   6  13
ATOM     12  N   UNL     1      -1.283  11.452  20.683  0.00  0.00    +0.000 NA
ATOM     13  C   UNL     1      -0.546  10.591  20.451  0.00  0.00    +0.000 C 
ENDBRANCH   6  13
ENDBRANCH   1   9
BRANCH   3  14
ATOM     14  C   UNL     1       6.241   5.354  17.804  0.00  0.00    +0.000 C 
BRANCH  14  15
ATOM     15  C   UNL     1       6.218   4.931  16.330  0.00  0.00    +0.000 A 
ATOM     16  C   UNL     1       7.363   5.059  15.520  0.00  0.00    +0.000 A 
ATOM     17  C   UNL     1       7.355   4.634  14.192  0.00  0.00    +0.000 A 
ATOM     18  C   UNL     1       6.202   4.075  13.659  0.00  0.00    +0.000 A 
ATOM     19  F   UNL     1       6.202   3.641  12.392  0.00  0.00    +0.000 F 
ATOM     20  C   UNL     1       5.049   3.956  14.426  0.00  0.00    +0.000 A 
ATOM     21  C   UNL     1       5.054   4.383  15.757  0.00  0.00    +0.000 A 
ENDBRANCH  14  15
BRANCH  14  22
ATOM     22  C   UNL     1       7.036   6.656  18.036  0.00  0.00    +0.000 A 
ATOM     23  C   UNL     1       6.745   7.794  17.258  0.00  0.00    +0.000 A 
ATOM     24  C   UNL     1       7.529   8.949  17.363  0.00  0.00    +0.000 A 
ATOM     25  C   UNL     1       8.596   8.982  18.251  0.00  0.00    +0.000 A 
ATOM     26  F   UNL     1       9.380  10.067  18.307  0.00  0.00    +0.000 F 
ATOM     27  C   UNL     1       8.865   7.903  19.077  0.00  0.00    +0.000 A 
ATOM     28  C   UNL     1       8.075   6.755  18.984  0.00  0.00    +0.000 A 
ENDBRANCH  14  22
ENDBRANCH   3  14
BRANCH   5  29
ATOM     29  C   UNL     1       1.478   4.292  20.103  0.00  0.00    +0.000 C 
BRANCH  29  30
ATOM     30  C   UNL     1       0.788   3.342  19.151  0.00  0.00    +0.000 C 
ATOM     31  O   UNL     1       0.991   3.360  17.943  0.00  0.00    +0.000 OA
BRANCH  30  32
ATOM     32  O   UNL     1      -0.031   2.425  19.708  0.00  0.00    +0.000 OA
ATOM     33  H   UNL     1      -0.842   2.791  20.107  0.00  0.00    +0.000 HD
ENDBRANCH  30  32
ENDBRANCH  29  30
ENDBRANCH   5  29
TORSDOF 8
ENDMDL
MODEL 9
REMARK VINA RESULT:      -7.8      3.275      5.973
REMARK  Name = 
REMARK  8 active torsions:
REMARK  status: ('A' for Active; 'I' for Inactive)
REMARK    1  A    between atoms: C_2  and  C_3
REMARK    2  A    between atoms: C_6  and  C_7
REMARK    3  A    between atoms: C_9  and  C_10
REMARK    4  A    between atoms: C_10  and  C_11
REMARK    5  A    between atoms: C_10  and  C_18
REMARK    6  A    between atoms: C_26  and  C_27
REMARK    7  A    between atoms: C_27  and  C_28
REMARK    8  A    between atoms: C_28  and  O_30
REMARK                            x       y       z     vdW  Elec       q    Type
REMARK                         _______ _______ _______ _____ _____    ______ ____
ROOT
ATOM      1  C   UNL     1       1.416   9.304  19.614  0.00  0.00    +0.000 A 
ATOM      2  N   UNL     1       1.794   8.470  18.586  0.00  0.00    +0.000 NA
ATOM      3  C   UNL     1       2.254   7.322  19.028  0.00  0.00    +0.000 A 
ATOM      4  S   UNL     1       2.188   7.157  20.740  0.00  0.00    +0.000 S 
ATOM      5  C   UNL     1       1.496   8.741  20.879  0.00  0.00    +0.000 A 
ENDROOT
BRANCH   1   9
ATOM      6  C   UNL     1       0.287  13.327  18.790  0.00  0.00    +0.000 A 
ATOM      7  C   UNL     1       1.592  12.894  18.541  0.00  0.00    +0.000 A 
ATOM      8  C   UNL     1       1.937  11.561  18.770  0.00  0.00    +0.000 A 
ATOM      9  C   UNL     1       0.985  10.648  19.260  0.00  0.00    +0.000 A 
ATOM     10  C   UNL     1      -0.310  11.101  19.520  0.00  0.00    +0.000 A 
ATOM     11  C   UNL     1      -0.663  12.426  19.273  0.00  0.00    +0.000 A 
BRANCH   6  13
ATOM     12  N   UNL     1      -0.360  15.805  18.416  0.00  0.00    +0.000 NA
ATOM     13  C   UNL     1      -0.077  14.695  18.581  0.00  0.00    +0.000 C 
ENDBRANCH   6  13
ENDBRANCH   1   9
BRANCH   3  14
ATOM     14  C   UNL     1       2.852   6.246  18.119  0.00  0.00    +0.000 C 
BRANCH  14  15
ATOM     15  C   UNL     1       4.385   6.252  18.143  0.00  0.00    +0.000 A 
ATOM     16  C   UNL     1       5.122   7.011  17.213  0.00  0.00    +0.000 A 
ATOM     17  C   UNL     1       6.516   7.051  17.262  0.00  0.00    +0.000 A 
ATOM     18  C   UNL     1       7.187   6.334  18.241  0.00  0.00    +0.000 A 
ATOM     19  F   UNL     1       8.523   6.394  18.307  0.00  0.00    +0.000 F 
ATOM     20  C   UNL     1       6.489   5.558  19.160  0.00  0.00    +0.000 A 
ATOM     21  C   UNL     1       5.092   5.515  19.112  0.00  0.00    +0.000 A 
ENDBRANCH  14  15
BRANCH  14  22
ATOM     22  C   UNL     1       2.259   4.844  18.377  0.00  0.00    +0.000 A 
ATOM     23  C   UNL     1       2.579   3.785  17.506  0.00  0.00    +0.000 A 
ATOM     24  C   UNL     1       1.963   2.536  17.644  0.00  0.00    +0.000 A 
ATOM     25  C   UNL     1       1.037   2.331  18.658  0.00  0.00    +0.000 A 
ATOM     26  F   UNL     1       0.406   1.153  18.752  0.00  0.00    +0.000 F 
ATOM     27  C   UNL     1       0.752   3.333  19.571  0.00  0.00    +0.000 A 
ATOM     28  C   UNL     1       1.376   4.575  19.443  0.00  0.00    +0.000 A 
ENDBRANCH  14  22
ENDBRANCH   3  14
BRANCH   5  29
ATOM     29  C   UNL     1       1.035   9.247  22.217  0.00  0.00    +0.000 C 
BRANCH  29  30
ATOM     30  C   UNL     1      -0.433   9.017  22.495  0.00  0.00    +0.000 C 
ATOM     31  O   UNL     1      -1.083   8.152  21.920  0.00  0.00    +0.000 OA
BRANCH  30  32
ATOM     32  O   UNL     1      -0.988   9.783  23.457  0.00  0.00    +0.000 OA
ATOM     33  H   UNL     1      -0.674   9.593  24.361  0.00  0.00    +0.000 HD
ENDBRANCH  30  32
ENDBRANCH  29  30
ENDBRANCH   5  29
TORSDOF 8
ENDMDL
