MODEL 1
REMARK VINA RESULT:      -7.3      0.000      0.000
REMARK  Name = 
REMARK  9 active torsions:
REMARK  status: ('A' for Active; 'I' for Inactive)
REMARK    1  A    between atoms: C_1  and  C_2
REMARK    2  A    between atoms: C_2  and  C_3
REMARK    3  A    between atoms: C_3  and  S_4
REMARK    4  A    between atoms: S_4  and  C_5
REMARK    5  A    between atoms: N_14  and  C1*_15
REMARK    6  A    between atoms: C4*_17  and  C5*_18
REMARK    7  A    between atoms: C5*_18  and  O5*_19
REMARK    8  A    between atoms: C3*_20  and  O3*_21
REMARK    9  A    between atoms: C2*_22  and  O2*_23
REMARK                            x       y       z     vdW  Elec       q    Type
REMARK                         _______ _______ _______ _____ _____    ______ ____
ROOT
ATOM      1  C   UNL     1       7.603   7.400  18.052  0.00  0.00    +0.000 A 
ATOM      2  N   UNL     1       8.305   6.834  19.066  0.00  0.00    +0.000 NA
ATOM      3  C   UNL     1       7.941   5.618  19.499  0.00  0.00    +0.000 A 
ATOM      4  N   UNL     1       8.669   5.089  20.546  0.00  0.00    +0.000 N 
ATOM      5  N   UNL     1       6.924   4.876  19.041  0.00  0.00    +0.000 NA
ATOM      6  C   UNL     1       6.264   5.470  18.035  0.00  0.00    +0.000 A 
ATOM      7  C   UNL     1       6.529   6.714  17.485  0.00  0.00    +0.000 A 
ATOM      8  N   UNL     1       5.642   6.984  16.465  0.00  0.00    +0.000 NA
ATOM      9  C   UNL     1       4.867   5.921  16.389  0.00  0.00    +0.000 A 
ATOM     10  N   UNL     1       5.209   4.975  17.320  0.00  0.00    +0.000 N 
ATOM     11  H   UNL     1       9.121   5.839  21.053  0.00  0.00    +0.000 HD
ATOM     12  H   UNL     1       8.095   4.459  21.087  0.00  0.00    +0.000 HD
ENDROOT
BRANCH  10  13
ATOM     13  C1* UNL     1       4.584   3.677  17.461  0.00  0.00    +0.000 C 
ATOM     14  O4* UNL     1       3.348   3.653  16.714  0.00  0.00    +0.000 OA
ATOM     15  C4* UNL     1       2.347   2.962  17.504  0.00  0.00    +0.000 C 
ATOM     16  C3* UNL     1       3.072   2.350  18.700  0.00  0.00    +0.000 C 
ATOM     17  C2* UNL     1       4.266   3.270  18.900  0.00  0.00    +0.000 C 
BRANCH  16  18
ATOM     18  O3* UNL     1       3.579   1.033  18.407  0.00  0.00    +0.000 OA
ATOM     19  H3* UNL     1       3.318   0.421  19.120  0.00  0.00    +0.000 HD
ENDBRANCH  16  18
BRANCH  17  20
ATOM     20  O2* UNL     1       5.354   2.587  19.525  0.00  0.00    +0.000 OA
ATOM     21  H2* UNL     1       5.829   2.117  18.807  0.00  0.00    +0.000 HD
ENDBRANCH  17  20
BRANCH  15  22
ATOM     22  C5* UNL     1       1.255   3.955  17.911  0.00  0.00    +0.000 C 
BRANCH  22  23
ATOM     23  O5* UNL     1       0.815   3.678  19.239  0.00  0.00    +0.000 OA
ATOM     24  H5* UNL     1       0.847   4.528  19.718  0.00  0.00    +0.000 HD
ENDBRANCH  22  23
ENDBRANCH  15  22
ENDBRANCH  10  13
BRANCH   1  25
ATOM     25  S   UNL     1       8.033   9.013  17.479  0.00  0.00    +0.000 S 
BRANCH  25  26
ATOM     26  C   UNL     1       9.044   9.564  18.890  0.00  0.00    +0.000 C 
BRANCH  26  28
ATOM     27  C   UNL     1      10.307  11.535  19.827  0.00  0.00    +0.000 C 
ATOM     28  C   UNL     1       9.560  10.977  18.624  0.00  0.00    +0.000 C 
ENDBRANCH  26  28
ENDBRANCH  25  26
ENDBRANCH   1  25
TORSDOF 8
ENDMDL
MODEL 2
REMARK VINA RESULT:      -7.1      2.930      4.583
REMARK  Name = 
REMARK  9 active torsions:
REMARK  status: ('A' for Active; 'I' for Inactive)
REMARK    1  A    between atoms: C_1  and  C_2
REMARK    2  A    between atoms: C_2  and  C_3
REMARK    3  A    between atoms: C_3  and  S_4
REMARK    4  A    between atoms: S_4  and  C_5
REMARK    5  A    between atoms: N_14  and  C1*_15
REMARK    6  A    between atoms: C4*_17  and  C5*_18
REMARK    7  A    between atoms: C5*_18  and  O5*_19
REMARK    8  A    between atoms: C3*_20  and  O3*_21
REMARK    9  A    between atoms: C2*_22  and  O2*_23
REMARK                            x       y       z     vdW  Elec       q    Type
REMARK                         _______ _______ _______ _____ _____    ______ ____
ROOT
ATOM      1  C   UNL     1       6.752   4.981  16.361  0.00  0.00    +0.000 A 
ATOM      2  N   UNL     1       7.692   5.322  17.277  0.00  0.00    +0.000 NA
ATOM      3  C   UNL     1       7.405   5.169  18.578  0.00  0.00    +0.000 A 
ATOM      4  N   UNL     1       8.382   5.549  19.477  0.00  0.00    +0.000 N 
ATOM      5  N   UNL     1       6.257   4.714  19.097  0.00  0.00    +0.000 NA
ATOM      6  C   UNL     1       5.362   4.382  18.156  0.00  0.00    +0.000 A 
ATOM      7  C   UNL     1       5.521   4.482  16.783  0.00  0.00    +0.000 A 
ATOM      8  N   UNL     1       4.385   4.040  16.137  0.00  0.00    +0.000 NA
ATOM      9  C   UNL     1       3.564   3.666  17.097  0.00  0.00    +0.000 A 
ATOM     10  N   UNL     1       4.114   3.852  18.338  0.00  0.00    +0.000 N 
ATOM     11  H   UNL     1       9.008   6.209  19.034  0.00  0.00    +0.000 HD
ATOM     12  H   UNL     1       7.961   5.838  20.349  0.00  0.00    +0.000 HD
ENDROOT
BRANCH  10  13
ATOM     13  C1* UNL     1       3.486   3.495  19.593  0.00  0.00    +0.000 C 
ATOM     14  O4* UNL     1       2.898   2.180  19.481  0.00  0.00    +0.000 OA
ATOM     15  C4* UNL     1       1.607   2.197  20.143  0.00  0.00    +0.000 C 
ATOM     16  C3* UNL     1       1.504   3.531  20.879  0.00  0.00    +0.000 C 
ATOM     17  C2* UNL     1       2.394   4.456  20.062  0.00  0.00    +0.000 C 
BRANCH  16  18
ATOM     18  O3* UNL     1       2.054   3.458  22.208  0.00  0.00    +0.000 OA
ATOM     19  H3* UNL     1       2.987   3.177  22.157  0.00  0.00    +0.000 HD
ENDBRANCH  16  18
BRANCH  17  20
ATOM     20  O2* UNL     1       2.913   5.521  20.859  0.00  0.00    +0.000 OA
ATOM     21  H2* UNL     1       3.870   5.577  20.651  0.00  0.00    +0.000 HD
ENDBRANCH  17  20
BRANCH  15  22
ATOM     22  C5* UNL     1       0.504   2.003  19.100  0.00  0.00    +0.000 C 
BRANCH  22  23
ATOM     23  O5* UNL     1       0.545   3.061  18.146  0.00  0.00    +0.000 OA
ATOM     24  H5* UNL     1      -0.347   3.461  18.145  0.00  0.00    +0.000 HD
ENDBRANCH  22  23
ENDBRANCH  15  22
ENDBRANCH  10  13
BRANCH   1  25
ATOM     25  S   UNL     1       7.083   5.199  14.641  0.00  0.00    +0.000 S 
BRANCH  25  26
ATOM     26  C   UNL     1       6.334   3.666  14.003  0.00  0.00    +0.000 C 
BRANCH  26  28
ATOM     27  C   UNL     1       5.017   3.286  11.887  0.00  0.00    +0.000 C 
ATOM     28  C   UNL     1       6.363   3.684  12.475  0.00  0.00    +0.000 C 
ENDBRANCH  26  28
ENDBRANCH  25  26
ENDBRANCH   1  25
TORSDOF 8
ENDMDL
MODEL 3
REMARK VINA RESULT:      -7.0      2.984      5.189
REMARK  Name = 
REMARK  9 active torsions:
REMARK  status: ('A' for Active; 'I' for Inactive)
REMARK    1  A    between atoms: C_1  and  C_2
REMARK    2  A    between atoms: C_2  and  C_3
REMARK    3  A    between atoms: C_3  and  S_4
REMARK    4  A    between atoms: S_4  and  C_5
REMARK    5  A    between atoms: N_14  and  C1*_15
REMARK    6  A    between atoms: C4*_17  and  C5*_18
REMARK    7  A    between atoms: C5*_18  and  O5*_19
REMARK    8  A    between atoms: C3*_20  and  O3*_21
REMARK    9  A    between atoms: C2*_22  and  O2*_23
REMARK                            x       y       z     vdW  Elec       q    Type
REMARK                         _______ _______ _______ _____ _____    ______ ____
ROOT
ATOM      1  C   UNL     1       6.655   5.012  15.468  0.00  0.00    +0.000 A 
ATOM      2  N   UNL     1       7.310   6.116  15.906  0.00  0.00    +0.000 NA
ATOM      3  C   UNL     1       6.926   6.672  17.064  0.00  0.00    +0.000 A 
ATOM      4  N   UNL     1       7.605   7.807  17.461  0.00  0.00    +0.000 N 
ATOM      5  N   UNL     1       5.933   6.258  17.861  0.00  0.00    +0.000 NA
ATOM      6  C   UNL     1       5.320   5.160  17.394  0.00  0.00    +0.000 A 
ATOM      7  C   UNL     1       5.610   4.480  16.222  0.00  0.00    +0.000 A 
ATOM      8  N   UNL     1       4.771   3.395  16.079  0.00  0.00    +0.000 NA
ATOM      9  C   UNL     1       4.002   3.409  17.148  0.00  0.00    +0.000 A 
ATOM     10  N   UNL     1       4.300   4.459  17.977  0.00  0.00    +0.000 N 
ATOM     11  H   UNL     1       8.033   8.243  16.655  0.00  0.00    +0.000 HD
ATOM     12  H   UNL     1       7.007   8.392  18.028  0.00  0.00    +0.000 HD
ENDROOT
BRANCH  10  13
ATOM     13  C1* UNL     1       3.670   4.724  19.252  0.00  0.00    +0.000 C 
ATOM     14  O4* UNL     1       3.364   3.473  19.908  0.00  0.00    +0.000 OA
ATOM     15  C4* UNL     1       2.053   3.583  20.518  0.00  0.00    +0.000 C 
ATOM     16  C3* UNL     1       1.635   5.048  20.409  0.00  0.00    +0.000 C 
ATOM     17  C2* UNL     1       2.378   5.537  19.175  0.00  0.00    +0.000 C 
BRANCH  16  18
ATOM     18  O3* UNL     1       2.094   5.825  21.532  0.00  0.00    +0.000 OA
ATOM     19  H3* UNL     1       1.373   6.407  21.838  0.00  0.00    +0.000 HD
ENDBRANCH  16  18
BRANCH  17  20
ATOM     20  O2* UNL     1       2.617   6.944  19.232  0.00  0.00    +0.000 OA
ATOM     21  H2* UNL     1       2.124   7.273  20.014  0.00  0.00    +0.000 HD
ENDBRANCH  17  20
BRANCH  15  22
ATOM     22  C5* UNL     1       1.087   2.631  19.809  0.00  0.00    +0.000 C 
BRANCH  22  23
ATOM     23  O5* UNL     1       1.820   1.639  19.093  0.00  0.00    +0.000 OA
ATOM     24  H5* UNL     1       1.162   0.987  18.783  0.00  0.00    +0.000 HD
ENDBRANCH  22  23
ENDBRANCH  15  22
ENDBRANCH  10  13
BRANCH   1  25
ATOM     25  S   UNL     1       7.111   4.273  13.931  0.00  0.00    +0.000 S 
BRANCH  25  26
ATOM     26  C   UNL     1       5.461   4.134  13.173  0.00  0.00    +0.000 C 
BRANCH  26  28
ATOM     27  C   UNL     1       4.215   3.112  11.234  0.00  0.00    +0.000 C 
ATOM     28  C   UNL     1       5.508   3.114  12.036  0.00  0.00    +0.000 C 
ENDBRANCH  26  28
ENDBRANCH  25  26
ENDBRANCH   1  25
TORSDOF 8
ENDMDL
MODEL 4
REMARK VINA RESULT:      -6.9      1.651      2.557
REMARK  Name = 
REMARK  9 active torsions:
REMARK  status: ('A' for Active; 'I' for Inactive)
REMARK    1  A    between atoms: C_1  and  C_2
REMARK    2  A    between atoms: C_2  and  C_3
REMARK    3  A    between atoms: C_3  and  S_4
REMARK    4  A    between atoms: S_4  and  C_5
REMARK    5  A    between atoms: N_14  and  C1*_15
REMARK    6  A    between atoms: C4*_17  and  C5*_18
REMARK    7  A    between atoms: C5*_18  and  O5*_19
REMARK    8  A    between atoms: C3*_20  and  O3*_21
REMARK    9  A    between atoms: C2*_22  and  O2*_23
REMARK                            x       y       z     vdW  Elec       q    Type
REMARK                         _______ _______ _______ _____ _____    ______ ____
ROOT
ATOM      1  C   UNL     1       7.280   6.483  17.560  0.00  0.00    +0.000 A 
ATOM      2  N   UNL     1       7.451   6.244  16.235  0.00  0.00    +0.000 NA
ATOM      3  C   UNL     1       6.593   5.420  15.616  0.00  0.00    +0.000 A 
ATOM      4  N   UNL     1       6.818   5.187  14.274  0.00  0.00    +0.000 N 
ATOM      5  N   UNL     1       5.559   4.776  16.172  0.00  0.00    +0.000 NA
ATOM      6  C   UNL     1       5.422   5.049  17.478  0.00  0.00    +0.000 A 
ATOM      7  C   UNL     1       6.227   5.878  18.243  0.00  0.00    +0.000 A 
ATOM      8  N   UNL     1       5.772   5.916  19.544  0.00  0.00    +0.000 NA
ATOM      9  C   UNL     1       4.708   5.140  19.562  0.00  0.00    +0.000 A 
ATOM     10  N   UNL     1       4.455   4.594  18.331  0.00  0.00    +0.000 N 
ATOM     11  H   UNL     1       7.786   5.381  14.056  0.00  0.00    +0.000 HD
ATOM     12  H   UNL     1       6.470   4.275  14.015  0.00  0.00    +0.000 HD
ENDROOT
BRANCH  10  13
ATOM     13  C1* UNL     1       3.332   3.739  18.009  0.00  0.00    +0.000 C 
ATOM     14  O4* UNL     1       2.098   4.446  18.264  0.00  0.00    +0.000 OA
ATOM     15  C4* UNL     1       1.164   3.528  18.886  0.00  0.00    +0.000 C 
ATOM     16  C3* UNL     1       1.789   2.138  18.809  0.00  0.00    +0.000 C 
ATOM     17  C2* UNL     1       3.283   2.423  18.785  0.00  0.00    +0.000 C 
BRANCH  16  18
ATOM     18  O3* UNL     1       1.454   1.463  17.581  0.00  0.00    +0.000 OA
ATOM     19  H3* UNL     1       2.251   1.389  17.025  0.00  0.00    +0.000 HD
ENDBRANCH  16  18
BRANCH  17  20
ATOM     20  O2* UNL     1       4.005   1.379  18.130  0.00  0.00    +0.000 OA
ATOM     21  H2* UNL     1       3.557   0.541  18.376  0.00  0.00    +0.000 HD
ENDBRANCH  17  20
BRANCH  15  22
ATOM     22  C5* UNL     1       0.893   3.984  20.323  0.00  0.00    +0.000 C 
BRANCH  22  23
ATOM     23  O5* UNL     1       0.765   2.849  21.177  0.00  0.00    +0.000 OA
ATOM     24  H5* UNL     1       0.262   2.183  20.669  0.00  0.00    +0.000 HD
ENDBRANCH  22  23
ENDBRANCH  15  22
ENDBRANCH  10  13
BRANCH   1  25
ATOM     25  S   UNL     1       8.410   7.536  18.415  0.00  0.00    +0.000 S 
BRANCH  25  26
ATOM     26  C   UNL     1       7.843   9.147  17.781  0.00  0.00    +0.000 C 
BRANCH  26  28
ATOM     27  C   UNL     1       9.290  10.236  19.536  0.00  0.00    +0.000 C 
ATOM     28  C   UNL     1       8.908  10.206  18.063  0.00  0.00    +0.000 C 
ENDBRANCH  26  28
ENDBRANCH  25  26
ENDBRANCH   1  25
TORSDOF 8
ENDMDL
MODEL 5
REMARK VINA RESULT:      -6.7      3.130      5.229
REMARK  Name = 
REMARK  9 active torsions:
REMARK  status: ('A' for Active; 'I' for Inactive)
REMARK    1  A    between atoms: C_1  and  C_2
REMARK    2  A    between atoms: C_2  and  C_3
REMARK    3  A    between atoms: C_3  and  S_4
REMARK    4  A    between atoms: S_4  and  C_5
REMARK    5  A    between atoms: N_14  and  C1*_15
REMARK    6  A    between atoms: C4*_17  and  C5*_18
REMARK    7  A    between atoms: C5*_18  and  O5*_19
REMARK    8  A    between atoms: C3*_20  and  O3*_21
REMARK    9  A    between atoms: C2*_22  and  O2*_23
REMARK                            x       y       z     vdW  Elec       q    Type
REMARK                         _______ _______ _______ _____ _____    ______ ____
ROOT
ATOM      1  C   UNL     1       6.602   5.147  15.721  0.00  0.00    +0.000 A 
ATOM      2  N   UNL     1       7.375   6.218  16.029  0.00  0.00    +0.000 NA
ATOM      3  C   UNL     1       7.029   6.979  17.078  0.00  0.00    +0.000 A 
ATOM      4  N   UNL     1       7.831   8.071  17.343  0.00  0.00    +0.000 N 
ATOM      5  N   UNL     1       5.968   6.806  17.877  0.00  0.00    +0.000 NA
ATOM      6  C   UNL     1       5.238   5.732  17.541  0.00  0.00    +0.000 A 
ATOM      7  C   UNL     1       5.477   4.859  16.492  0.00  0.00    +0.000 A 
ATOM      8  N   UNL     1       4.515   3.872  16.464  0.00  0.00    +0.000 NA
ATOM      9  C   UNL     1       3.721   4.132  17.482  0.00  0.00    +0.000 A 
ATOM     10  N   UNL     1       4.122   5.249  18.167  0.00  0.00    +0.000 N 
ATOM     11  H   UNL     1       8.333   8.330  16.504  0.00  0.00    +0.000 HD
ATOM     12  H   UNL     1       7.293   8.799  17.792  0.00  0.00    +0.000 HD
ENDROOT
BRANCH  10  13
ATOM     13  C1* UNL     1       3.491   5.770  19.361  0.00  0.00    +0.000 C 
ATOM     14  O4* UNL     1       3.238   4.687  20.284  0.00  0.00    +0.000 OA
ATOM     15  C4* UNL     1       1.928   4.885  20.874  0.00  0.00    +0.000 C 
ATOM     16  C3* UNL     1       1.453   6.272  20.447  0.00  0.00    +0.000 C 
ATOM     17  C2* UNL     1       2.168   6.499  19.124  0.00  0.00    +0.000 C 
BRANCH  16  18
ATOM     18  O3* UNL     1       1.890   7.296  21.361  0.00  0.00    +0.000 OA
ATOM     19  H3* UNL     1       2.715   7.011  21.796  0.00  0.00    +0.000 HD
ENDBRANCH  16  18
BRANCH  17  20
ATOM     20  O2* UNL     1       2.354   7.890  18.862  0.00  0.00    +0.000 OA
ATOM     21  H2* UNL     1       1.852   8.083  18.041  0.00  0.00    +0.000 HD
ENDBRANCH  17  20
BRANCH  15  22
ATOM     22  C5* UNL     1       0.994   3.764  20.411  0.00  0.00    +0.000 C 
BRANCH  22  23
ATOM     23  O5* UNL     1       0.850   2.792  21.445  0.00  0.00    +0.000 OA
ATOM     24  H5* UNL     1       1.080   1.932  21.042  0.00  0.00    +0.000 HD
ENDBRANCH  22  23
ENDBRANCH  15  22
ENDBRANCH  10  13
BRANCH   1  25
ATOM     25  S   UNL     1       7.009   4.143  14.327  0.00  0.00    +0.000 S 
BRANCH  25  26
ATOM     26  C   UNL     1       5.420   4.218  13.440  0.00  0.00    +0.000 C 
BRANCH  26  28
ATOM     27  C   UNL     1       6.846   3.130  11.668  0.00  0.00    +0.000 C 
ATOM     28  C   UNL     1       5.450   3.246  12.261  0.00  0.00    +0.000 C 
ENDBRANCH  26  28
ENDBRANCH  25  26
ENDBRANCH   1  25
TORSDOF 8
ENDMDL
MODEL 6
REMARK VINA RESULT:      -6.7      1.565      2.859
REMARK  Name = 
REMARK  9 active torsions:
REMARK  status: ('A' for Active; 'I' for Inactive)
REMARK    1  A    between atoms: C_1  and  C_2
REMARK    2  A    between atoms: C_2  and  C_3
REMARK    3  A    between atoms: C_3  and  S_4
REMARK    4  A    between atoms: S_4  and  C_5
REMARK    5  A    between atoms: N_14  and  C1*_15
REMARK    6  A    between atoms: C4*_17  and  C5*_18
REMARK    7  A    between atoms: C5*_18  and  O5*_19
REMARK    8  A    between atoms: C3*_20  and  O3*_21
REMARK    9  A    between atoms: C2*_22  and  O2*_23
REMARK                            x       y       z     vdW  Elec       q    Type
REMARK                         _______ _______ _______ _____ _____    ______ ____
ROOT
ATOM      1  C   UNL     1       6.899   6.658  17.723  0.00  0.00    +0.000 A 
ATOM      2  N   UNL     1       6.505   7.079  16.495  0.00  0.00    +0.000 NA
ATOM      3  C   UNL     1       5.400   6.541  15.957  0.00  0.00    +0.000 A 
ATOM      4  N   UNL     1       5.047   6.981  14.697  0.00  0.00    +0.000 N 
ATOM      5  N   UNL     1       4.620   5.598  16.503  0.00  0.00    +0.000 NA
ATOM      6  C   UNL     1       5.042   5.220  17.719  0.00  0.00    +0.000 A 
ATOM      7  C   UNL     1       6.157   5.689  18.396  0.00  0.00    +0.000 A 
ATOM      8  N   UNL     1       6.265   5.069  19.623  0.00  0.00    +0.000 NA
ATOM      9  C   UNL     1       5.232   4.256  19.693  0.00  0.00    +0.000 A 
ATOM     10  N   UNL     1       4.459   4.315  18.562  0.00  0.00    +0.000 N 
ATOM     11  H   UNL     1       5.862   7.364  14.234  0.00  0.00    +0.000 HD
ATOM     12  H   UNL     1       4.544   6.258  14.202  0.00  0.00    +0.000 HD
ENDROOT
BRANCH  10  13
ATOM     13  C1* UNL     1       3.230   3.582  18.349  0.00  0.00    +0.000 C 
ATOM     14  O4* UNL     1       2.111   4.375  18.803  0.00  0.00    +0.000 OA
ATOM     15  C4* UNL     1       1.181   3.503  19.496  0.00  0.00    +0.000 C 
ATOM     16  C3* UNL     1       1.659   2.072  19.264  0.00  0.00    +0.000 C 
ATOM     17  C2* UNL     1       3.158   2.228  19.055  0.00  0.00    +0.000 C 
BRANCH  16  18
ATOM     18  O3* UNL     1       1.107   1.508  18.058  0.00  0.00    +0.000 OA
ATOM     19  H3* UNL     1       0.852   2.228  17.453  0.00  0.00    +0.000 HD
ENDBRANCH  16  18
BRANCH  17  20
ATOM     20  O2* UNL     1       3.688   1.170  18.256  0.00  0.00    +0.000 OA
ATOM     21  H2* UNL     1       4.172   1.600  17.520  0.00  0.00    +0.000 HD
ENDBRANCH  17  20
BRANCH  15  22
ATOM     22  C5* UNL     1       1.141   3.887  20.977  0.00  0.00    +0.000 C 
BRANCH  22  23
ATOM     23  O5* UNL     1       2.113   4.896  21.245  0.00  0.00    +0.000 OA
ATOM     24  H5* UNL     1       2.979   4.446  21.243  0.00  0.00    +0.000 HD
ENDBRANCH  22  23
ENDBRANCH  15  22
ENDBRANCH  10  13
BRANCH   1  25
ATOM     25  S   UNL     1       8.366   7.320  18.448  0.00  0.00    +0.000 S 
BRANCH  25  26
ATOM     26  C   UNL     1       8.184   9.059  17.940  0.00  0.00    +0.000 C 
BRANCH  26  28
ATOM     27  C   UNL     1       9.113  11.374  18.307  0.00  0.00    +0.000 C 
ATOM     28  C   UNL     1       9.076   9.940  18.813  0.00  0.00    +0.000 C 
ENDBRANCH  26  28
ENDBRANCH  25  26
ENDBRANCH   1  25
TORSDOF 8
ENDMDL
MODEL 7
REMARK VINA RESULT:      -6.6      5.776      7.149
REMARK  Name = 
REMARK  9 active torsions:
REMARK  status: ('A' for Active; 'I' for Inactive)
REMARK    1  A    between atoms: C_1  and  C_2
REMARK    2  A    between atoms: C_2  and  C_3
REMARK    3  A    between atoms: C_3  and  S_4
REMARK    4  A    between atoms: S_4  and  C_5
REMARK    5  A    between atoms: N_14  and  C1*_15
REMARK    6  A    between atoms: C4*_17  and  C5*_18
REMARK    7  A    between atoms: C5*_18  and  O5*_19
REMARK    8  A    between atoms: C3*_20  and  O3*_21
REMARK    9  A    between atoms: C2*_22  and  O2*_23
REMARK                            x       y       z     vdW  Elec       q    Type
REMARK                         _______ _______ _______ _____ _____    ______ ____
ROOT
ATOM      1  C   UNL     1       3.476   6.610  18.166  0.00  0.00    +0.000 A 
ATOM      2  N   UNL     1       3.331   5.715  19.175  0.00  0.00    +0.000 NA
ATOM      3  C   UNL     1       2.487   6.007  20.175  0.00  0.00    +0.000 A 
ATOM      4  N   UNL     1       2.387   5.080  21.193  0.00  0.00    +0.000 N 
ATOM      5  N   UNL     1       1.753   7.121  20.305  0.00  0.00    +0.000 NA
ATOM      6  C   UNL     1       1.921   7.971  19.281  0.00  0.00    +0.000 A 
ATOM      7  C   UNL     1       2.751   7.801  18.185  0.00  0.00    +0.000 A 
ATOM      8  N   UNL     1       2.653   8.885  17.339  0.00  0.00    +0.000 NA
ATOM      9  C   UNL     1       1.772   9.686  17.902  0.00  0.00    +0.000 A 
ATOM     10  N   UNL     1       1.298   9.172  19.081  0.00  0.00    +0.000 N 
ATOM     11  H   UNL     1       3.220   4.505  21.207  0.00  0.00    +0.000 HD
ATOM     12  H   UNL     1       2.137   5.536  22.059  0.00  0.00    +0.000 HD
ENDROOT
BRANCH  10  13
ATOM     13  C1* UNL     1       0.285   9.785  19.914  0.00  0.00    +0.000 C 
ATOM     14  O4* UNL     1      -0.741  10.364  19.077  0.00  0.00    +0.000 OA
ATOM     15  C4* UNL     1      -1.118  11.648  19.636  0.00  0.00    +0.000 C 
ATOM     16  C3* UNL     1      -0.437  11.757  20.998  0.00  0.00    +0.000 C 
ATOM     17  C2* UNL     1       0.798  10.882  20.848  0.00  0.00    +0.000 C 
BRANCH  16  18
ATOM     18  O3* UNL     1      -1.244  11.194  22.051  0.00  0.00    +0.000 OA
ATOM     19  H3* UNL     1      -0.677  10.678  22.652  0.00  0.00    +0.000 HD
ENDBRANCH  16  18
BRANCH  17  20
ATOM     20  O2* UNL     1       1.230  10.365  22.107  0.00  0.00    +0.000 OA
ATOM     21  H2* UNL     1       1.241  11.127  22.725  0.00  0.00    +0.000 HD
ENDBRANCH  17  20
BRANCH  15  22
ATOM     22  C5* UNL     1      -0.700  12.758  18.668  0.00  0.00    +0.000 C 
BRANCH  22  23
ATOM     23  O5* UNL     1      -1.320  12.557  17.400  0.00  0.00    +0.000 OA
ATOM     24  H5* UNL     1      -1.087  11.649  17.125  0.00  0.00    +0.000 HD
ENDBRANCH  22  23
ENDBRANCH  15  22
ENDBRANCH  10  13
BRANCH   1  25
ATOM     25  S   UNL     1       4.603   6.273  16.849  0.00  0.00    +0.000 S 
BRANCH  25  26
ATOM     26  C   UNL     1       5.862   5.339  17.776  0.00  0.00    +0.000 C 
BRANCH  26  28
ATOM     27  C   UNL     1       7.928   5.876  19.118  0.00  0.00    +0.000 C 
ATOM     28  C   UNL     1       7.155   6.152  17.837  0.00  0.00    +0.000 C 
ENDBRANCH  26  28
ENDBRANCH  25  26
ENDBRANCH   1  25
TORSDOF 8
ENDMDL
MODEL 8
REMARK VINA RESULT:      -6.6      1.947      3.119
REMARK  Name = 
REMARK  9 active torsions:
REMARK  status: ('A' for Active; 'I' for Inactive)
REMARK    1  A    between atoms: C_1  and  C_2
REMARK    2  A    between atoms: C_2  and  C_3
REMARK    3  A    between atoms: C_3  and  S_4
REMARK    4  A    between atoms: S_4  and  C_5
REMARK    5  A    between atoms: N_14  and  C1*_15
REMARK    6  A    between atoms: C4*_17  and  C5*_18
REMARK    7  A    between atoms: C5*_18  and  O5*_19
REMARK    8  A    between atoms: C3*_20  and  O3*_21
REMARK    9  A    between atoms: C2*_22  and  O2*_23
REMARK                            x       y       z     vdW  Elec       q    Type
REMARK                         _______ _______ _______ _____ _____    ______ ____
ROOT
ATOM      1  C   UNL     1       6.809   5.667  17.636  0.00  0.00    +0.000 A 
ATOM      2  N   UNL     1       6.956   5.029  16.447  0.00  0.00    +0.000 NA
ATOM      3  C   UNL     1       5.998   4.178  16.053  0.00  0.00    +0.000 A 
ATOM      4  N   UNL     1       6.198   3.534  14.848  0.00  0.00    +0.000 N 
ATOM      5  N   UNL     1       4.881   3.864  16.722  0.00  0.00    +0.000 NA
ATOM      6  C   UNL     1       4.774   4.524  17.885  0.00  0.00    +0.000 A 
ATOM      7  C   UNL     1       5.678   5.430  18.415  0.00  0.00    +0.000 A 
ATOM      8  N   UNL     1       5.223   5.906  19.626  0.00  0.00    +0.000 NA
ATOM      9  C   UNL     1       4.062   5.313  19.818  0.00  0.00    +0.000 A 
ATOM     10  N   UNL     1       3.746   4.468  18.787  0.00  0.00    +0.000 N 
ATOM     11  H   UNL     1       7.186   3.530  14.630  0.00  0.00    +0.000 HD
ATOM     12  H   UNL     1       5.731   2.639  14.849  0.00  0.00    +0.000 HD
ENDROOT
BRANCH  10  13
ATOM     13  C1* UNL     1       2.520   3.708  18.674  0.00  0.00    +0.000 C 
ATOM     14  O4* UNL     1       1.563   4.191  19.643  0.00  0.00    +0.000 OA
ATOM     15  C4* UNL     1       0.884   3.049  20.226  0.00  0.00    +0.000 C 
ATOM     16  C3* UNL     1       1.301   1.824  19.416  0.00  0.00    +0.000 C 
ATOM     17  C2* UNL     1       2.675   2.201  18.884  0.00  0.00    +0.000 C 
BRANCH  16  18
ATOM     18  O3* UNL     1       0.438   1.609  18.282  0.00  0.00    +0.000 OA
ATOM     19  H3* UNL     1      -0.483   1.521  18.589  0.00  0.00    +0.000 HD
ENDBRANCH  16  18
BRANCH  17  20
ATOM     20  O2* UNL     1       2.974   1.511  17.671  0.00  0.00    +0.000 OA
ATOM     21  H2* UNL     1       2.154   1.037  17.416  0.00  0.00    +0.000 HD
ENDBRANCH  17  20
BRANCH  15  22
ATOM     22  C5* UNL     1       1.260   2.944  21.706  0.00  0.00    +0.000 C 
BRANCH  22  23
ATOM     23  O5* UNL     1       2.656   2.683  21.836  0.00  0.00    +0.000 OA
ATOM     24  H5* UNL     1       2.740   1.988  22.518  0.00  0.00    +0.000 HD
ENDBRANCH  22  23
ENDBRANCH  15  22
ENDBRANCH  10  13
BRANCH   1  25
ATOM     25  S   UNL     1       8.066   6.770  18.201  0.00  0.00    +0.000 S 
BRANCH  25  26
ATOM     26  C   UNL     1       7.310   8.352  17.707  0.00  0.00    +0.000 C 
BRANCH  26  28
ATOM     27  C   UNL     1       8.896   9.801  19.025  0.00  0.00    +0.000 C 
ATOM     28  C   UNL     1       8.389   9.431  17.639  0.00  0.00    +0.000 C 
ENDBRANCH  26  28
ENDBRANCH  25  26
ENDBRANCH   1  25
TORSDOF 8
ENDMDL
MODEL 9
REMARK VINA RESULT:      -6.5      5.257      6.883
REMARK  Name = 
REMARK  9 active torsions:
REMARK  status: ('A' for Active; 'I' for Inactive)
REMARK    1  A    between atoms: C_1  and  C_2
REMARK    2  A    between atoms: C_2  and  C_3
REMARK    3  A    between atoms: C_3  and  S_4
REMARK    4  A    between atoms: S_4  and  C_5
REMARK    5  A    between atoms: N_14  and  C1*_15
REMARK    6  A    between atoms: C4*_17  and  C5*_18
REMARK    7  A    between atoms: C5*_18  and  O5*_19
REMARK    8  A    between atoms: C3*_20  and  O3*_21
REMARK    9  A    between atoms: C2*_22  and  O2*_23
REMARK                            x       y       z     vdW  Elec       q    Type
REMARK                         _______ _______ _______ _____ _____    ______ ____
ROOT
ATOM      1  C   UNL     1       0.618  10.166  19.789  0.00  0.00    +0.000 A 
ATOM      2  N   UNL     1       0.084  10.094  21.034  0.00  0.00    +0.000 NA
ATOM      3  C   UNL     1       0.292   8.986  21.759  0.00  0.00    +0.000 A 
ATOM      4  N   UNL     1      -0.288   8.946  23.012  0.00  0.00    +0.000 N 
ATOM      5  N   UNL     1       0.979   7.899  21.383  0.00  0.00    +0.000 NA
ATOM      6  C   UNL     1       1.496   8.018  20.151  0.00  0.00    +0.000 A 
ATOM      7  C   UNL     1       1.366   9.099  19.294  0.00  0.00    +0.000 A 
ATOM      8  N   UNL     1       2.040   8.858  18.115  0.00  0.00    +0.000 NA
ATOM      9  C   UNL     1       2.579   7.665  18.262  0.00  0.00    +0.000 A 
ATOM     10  N   UNL     1       2.279   7.117  19.482  0.00  0.00    +0.000 N 
ATOM     11  H   UNL     1      -1.065   9.593  23.043  0.00  0.00    +0.000 HD
ATOM     12  H   UNL     1      -0.482   7.991  23.277  0.00  0.00    +0.000 HD
ENDROOT
BRANCH  10  13
ATOM     13  C1* UNL     1       2.759   5.841  19.967  0.00  0.00    +0.000 C 
ATOM     14  O4* UNL     1       4.126   5.646  19.541  0.00  0.00    +0.000 OA
ATOM     15  C4* UNL     1       4.284   4.266  19.123  0.00  0.00    +0.000 C 
ATOM     16  C3* UNL     1       3.003   3.534  19.517  0.00  0.00    +0.000 C 
ATOM     17  C2* UNL     1       1.949   4.630  19.502  0.00  0.00    +0.000 C 
BRANCH  16  18
ATOM     18  O3* UNL     1       3.072   3.012  20.859  0.00  0.00    +0.000 OA
ATOM     19  H3* UNL     1       2.195   3.087  21.279  0.00  0.00    +0.000 HD
ENDBRANCH  16  18
BRANCH  17  20
ATOM     20  O2* UNL     1       0.868   4.328  20.385  0.00  0.00    +0.000 OA
ATOM     21  H2* UNL     1       1.243   3.763  21.094  0.00  0.00    +0.000 HD
ENDBRANCH  17  20
BRANCH  15  22
ATOM     22  C5* UNL     1       4.556   4.226  17.617  0.00  0.00    +0.000 C 
BRANCH  22  23
ATOM     23  O5* UNL     1       5.886   3.773  17.375  0.00  0.00    +0.000 OA
ATOM     24  H5* UNL     1       6.006   2.976  17.928  0.00  0.00    +0.000 HD
ENDBRANCH  22  23
ENDBRANCH  15  22
ENDBRANCH  10  13
BRANCH   1  25
ATOM     25  S   UNL     1       0.336  11.596  18.794  0.00  0.00    +0.000 S 
BRANCH  25  26
ATOM     26  C   UNL     1      -1.395  11.285  18.319  0.00  0.00    +0.000 C 
BRANCH  26  28
ATOM     27  C   UNL     1      -2.650  10.058  16.510  0.00  0.00    +0.000 C 
ATOM     28  C   UNL     1      -1.468  10.019  17.467  0.00  0.00    +0.000 C 
ENDBRANCH  26  28
ENDBRANCH  25  26
ENDBRANCH   1  25
TORSDOF 8
ENDMDL
