MODEL 1
REMARK VINA RESULT:      -8.0      0.000      0.000
REMARK  Name = 
REMARK  11 active torsions:
REMARK  status: ('A' for Active; 'I' for Inactive)
REMARK    1  A    between atoms: C_1  and  C_2
REMARK    2  A    between atoms: C_4  and  C_5
REMARK    3  A    between atoms: C_7  and  C_8
REMARK    4  A    between atoms: N_10  and  C_11
REMARK    5  A    between atoms: C_11  and  C_12
REMARK    6  A    between atoms: C_12  and  O_14
REMARK    7  A    between atoms: O_14  and  C_15
REMARK    8  A    between atoms: C_15  and  C_16
REMARK    9  A    between atoms: C_15  and  C_17
REMARK   10  A    between atoms: N_19  and  C_20
REMARK   11  A    between atoms: N_19  and  C_21
REMARK                            x       y       z     vdW  Elec       q    Type
REMARK                         _______ _______ _______ _____ _____    ______ ____
ROOT
ATOM      1  C   UNL     1       7.705   7.498  17.902  0.00  0.00    +0.000 C 
ATOM      2  O   UNL     1       7.439   7.903  16.790  0.00  0.00    +0.000 OA
ENDROOT
BRANCH   1   3
ATOM      3  C   UNL     1       8.539   8.280  18.925  0.00  0.00    +0.000 C 
BRANCH   3   6
ATOM      4  C   UNL     1       9.318  10.615  19.268  0.00  0.00    +0.000 C 
ATOM      5  O   UNL     1       9.468  10.442  20.481  0.00  0.00    +0.000 OA
ATOM      6  N   UNL     1       8.856   9.614  18.440  0.00  0.00    +0.000 N 
ATOM      7  H   UNL     1       8.701   9.771  17.456  0.00  0.00    +0.000 HD
BRANCH   4  14
ATOM      8  C   UNL     1       8.292  15.529  18.518  0.00  0.00    +0.000 C 
ATOM      9  C   UNL     1       9.161  14.327  18.276  0.00  0.00    +0.000 A 
ATOM     10  C   UNL     1      10.298  14.421  17.467  0.00  0.00    +0.000 A 
ATOM     11  C   UNL     1      11.105  13.301  17.241  0.00  0.00    +0.000 A 
ATOM     12  C   UNL     1      12.326  13.403  16.372  0.00  0.00    +0.000 C 
ATOM     13  C   UNL     1      10.761  12.077  17.841  0.00  0.00    +0.000 A 
ATOM     14  C   UNL     1       9.623  11.957  18.660  0.00  0.00    +0.000 A 
ATOM     15  C   UNL     1       8.828  13.095  18.867  0.00  0.00    +0.000 A 
ENDBRANCH   4  14
ENDBRANCH   3   6
ENDBRANCH   1   3
BRANCH   1  16
ATOM     16  O   UNL     1       7.236   6.323  18.433  0.00  0.00    +0.000 OA
BRANCH  16  17
ATOM     17  C   UNL     1       6.438   5.484  17.550  0.00  0.00    +0.000 C 
ATOM     18  C   UNL     1       7.370   4.480  16.865  0.00  0.00    +0.000 C 
BRANCH  17  19
ATOM     19  C   UNL     1       5.361   4.735  18.377  0.00  0.00    +0.000 C 
ATOM     20  O   UNL     1       5.731   3.765  19.050  0.00  0.00    +0.000 OA
ATOM     21  N   UNL     1       4.013   5.159  18.308  0.00  0.00    +0.000 N 
ATOM     22  C   UNL     1       3.547   6.295  17.505  0.00  0.00    +0.000 C 
BRANCH  21  23
ATOM     23  C   UNL     1       2.993   4.514  19.103  0.00  0.00    +0.000 A 
ATOM     24  C   UNL     1       2.957   4.657  20.497  0.00  0.00    +0.000 A 
ATOM     25  C   UNL     1       1.989   4.021  21.274  0.00  0.00    +0.000 A 
ATOM     26  C   UNL     1       1.026   3.227  20.663  0.00  0.00    +0.000 A 
ATOM     27  C   UNL     1       1.029   3.078  19.282  0.00  0.00    +0.000 A 
ATOM     28  C   UNL     1       1.993   3.728  18.504  0.00  0.00    +0.000 A 
ENDBRANCH  21  23
ENDBRANCH  17  19
ENDBRANCH  16  17
ENDBRANCH   1  16
TORSDOF 7
ENDMDL
MODEL 2
REMARK VINA RESULT:      -8.0      0.239      1.675
REMARK  Name = 
REMARK  11 active torsions:
REMARK  status: ('A' for Active; 'I' for Inactive)
REMARK    1  A    between atoms: C_1  and  C_2
REMARK    2  A    between atoms: C_4  and  C_5
REMARK    3  A    between atoms: C_7  and  C_8
REMARK    4  A    between atoms: N_10  and  C_11
REMARK    5  A    between atoms: C_11  and  C_12
REMARK    6  A    between atoms: C_12  and  O_14
REMARK    7  A    between atoms: O_14  and  C_15
REMARK    8  A    between atoms: C_15  and  C_16
REMARK    9  A    between atoms: C_15  and  C_17
REMARK   10  A    between atoms: N_19  and  C_20
REMARK   11  A    between atoms: N_19  and  C_21
REMARK                            x       y       z     vdW  Elec       q    Type
REMARK                         _______ _______ _______ _____ _____    ______ ____
ROOT
ATOM      1  C   UNL     1       7.694   7.452  17.918  0.00  0.00    +0.000 C 
ATOM      2  O   UNL     1       7.632   7.724  16.737  0.00  0.00    +0.000 OA
ENDROOT
BRANCH   1   3
ATOM      3  C   UNL     1       8.563   8.208  18.930  0.00  0.00    +0.000 C 
BRANCH   3   6
ATOM      4  C   UNL     1       9.282  10.565  19.253  0.00  0.00    +0.000 C 
ATOM      5  O   UNL     1       9.249  10.462  20.482  0.00  0.00    +0.000 OA
ATOM      6  N   UNL     1       8.949   9.515  18.423  0.00  0.00    +0.000 N 
ATOM      7  H   UNL     1       8.943   9.615  17.420  0.00  0.00    +0.000 HD
BRANCH   4  14
ATOM      8  C   UNL     1      12.330  13.394  16.342  0.00  0.00    +0.000 C 
ATOM      9  C   UNL     1      11.121  13.266  17.225  0.00  0.00    +0.000 A 
ATOM     10  C   UNL     1      10.312  14.377  17.491  0.00  0.00    +0.000 A 
ATOM     11  C   UNL     1       9.189  14.257  18.315  0.00  0.00    +0.000 A 
ATOM     12  C   UNL     1       8.320  15.450  18.599  0.00  0.00    +0.000 C 
ATOM     13  C   UNL     1       8.879  13.005  18.873  0.00  0.00    +0.000 A 
ATOM     14  C   UNL     1       9.676  11.873  18.621  0.00  0.00    +0.000 A 
ATOM     15  C   UNL     1      10.800  12.021  17.794  0.00  0.00    +0.000 A 
ENDBRANCH   4  14
ENDBRANCH   3   6
ENDBRANCH   1   3
BRANCH   1  16
ATOM     16  O   UNL     1       6.940   6.484  18.531  0.00  0.00    +0.000 OA
BRANCH  16  17
ATOM     17  C   UNL     1       6.468   5.395  17.686  0.00  0.00    +0.000 C 
ATOM     18  C   UNL     1       7.639   4.443  17.425  0.00  0.00    +0.000 C 
BRANCH  17  19
ATOM     19  C   UNL     1       5.317   4.641  18.403  0.00  0.00    +0.000 C 
ATOM     20  O   UNL     1       5.612   3.622  19.039  0.00  0.00    +0.000 OA
ATOM     21  N   UNL     1       3.991   5.119  18.280  0.00  0.00    +0.000 N 
ATOM     22  C   UNL     1       3.614   6.315  17.519  0.00  0.00    +0.000 C 
BRANCH  21  23
ATOM     23  C   UNL     1       2.903   4.469  18.974  0.00  0.00    +0.000 A 
ATOM     24  C   UNL     1       2.633   4.742  20.322  0.00  0.00    +0.000 A 
ATOM     25  C   UNL     1       1.599   4.103  21.006  0.00  0.00    +0.000 A 
ATOM     26  C   UNL     1       0.804   3.175  20.344  0.00  0.00    +0.000 A 
ATOM     27  C   UNL     1       1.040   2.895  19.003  0.00  0.00    +0.000 A 
ATOM     28  C   UNL     1       2.069   3.547  18.317  0.00  0.00    +0.000 A 
ENDBRANCH  21  23
ENDBRANCH  17  19
ENDBRANCH  16  17
ENDBRANCH   1  16
TORSDOF 7
ENDMDL
MODEL 3
REMARK VINA RESULT:      -7.6      0.570      1.072
REMARK  Name = 
REMARK  11 active torsions:
REMARK  status: ('A' for Active; 'I' for Inactive)
REMARK    1  A    between atoms: C_1  and  C_2
REMARK    2  A    between atoms: C_4  and  C_5
REMARK    3  A    between atoms: C_7  and  C_8
REMARK    4  A    between atoms: N_10  and  C_11
REMARK    5  A    between atoms: C_11  and  C_12
REMARK    6  A    between atoms: C_12  and  O_14
REMARK    7  A    between atoms: O_14  and  C_15
REMARK    8  A    between atoms: C_15  and  C_16
REMARK    9  A    between atoms: C_15  and  C_17
REMARK   10  A    between atoms: N_19  and  C_20
REMARK   11  A    between atoms: N_19  and  C_21
REMARK                            x       y       z     vdW  Elec       q    Type
REMARK                         _______ _______ _______ _____ _____    ______ ____
ROOT
ATOM      1  C   UNL     1       7.490   7.834  17.944  0.00  0.00    +0.000 C 
ATOM      2  O   UNL     1       6.917   8.337  17.000  0.00  0.00    +0.000 OA
ENDROOT
BRANCH   1   3
ATOM      3  C   UNL     1       8.652   8.494  18.696  0.00  0.00    +0.000 C 
BRANCH   3   6
ATOM      4  C   UNL     1       9.372  10.834  19.130  0.00  0.00    +0.000 C 
ATOM      5  O   UNL     1       9.737  10.564  20.277  0.00  0.00    +0.000 OA
ATOM      6  N   UNL     1       8.820   9.883  18.297  0.00  0.00    +0.000 N 
ATOM      7  H   UNL     1       8.489  10.116  17.374  0.00  0.00    +0.000 HD
BRANCH   4  14
ATOM      8  C   UNL     1       7.472  15.427  18.100  0.00  0.00    +0.000 C 
ATOM      9  C   UNL     1       8.626  14.464  18.104  0.00  0.00    +0.000 A 
ATOM     10  C   UNL     1       9.879  14.853  17.618  0.00  0.00    +0.000 A 
ATOM     11  C   UNL     1      10.952  13.955  17.620  0.00  0.00    +0.000 A 
ATOM     12  C   UNL     1      12.298  14.373  17.099  0.00  0.00    +0.000 C 
ATOM     13  C   UNL     1      10.756  12.655  18.118  0.00  0.00    +0.000 A 
ATOM     14  C   UNL     1       9.506  12.240  18.612  0.00  0.00    +0.000 A 
ATOM     15  C   UNL     1       8.445  13.159  18.596  0.00  0.00    +0.000 A 
ENDBRANCH   4  14
ENDBRANCH   3   6
ENDBRANCH   1   3
BRANCH   1  16
ATOM     16  O   UNL     1       7.133   6.643  18.523  0.00  0.00    +0.000 OA
BRANCH  16  17
ATOM     17  C   UNL     1       6.579   5.629  17.635  0.00  0.00    +0.000 C 
ATOM     18  C   UNL     1       7.680   4.613  17.317  0.00  0.00    +0.000 C 
BRANCH  17  19
ATOM     19  C   UNL     1       5.386   4.923  18.332  0.00  0.00    +0.000 C 
ATOM     20  O   UNL     1       5.630   3.902  18.985  0.00  0.00    +0.000 OA
ATOM     21  N   UNL     1       4.081   5.445  18.171  0.00  0.00    +0.000 N 
ATOM     22  C   UNL     1       3.764   6.645  17.388  0.00  0.00    +0.000 C 
BRANCH  21  23
ATOM     23  C   UNL     1       2.954   4.841  18.845  0.00  0.00    +0.000 A 
ATOM     24  C   UNL     1       2.162   3.873  18.213  0.00  0.00    +0.000 A 
ATOM     25  C   UNL     1       1.060   3.300  18.848  0.00  0.00    +0.000 A 
ATOM     26  C   UNL     1       0.731   3.686  20.142  0.00  0.00    +0.000 A 
ATOM     27  C   UNL     1       1.507   4.634  20.797  0.00  0.00    +0.000 A 
ATOM     28  C   UNL     1       2.619   5.197  20.163  0.00  0.00    +0.000 A 
ENDBRANCH  21  23
ENDBRANCH  17  19
ENDBRANCH  16  17
ENDBRANCH   1  16
TORSDOF 7
ENDMDL
MODEL 4
REMARK VINA RESULT:      -7.5      6.017      7.898
REMARK  Name = 
REMARK  11 active torsions:
REMARK  status: ('A' for Active; 'I' for Inactive)
REMARK    1  A    between atoms: C_1  and  C_2
REMARK    2  A    between atoms: C_4  and  C_5
REMARK    3  A    between atoms: C_7  and  C_8
REMARK    4  A    between atoms: N_10  and  C_11
REMARK    5  A    between atoms: C_11  and  C_12
REMARK    6  A    between atoms: C_12  and  O_14
REMARK    7  A    between atoms: O_14  and  C_15
REMARK    8  A    between atoms: C_15  and  C_16
REMARK    9  A    between atoms: C_15  and  C_17
REMARK   10  A    between atoms: N_19  and  C_20
REMARK   11  A    between atoms: N_19  and  C_21
REMARK                            x       y       z     vdW  Elec       q    Type
REMARK                         _______ _______ _______ _____ _____    ______ ____
ROOT
ATOM      1  C   UNL     1       2.008   5.204  20.469  0.00  0.00    +0.000 C 
ATOM      2  O   UNL     1       2.301   4.892  21.605  0.00  0.00    +0.000 OA
ENDROOT
BRANCH   1   3
ATOM      3  C   UNL     1       2.510   6.472  19.769  0.00  0.00    +0.000 C 
BRANCH   3   6
ATOM      4  C   UNL     1       1.513   8.711  19.354  0.00  0.00    +0.000 C 
ATOM      5  O   UNL     1       1.941   8.745  18.197  0.00  0.00    +0.000 OA
ATOM      6  N   UNL     1       1.757   7.643  20.191  0.00  0.00    +0.000 N 
ATOM      7  H   UNL     1       1.436   7.636  21.147  0.00  0.00    +0.000 HD
BRANCH   4  14
ATOM      8  C   UNL     1      -1.111  11.012  23.039  0.00  0.00    +0.000 C 
ATOM      9  C   UNL     1      -0.554  11.007  21.644  0.00  0.00    +0.000 A 
ATOM     10  C   UNL     1      -0.762  12.096  20.790  0.00  0.00    +0.000 A 
ATOM     11  C   UNL     1      -0.244  12.089  19.491  0.00  0.00    +0.000 A 
ATOM     12  C   UNL     1      -0.467  13.259  18.574  0.00  0.00    +0.000 C 
ATOM     13  C   UNL     1       0.492  10.975  19.053  0.00  0.00    +0.000 A 
ATOM     14  C   UNL     1       0.715   9.868  19.892  0.00  0.00    +0.000 A 
ATOM     15  C   UNL     1       0.182   9.898  21.190  0.00  0.00    +0.000 A 
ENDBRANCH   4  14
ENDBRANCH   3   6
ENDBRANCH   1   3
BRANCH   1  16
ATOM     16  O   UNL     1       1.252   4.432  19.623  0.00  0.00    +0.000 OA
BRANCH  16  17
ATOM     17  C   UNL     1       1.901   3.250  19.069  0.00  0.00    +0.000 C 
ATOM     18  C   UNL     1       0.817   2.227  18.715  0.00  0.00    +0.000 C 
BRANCH  17  19
ATOM     19  C   UNL     1       2.700   3.643  17.799  0.00  0.00    +0.000 C 
ATOM     20  O   UNL     1       2.075   3.729  16.736  0.00  0.00    +0.000 OA
ATOM     21  N   UNL     1       4.096   3.852  17.895  0.00  0.00    +0.000 N 
ATOM     22  C   UNL     1       4.863   3.739  19.141  0.00  0.00    +0.000 C 
BRANCH  21  23
ATOM     23  C   UNL     1       4.863   4.266  16.742  0.00  0.00    +0.000 A 
ATOM     24  C   UNL     1       4.980   5.618  16.393  0.00  0.00    +0.000 A 
ATOM     25  C   UNL     1       5.700   6.025  15.270  0.00  0.00    +0.000 A 
ATOM     26  C   UNL     1       6.327   5.076  14.471  0.00  0.00    +0.000 A 
ATOM     27  C   UNL     1       6.239   3.729  14.801  0.00  0.00    +0.000 A 
ATOM     28  C   UNL     1       5.527   3.326  15.935  0.00  0.00    +0.000 A 
ENDBRANCH  21  23
ENDBRANCH  17  19
ENDBRANCH  16  17
ENDBRANCH   1  16
TORSDOF 7
ENDMDL
MODEL 5
REMARK VINA RESULT:      -7.5      1.379      2.213
REMARK  Name = 
REMARK  11 active torsions:
REMARK  status: ('A' for Active; 'I' for Inactive)
REMARK    1  A    between atoms: C_1  and  C_2
REMARK    2  A    between atoms: C_4  and  C_5
REMARK    3  A    between atoms: C_7  and  C_8
REMARK    4  A    between atoms: N_10  and  C_11
REMARK    5  A    between atoms: C_11  and  C_12
REMARK    6  A    between atoms: C_12  and  O_14
REMARK    7  A    between atoms: O_14  and  C_15
REMARK    8  A    between atoms: C_15  and  C_16
REMARK    9  A    between atoms: C_15  and  C_17
REMARK   10  A    between atoms: N_19  and  C_20
REMARK   11  A    between atoms: N_19  and  C_21
REMARK                            x       y       z     vdW  Elec       q    Type
REMARK                         _______ _______ _______ _____ _____    ______ ____
ROOT
ATOM      1  C   UNL     1       7.874   8.095  17.869  0.00  0.00    +0.000 C 
ATOM      2  O   UNL     1       7.091   8.541  17.055  0.00  0.00    +0.000 OA
ENDROOT
BRANCH   1   3
ATOM      3  C   UNL     1       8.880   8.947  18.652  0.00  0.00    +0.000 C 
BRANCH   3   6
ATOM      4  C   UNL     1       9.471  11.282  18.039  0.00  0.00    +0.000 C 
ATOM      5  O   UNL     1      10.604  10.956  17.676  0.00  0.00    +0.000 OA
ATOM      6  N   UNL     1       8.572  10.365  18.540  0.00  0.00    +0.000 N 
ATOM      7  H   UNL     1       7.660  10.642  18.869  0.00  0.00    +0.000 HD
BRANCH   4  14
ATOM      8  C   UNL     1      10.494  16.251  17.876  0.00  0.00    +0.000 C 
ATOM      9  C   UNL     1       9.500  15.124  17.879  0.00  0.00    +0.000 A 
ATOM     10  C   UNL     1       8.128  15.386  17.806  0.00  0.00    +0.000 A 
ATOM     11  C   UNL     1       7.203  14.336  17.810  0.00  0.00    +0.000 A 
ATOM     12  C   UNL     1       5.729  14.617  17.731  0.00  0.00    +0.000 C 
ATOM     13  C   UNL     1       7.670  13.012  17.886  0.00  0.00    +0.000 A 
ATOM     14  C   UNL     1       9.045  12.724  17.960  0.00  0.00    +0.000 A 
ATOM     15  C   UNL     1       9.952  13.795  17.958  0.00  0.00    +0.000 A 
ENDBRANCH   4  14
ENDBRANCH   3   6
ENDBRANCH   1   3
BRANCH   1  16
ATOM     16  O   UNL     1       7.919   6.781  18.262  0.00  0.00    +0.000 OA
BRANCH  16  17
ATOM     17  C   UNL     1       6.937   5.888  17.660  0.00  0.00    +0.000 C 
ATOM     18  C   UNL     1       7.682   4.717  17.014  0.00  0.00    +0.000 C 
BRANCH  17  19
ATOM     19  C   UNL     1       5.968   5.367  18.754  0.00  0.00    +0.000 C 
ATOM     20  O   UNL     1       6.401   5.292  19.911  0.00  0.00    +0.000 OA
ATOM     21  N   UNL     1       4.659   4.972  18.391  0.00  0.00    +0.000 N 
ATOM     22  C   UNL     1       4.128   5.036  17.025  0.00  0.00    +0.000 C 
BRANCH  21  23
ATOM     23  C   UNL     1       3.716   4.528  19.392  0.00  0.00    +0.000 A 
ATOM     24  C   UNL     1       3.704   3.201  19.843  0.00  0.00    +0.000 A 
ATOM     25  C   UNL     1       2.784   2.758  20.792  0.00  0.00    +0.000 A 
ATOM     26  C   UNL     1       1.852   3.646  21.318  0.00  0.00    +0.000 A 
ATOM     27  C   UNL     1       1.850   4.971  20.899  0.00  0.00    +0.000 A 
ATOM     28  C   UNL     1       2.783   5.415  19.956  0.00  0.00    +0.000 A 
ENDBRANCH  21  23
ENDBRANCH  17  19
ENDBRANCH  16  17
ENDBRANCH   1  16
TORSDOF 7
ENDMDL
MODEL 6
REMARK VINA RESULT:      -7.4      5.630      8.101
REMARK  Name = 
REMARK  11 active torsions:
REMARK  status: ('A' for Active; 'I' for Inactive)
REMARK    1  A    between atoms: C_1  and  C_2
REMARK    2  A    between atoms: C_4  and  C_5
REMARK    3  A    between atoms: C_7  and  C_8
REMARK    4  A    between atoms: N_10  and  C_11
REMARK    5  A    between atoms: C_11  and  C_12
REMARK    6  A    between atoms: C_12  and  O_14
REMARK    7  A    between atoms: O_14  and  C_15
REMARK    8  A    between atoms: C_15  and  C_16
REMARK    9  A    between atoms: C_15  and  C_17
REMARK   10  A    between atoms: N_19  and  C_20
REMARK   11  A    between atoms: N_19  and  C_21
REMARK                            x       y       z     vdW  Elec       q    Type
REMARK                         _______ _______ _______ _____ _____    ______ ____
ROOT
ATOM      1  C   UNL     1       1.645   3.586  21.260  0.00  0.00    +0.000 C 
ATOM      2  O   UNL     1       1.488   2.835  22.200  0.00  0.00    +0.000 OA
ENDROOT
BRANCH   1   3
ATOM      3  C   UNL     1       2.646   4.747  21.244  0.00  0.00    +0.000 C 
BRANCH   3   6
ATOM      4  C   UNL     1       2.050   6.961  20.285  0.00  0.00    +0.000 C 
ATOM      5  O   UNL     1       2.729   6.764  19.273  0.00  0.00    +0.000 OA
ATOM      6  N   UNL     1       1.967   6.032  21.300  0.00  0.00    +0.000 N 
ATOM      7  H   UNL     1       1.440   6.212  22.140  0.00  0.00    +0.000 HD
BRANCH   4  14
ATOM      8  C   UNL     1       0.307  11.375  18.483  0.00  0.00    +0.000 C 
ATOM      9  C   UNL     1       0.443  10.388  19.609  0.00  0.00    +0.000 A 
ATOM     10  C   UNL     1      -0.135  10.648  20.856  0.00  0.00    +0.000 A 
ATOM     11  C   UNL     1      -0.006   9.730  21.904  0.00  0.00    +0.000 A 
ATOM     12  C   UNL     1      -0.626  10.009  23.244  0.00  0.00    +0.000 C 
ATOM     13  C   UNL     1       0.710   8.540  21.687  0.00  0.00    +0.000 A 
ATOM     14  C   UNL     1       1.299   8.255  20.442  0.00  0.00    +0.000 A 
ATOM     15  C   UNL     1       1.158   9.195  19.409  0.00  0.00    +0.000 A 
ENDBRANCH   4  14
ENDBRANCH   3   6
ENDBRANCH   1   3
BRANCH   1  16
ATOM     16  O   UNL     1       1.010   3.457  20.050  0.00  0.00    +0.000 OA
BRANCH  16  17
ATOM     17  C   UNL     1       1.614   2.538  19.094  0.00  0.00    +0.000 C 
ATOM     18  C   UNL     1       0.493   1.876  18.288  0.00  0.00    +0.000 C 
BRANCH  17  19
ATOM     19  C   UNL     1       2.562   3.320  18.148  0.00  0.00    +0.000 C 
ATOM     20  O   UNL     1       2.045   3.968  17.230  0.00  0.00    +0.000 OA
ATOM     21  N   UNL     1       3.961   3.240  18.345  0.00  0.00    +0.000 N 
ATOM     22  C   UNL     1       4.599   2.466  19.416  0.00  0.00    +0.000 C 
BRANCH  21  23
ATOM     23  C   UNL     1       4.870   3.994  17.513  0.00  0.00    +0.000 A 
ATOM     24  C   UNL     1       5.043   3.684  16.157  0.00  0.00    +0.000 A 
ATOM     25  C   UNL     1       5.934   4.392  15.351  0.00  0.00    +0.000 A 
ATOM     26  C   UNL     1       6.672   5.438  15.892  0.00  0.00    +0.000 A 
ATOM     27  C   UNL     1       6.511   5.777  17.230  0.00  0.00    +0.000 A 
ATOM     28  C   UNL     1       5.607   5.073  18.032  0.00  0.00    +0.000 A 
ENDBRANCH  21  23
ENDBRANCH  17  19
ENDBRANCH  16  17
ENDBRANCH   1  16
TORSDOF 7
ENDMDL
MODEL 7
REMARK VINA RESULT:      -7.4      5.625     10.335
REMARK  Name = 
REMARK  11 active torsions:
REMARK  status: ('A' for Active; 'I' for Inactive)
REMARK    1  A    between atoms: C_1  and  C_2
REMARK    2  A    between atoms: C_4  and  C_5
REMARK    3  A    between atoms: C_7  and  C_8
REMARK    4  A    between atoms: N_10  and  C_11
REMARK    5  A    between atoms: C_11  and  C_12
REMARK    6  A    between atoms: C_12  and  O_14
REMARK    7  A    between atoms: O_14  and  C_15
REMARK    8  A    between atoms: C_15  and  C_16
REMARK    9  A    between atoms: C_15  and  C_17
REMARK   10  A    between atoms: N_19  and  C_20
REMARK   11  A    between atoms: N_19  and  C_21
REMARK                            x       y       z     vdW  Elec       q    Type
REMARK                         _______ _______ _______ _____ _____    ______ ____
ROOT
ATOM      1  C   UNL     1       0.970   9.486  21.185  0.00  0.00    +0.000 C 
ATOM      2  O   UNL     1       0.604   8.529  21.834  0.00  0.00    +0.000 OA
ENDROOT
BRANCH   1   3
ATOM      3  C   UNL     1       1.224   9.454  19.673  0.00  0.00    +0.000 C 
BRANCH   3   6
ATOM      4  C   UNL     1       2.412   8.021  18.026  0.00  0.00    +0.000 C 
ATOM      5  O   UNL     1       2.420   8.915  17.175  0.00  0.00    +0.000 OA
ATOM      6  N   UNL     1       1.837   8.199  19.267  0.00  0.00    +0.000 N 
ATOM      7  H   UNL     1       1.801   7.454  19.945  0.00  0.00    +0.000 HD
BRANCH   4  14
ATOM      8  C   UNL     1       6.173   5.133  16.214  0.00  0.00    +0.000 C 
ATOM      9  C   UNL     1       4.817   5.260  16.850  0.00  0.00    +0.000 A 
ATOM     10  C   UNL     1       4.073   4.121  17.174  0.00  0.00    +0.000 A 
ATOM     11  C   UNL     1       2.810   4.241  17.763  0.00  0.00    +0.000 A 
ATOM     12  C   UNL     1       2.011   3.017  18.112  0.00  0.00    +0.000 C 
ATOM     13  C   UNL     1       2.297   5.522  18.029  0.00  0.00    +0.000 A 
ATOM     14  C   UNL     1       3.025   6.683  17.712  0.00  0.00    +0.000 A 
ATOM     15  C   UNL     1       4.288   6.536  17.118  0.00  0.00    +0.000 A 
ENDBRANCH   4  14
ENDBRANCH   3   6
ENDBRANCH   1   3
BRANCH   1  16
ATOM     16  O   UNL     1       1.132  10.751  21.692  0.00  0.00    +0.000 OA
BRANCH  16  17
ATOM     17  C   UNL     1       0.230  11.776  21.182  0.00  0.00    +0.000 C 
ATOM     18  C   UNL     1      -0.661  12.251  22.333  0.00  0.00    +0.000 C 
BRANCH  17  19
ATOM     19  C   UNL     1       1.056  12.963  20.621  0.00  0.00    +0.000 C 
ATOM     20  O   UNL     1       1.933  13.442  21.349  0.00  0.00    +0.000 OA
ATOM     21  N   UNL     1       0.760  13.467  19.332  0.00  0.00    +0.000 N 
ATOM     22  C   UNL     1      -0.286  12.927  18.457  0.00  0.00    +0.000 C 
BRANCH  21  23
ATOM     23  C   UNL     1       1.541  14.540  18.760  0.00  0.00    +0.000 A 
ATOM     24  C   UNL     1       2.788  14.297  18.168  0.00  0.00    +0.000 A 
ATOM     25  C   UNL     1       3.559  15.328  17.633  0.00  0.00    +0.000 A 
ATOM     26  C   UNL     1       3.087  16.636  17.676  0.00  0.00    +0.000 A 
ATOM     27  C   UNL     1       1.848  16.904  18.245  0.00  0.00    +0.000 A 
ATOM     28  C   UNL     1       1.073  15.865  18.769  0.00  0.00    +0.000 A 
ENDBRANCH  21  23
ENDBRANCH  17  19
ENDBRANCH  16  17
ENDBRANCH   1  16
TORSDOF 7
ENDMDL
MODEL 8
REMARK VINA RESULT:      -7.3      4.988      7.826
REMARK  Name = 
REMARK  11 active torsions:
REMARK  status: ('A' for Active; 'I' for Inactive)
REMARK    1  A    between atoms: C_1  and  C_2
REMARK    2  A    between atoms: C_4  and  C_5
REMARK    3  A    between atoms: C_7  and  C_8
REMARK    4  A    between atoms: N_10  and  C_11
REMARK    5  A    between atoms: C_11  and  C_12
REMARK    6  A    between atoms: C_12  and  O_14
REMARK    7  A    between atoms: O_14  and  C_15
REMARK    8  A    between atoms: C_15  and  C_16
REMARK    9  A    between atoms: C_15  and  C_17
REMARK   10  A    between atoms: N_19  and  C_20
REMARK   11  A    between atoms: N_19  and  C_21
REMARK                            x       y       z     vdW  Elec       q    Type
REMARK                         _______ _______ _______ _____ _____    ______ ____
ROOT
ATOM      1  C   UNL     1       4.771   4.343  19.403  0.00  0.00    +0.000 C 
ATOM      2  O   UNL     1       4.345   3.908  20.452  0.00  0.00    +0.000 OA
ENDROOT
BRANCH   1   3
ATOM      3  C   UNL     1       3.898   4.998  18.325  0.00  0.00    +0.000 C 
BRANCH   3   6
ATOM      4  C   UNL     1       2.200   6.283  19.608  0.00  0.00    +0.000 C 
ATOM      5  O   UNL     1       1.611   5.256  19.958  0.00  0.00    +0.000 OA
ATOM      6  N   UNL     1       3.317   6.245  18.801  0.00  0.00    +0.000 N 
ATOM      7  H   UNL     1       3.773   7.087  18.488  0.00  0.00    +0.000 HD
BRANCH   4  14
ATOM      8  C   UNL     1       0.169   9.383  23.076  0.00  0.00    +0.000 C 
ATOM      9  C   UNL     1       0.712   9.149  21.695  0.00  0.00    +0.000 A 
ATOM     10  C   UNL     1       0.759  10.192  20.763  0.00  0.00    +0.000 A 
ATOM     11  C   UNL     1       1.263   9.973  19.476  0.00  0.00    +0.000 A 
ATOM     12  C   UNL     1       1.314  11.093  18.476  0.00  0.00    +0.000 C 
ATOM     13  C   UNL     1       1.725   8.692  19.131  0.00  0.00    +0.000 A 
ATOM     14  C   UNL     1       1.688   7.627  20.049  0.00  0.00    +0.000 A 
ATOM     15  C   UNL     1       1.174   7.872  21.332  0.00  0.00    +0.000 A 
ENDBRANCH   4  14
ENDBRANCH   3   6
ENDBRANCH   1   3
BRANCH   1  16
ATOM     16  O   UNL     1       6.099   4.384  19.062  0.00  0.00    +0.000 OA
BRANCH  16  17
ATOM     17  C   UNL     1       6.518   5.488  18.208  0.00  0.00    +0.000 C 
ATOM     18  C   UNL     1       7.721   6.173  18.862  0.00  0.00    +0.000 C 
BRANCH  17  19
ATOM     19  C   UNL     1       6.907   4.945  16.808  0.00  0.00    +0.000 C 
ATOM     20  O   UNL     1       7.816   4.108  16.754  0.00  0.00    +0.000 OA
ATOM     21  N   UNL     1       6.243   5.442  15.662  0.00  0.00    +0.000 N 
ATOM     22  C   UNL     1       5.175   6.447  15.699  0.00  0.00    +0.000 C 
BRANCH  21  23
ATOM     23  C   UNL     1       6.548   4.923  14.348  0.00  0.00    +0.000 A 
ATOM     24  C   UNL     1       7.614   5.432  13.593  0.00  0.00    +0.000 A 
ATOM     25  C   UNL     1       7.902   4.952  12.316  0.00  0.00    +0.000 A 
ATOM     26  C   UNL     1       7.122   3.940  11.767  0.00  0.00    +0.000 A 
ATOM     27  C   UNL     1       6.068   3.408  12.498  0.00  0.00    +0.000 A 
ATOM     28  C   UNL     1       5.790   3.882  13.784  0.00  0.00    +0.000 A 
ENDBRANCH  21  23
ENDBRANCH  17  19
ENDBRANCH  16  17
ENDBRANCH   1  16
TORSDOF 7
ENDMDL
MODEL 9
REMARK VINA RESULT:      -7.3      5.894     10.354
REMARK  Name = 
REMARK  11 active torsions:
REMARK  status: ('A' for Active; 'I' for Inactive)
REMARK    1  A    between atoms: C_1  and  C_2
REMARK    2  A    between atoms: C_4  and  C_5
REMARK    3  A    between atoms: C_7  and  C_8
REMARK    4  A    between atoms: N_10  and  C_11
REMARK    5  A    between atoms: C_11  and  C_12
REMARK    6  A    between atoms: C_12  and  O_14
REMARK    7  A    between atoms: O_14  and  C_15
REMARK    8  A    between atoms: C_15  and  C_16
REMARK    9  A    between atoms: C_15  and  C_17
REMARK   10  A    between atoms: N_19  and  C_20
REMARK   11  A    between atoms: N_19  and  C_21
REMARK                            x       y       z     vdW  Elec       q    Type
REMARK                         _______ _______ _______ _____ _____    ______ ____
ROOT
ATOM      1  C   UNL     1       0.640   9.369  21.251  0.00  0.00    +0.000 C 
ATOM      2  O   UNL     1       0.082   8.389  21.699  0.00  0.00    +0.000 OA
ENDROOT
BRANCH   1   3
ATOM      3  C   UNL     1       1.277   9.435  19.858  0.00  0.00    +0.000 C 
BRANCH   3   6
ATOM      4  C   UNL     1       2.348   7.917  18.207  0.00  0.00    +0.000 C 
ATOM      5  O   UNL     1       2.421   8.808  17.356  0.00  0.00    +0.000 OA
ATOM      6  N   UNL     1       1.792   8.137  19.449  0.00  0.00    +0.000 N 
ATOM      7  H   UNL     1       1.701   7.398  20.128  0.00  0.00    +0.000 HD
BRANCH   4  14
ATOM      8  C   UNL     1       1.854   2.865  18.151  0.00  0.00    +0.000 C 
ATOM      9  C   UNL     1       2.654   4.101  17.847  0.00  0.00    +0.000 A 
ATOM     10  C   UNL     1       3.917   4.003  17.252  0.00  0.00    +0.000 A 
ATOM     11  C   UNL     1       4.661   5.153  16.971  0.00  0.00    +0.000 A 
ATOM     12  C   UNL     1       6.016   5.048  16.331  0.00  0.00    +0.000 C 
ATOM     13  C   UNL     1       4.124   6.412  17.292  0.00  0.00    +0.000 A 
ATOM     14  C   UNL     1       2.857   6.537  17.891  0.00  0.00    +0.000 A 
ATOM     15  C   UNL     1       2.132   5.367  18.166  0.00  0.00    +0.000 A 
ENDBRANCH   4  14
ENDBRANCH   3   6
ENDBRANCH   1   3
BRANCH   1  16
ATOM     16  O   UNL     1       0.713  10.580  21.892  0.00  0.00    +0.000 OA
BRANCH  16  17
ATOM     17  C   UNL     1      -0.286  11.573  21.520  0.00  0.00    +0.000 C 
ATOM     18  C   UNL     1      -1.117  11.910  22.761  0.00  0.00    +0.000 C 
BRANCH  17  19
ATOM     19  C   UNL     1       0.421  12.848  20.989  0.00  0.00    +0.000 C 
ATOM     20  O   UNL     1       1.096  13.502  21.792  0.00  0.00    +0.000 OA
ATOM     21  N   UNL     1       0.244  13.228  19.638  0.00  0.00    +0.000 N 
ATOM     22  C   UNL     1      -0.565  12.479  18.670  0.00  0.00    +0.000 C 
BRANCH  21  23
ATOM     23  C   UNL     1       0.926  14.382  19.098  0.00  0.00    +0.000 A 
ATOM     24  C   UNL     1       2.224  14.283  18.577  0.00  0.00    +0.000 A 
ATOM     25  C   UNL     1       2.898  15.396  18.074  0.00  0.00    +0.000 A 
ATOM     26  C   UNL     1       2.277  16.640  18.079  0.00  0.00    +0.000 A 
ATOM     27  C   UNL     1       0.985  16.764  18.577  0.00  0.00    +0.000 A 
ATOM     28  C   UNL     1       0.307  15.644  19.068  0.00  0.00    +0.000 A 
ENDBRANCH  21  23
ENDBRANCH  17  19
ENDBRANCH  16  17
ENDBRANCH   1  16
TORSDOF 7
ENDMDL
