MODEL 1
REMARK VINA RESULT:      -7.1      0.000      0.000
REMARK  Name = 
REMARK  5 active torsions:
REMARK  status: ('A' for Active; 'I' for Inactive)
REMARK    1  A    between atoms: C_1  and  C_2
REMARK    2  A    between atoms: C_2  and  S_3
REMARK    3  A    between atoms: S_3  and  N_6
REMARK    4  A    between atoms: C_8  and  C_9
REMARK    5  A    between atoms: C_11  and  C_12
REMARK                            x       y       z     vdW  Elec       q    Type
REMARK                         _______ _______ _______ _____ _____    ______ ____
ROOT
ATOM      1  N   UNL     1       6.274   5.739  17.297  0.00  0.00    +0.000 NA
ATOM      2  C   UNL     1       4.814   5.971  17.471  0.00  0.00    +0.000 C 
ATOM      3  C   UNL     1       3.912   4.756  17.227  0.00  0.00    +0.000 C 
ATOM      4  C   UNL     1       4.340   3.876  16.055  0.00  0.00    +0.000 C 
ATOM      5  C   UNL     1       5.850   3.670  15.922  0.00  0.00    +0.000 C 
ATOM      6  O   UNL     1       6.096   3.302  14.545  0.00  0.00    +0.000 OA
ATOM      7  C   UNL     1       6.485   4.490  13.823  0.00  0.00    +0.000 C 
ATOM      8  C   UNL     1       6.460   5.651  14.802  0.00  0.00    +0.000 C 
ATOM      9  C   UNL     1       6.666   4.934  16.120  0.00  0.00    +0.000 C 
ENDROOT
BRANCH   3  10
ATOM     10  C   UNL     1       3.617   3.990  18.469  0.00  0.00    +0.000 A 
ATOM     11  N   UNL     1       2.688   4.156  19.383  0.00  0.00    +0.000 NA
ATOM     12  C   UNL     1       3.052   3.230  20.330  0.00  0.00    +0.000 A 
ATOM     13  C   UNL     1       2.296   3.029  21.578  0.00  0.00    +0.000 C 
ATOM     14  N   UNL     1       4.175   2.554  20.058  0.00  0.00    +0.000 NA
ATOM     15  O   UNL     1       4.553   3.054  18.817  0.00  0.00    +0.000 OA
ENDBRANCH   3  10
BRANCH   1  16
ATOM     16  S   UNL     1       7.220   5.524  18.702  0.00  0.00    +0.000 S 
ATOM     17  O   UNL     1       8.130   4.428  18.462  0.00  0.00    +0.000 OA
ATOM     18  O   UNL     1       6.321   5.532  19.832  0.00  0.00    +0.000 OA
BRANCH  16  20
ATOM     19  C   UNL     1       7.743   7.982  17.597  0.00  0.00    +0.000 C 
ATOM     20  C   UNL     1       8.176   7.038  18.702  0.00  0.00    +0.000 C 
ENDBRANCH  16  20
ENDBRANCH   1  16
TORSDOF 3
ENDMDL
MODEL 2
REMARK VINA RESULT:      -7.0      2.582      5.442
REMARK  Name = 
REMARK  5 active torsions:
REMARK  status: ('A' for Active; 'I' for Inactive)
REMARK    1  A    between atoms: C_1  and  C_2
REMARK    2  A    between atoms: C_2  and  S_3
REMARK    3  A    between atoms: S_3  and  N_6
REMARK    4  A    between atoms: C_8  and  C_9
REMARK    5  A    between atoms: C_11  and  C_12
REMARK                            x       y       z     vdW  Elec       q    Type
REMARK                         _______ _______ _______ _____ _____    ______ ____
ROOT
ATOM      1  N   UNL     1       3.216   5.675  19.426  0.00  0.00    +0.000 NA
ATOM      2  C   UNL     1       4.676   5.456  19.608  0.00  0.00    +0.000 C 
ATOM      3  C   UNL     1       5.228   4.138  19.053  0.00  0.00    +0.000 C 
ATOM      4  C   UNL     1       4.314   2.933  19.261  0.00  0.00    +0.000 C 
ATOM      5  C   UNL     1       2.824   3.212  19.060  0.00  0.00    +0.000 C 
ATOM      6  O   UNL     1       2.110   2.183  19.784  0.00  0.00    +0.000 OA
ATOM      7  C   UNL     1       1.741   2.712  21.075  0.00  0.00    +0.000 C 
ATOM      8  C   UNL     1       2.270   4.134  21.157  0.00  0.00    +0.000 C 
ATOM      9  C   UNL     1       2.347   4.508  19.691  0.00  0.00    +0.000 C 
ENDROOT
BRANCH   3  10
ATOM     10  C   UNL     1       5.743   4.261  17.662  0.00  0.00    +0.000 A 
ATOM     11  N   UNL     1       5.184   3.975  16.508  0.00  0.00    +0.000 NA
ATOM     12  C   UNL     1       6.224   4.167  15.632  0.00  0.00    +0.000 A 
ATOM     13  C   UNL     1       6.088   3.968  14.179  0.00  0.00    +0.000 C 
ATOM     14  N   UNL     1       7.388   4.504  16.201  0.00  0.00    +0.000 NA
ATOM     15  O   UNL     1       7.071   4.572  17.553  0.00  0.00    +0.000 OA
ENDBRANCH   3  10
BRANCH   1  16
ATOM     16  S   UNL     1       2.718   6.709  18.161  0.00  0.00    +0.000 S 
ATOM     17  O   UNL     1       1.609   6.078  17.482  0.00  0.00    +0.000 OA
ATOM     18  O   UNL     1       3.904   7.126  17.452  0.00  0.00    +0.000 OA
BRANCH  16  20
ATOM     19  C   UNL     1       1.534   9.185  18.185  0.00  0.00    +0.000 C 
ATOM     20  C   UNL     1       2.070   8.095  19.092  0.00  0.00    +0.000 C 
ENDBRANCH  16  20
ENDBRANCH   1  16
TORSDOF 3
ENDMDL
MODEL 3
REMARK VINA RESULT:      -6.9      0.910      1.080
REMARK  Name = 
REMARK  5 active torsions:
REMARK  status: ('A' for Active; 'I' for Inactive)
REMARK    1  A    between atoms: C_1  and  C_2
REMARK    2  A    between atoms: C_2  and  S_3
REMARK    3  A    between atoms: S_3  and  N_6
REMARK    4  A    between atoms: C_8  and  C_9
REMARK    5  A    between atoms: C_11  and  C_12
REMARK                            x       y       z     vdW  Elec       q    Type
REMARK                         _______ _______ _______ _____ _____    ______ ____
ROOT
ATOM      1  N   UNL     1       6.392   5.805  17.297  0.00  0.00    +0.000 NA
ATOM      2  C   UNL     1       5.007   6.332  17.434  0.00  0.00    +0.000 C 
ATOM      3  C   UNL     1       3.886   5.288  17.365  0.00  0.00    +0.000 C 
ATOM      4  C   UNL     1       4.112   4.186  16.332  0.00  0.00    +0.000 C 
ATOM      5  C   UNL     1       5.552   3.681  16.234  0.00  0.00    +0.000 C 
ATOM      6  O   UNL     1       5.691   3.082  14.924  0.00  0.00    +0.000 OA
ATOM      7  C   UNL     1       6.277   4.060  14.040  0.00  0.00    +0.000 C 
ATOM      8  C   UNL     1       6.495   5.332  14.841  0.00  0.00    +0.000 C 
ATOM      9  C   UNL     1       6.597   4.782  16.250  0.00  0.00    +0.000 C 
ENDROOT
BRANCH   3  10
ATOM     10  C   UNL     1       3.484   4.775  18.703  0.00  0.00    +0.000 A 
ATOM     11  N   UNL     1       3.402   3.549  19.168  0.00  0.00    +0.000 NA
ATOM     12  C   UNL     1       2.830   3.749  20.400  0.00  0.00    +0.000 A 
ATOM     13  C   UNL     1       2.532   2.644  21.327  0.00  0.00    +0.000 C 
ATOM     14  N   UNL     1       2.519   5.021  20.680  0.00  0.00    +0.000 NA
ATOM     15  O   UNL     1       2.957   5.709  19.554  0.00  0.00    +0.000 OA
ENDBRANCH   3  10
BRANCH   1  16
ATOM     16  S   UNL     1       7.316   5.616  18.721  0.00  0.00    +0.000 S 
ATOM     17  O   UNL     1       8.259   4.543  18.500  0.00  0.00    +0.000 OA
ATOM     18  O   UNL     1       6.396   5.601  19.834  0.00  0.00    +0.000 OA
BRANCH  16  20
ATOM     19  C   UNL     1       7.841   8.060  17.587  0.00  0.00    +0.000 C 
ATOM     20  C   UNL     1       8.233   7.154  18.738  0.00  0.00    +0.000 C 
ENDBRANCH  16  20
ENDBRANCH   1  16
TORSDOF 3
ENDMDL
MODEL 4
REMARK VINA RESULT:      -6.7      2.659      5.362
REMARK  Name = 
REMARK  5 active torsions:
REMARK  status: ('A' for Active; 'I' for Inactive)
REMARK    1  A    between atoms: C_1  and  C_2
REMARK    2  A    between atoms: C_2  and  S_3
REMARK    3  A    between atoms: S_3  and  N_6
REMARK    4  A    between atoms: C_8  and  C_9
REMARK    5  A    between atoms: C_11  and  C_12
REMARK                            x       y       z     vdW  Elec       q    Type
REMARK                         _______ _______ _______ _____ _____    ______ ____
ROOT
ATOM      1  N   UNL     1       2.725   5.414  19.255  0.00  0.00    +0.000 NA
ATOM      2  C   UNL     1       4.039   4.917  19.745  0.00  0.00    +0.000 C 
ATOM      3  C   UNL     1       4.653   3.760  18.949  0.00  0.00    +0.000 C 
ATOM      4  C   UNL     1       3.647   2.714  18.476  0.00  0.00    +0.000 C 
ATOM      5  C   UNL     1       2.314   3.279  17.982  0.00  0.00    +0.000 C 
ATOM      6  O   UNL     1       1.347   2.208  18.088  0.00  0.00    +0.000 OA
ATOM      7  C   UNL     1       0.628   2.370  19.328  0.00  0.00    +0.000 C 
ATOM      8  C   UNL     1       1.192   3.593  20.030  0.00  0.00    +0.000 C 
ATOM      9  C   UNL     1       1.746   4.379  18.860  0.00  0.00    +0.000 C 
ENDROOT
BRANCH   3  10
ATOM     10  C   UNL     1       5.583   4.217  17.880  0.00  0.00    +0.000 A 
ATOM     11  N   UNL     1       5.422   4.307  16.579  0.00  0.00    +0.000 NA
ATOM     12  C   UNL     1       6.686   4.644  16.159  0.00  0.00    +0.000 A 
ATOM     13  C   UNL     1       7.021   4.864  14.742  0.00  0.00    +0.000 C 
ATOM     14  N   UNL     1       7.606   4.712  17.130  0.00  0.00    +0.000 NA
ATOM     15  O   UNL     1       6.874   4.432  18.278  0.00  0.00    +0.000 OA
ENDBRANCH   3  10
BRANCH   1  16
ATOM     16  S   UNL     1       2.711   6.851  18.332  0.00  0.00    +0.000 S 
ATOM     17  O   UNL     1       1.657   6.740  17.350  0.00  0.00    +0.000 OA
ATOM     18  O   UNL     1       4.076   7.133  17.953  0.00  0.00    +0.000 OA
BRANCH  16  20
ATOM     19  C   UNL     1       1.512   7.371  20.746  0.00  0.00    +0.000 C 
ATOM     20  C   UNL     1       2.186   8.041  19.564  0.00  0.00    +0.000 C 
ENDBRANCH  16  20
ENDBRANCH   1  16
TORSDOF 3
ENDMDL
MODEL 5
REMARK VINA RESULT:      -6.5      2.650      5.531
REMARK  Name = 
REMARK  5 active torsions:
REMARK  status: ('A' for Active; 'I' for Inactive)
REMARK    1  A    between atoms: C_1  and  C_2
REMARK    2  A    between atoms: C_2  and  S_3
REMARK    3  A    between atoms: S_3  and  N_6
REMARK    4  A    between atoms: C_8  and  C_9
REMARK    5  A    between atoms: C_11  and  C_12
REMARK                            x       y       z     vdW  Elec       q    Type
REMARK                         _______ _______ _______ _____ _____    ______ ____
ROOT
ATOM      1  N   UNL     1       3.219   5.687  19.515  0.00  0.00    +0.000 NA
ATOM      2  C   UNL     1       4.670   5.365  19.565  0.00  0.00    +0.000 C 
ATOM      3  C   UNL     1       5.075   4.013  18.965  0.00  0.00    +0.000 C 
ATOM      4  C   UNL     1       4.101   2.875  19.257  0.00  0.00    +0.000 C 
ATOM      5  C   UNL     1       2.622   3.259  19.192  0.00  0.00    +0.000 C 
ATOM      6  O   UNL     1       1.906   2.280  19.980  0.00  0.00    +0.000 OA
ATOM      7  C   UNL     1       1.694   2.828  21.298  0.00  0.00    +0.000 C 
ATOM      8  C   UNL     1       2.328   4.209  21.329  0.00  0.00    +0.000 C 
ATOM      9  C   UNL     1       2.297   4.583  19.861  0.00  0.00    +0.000 C 
ENDROOT
BRANCH   3  10
ATOM     10  C   UNL     1       5.469   4.106  17.532  0.00  0.00    +0.000 A 
ATOM     11  N   UNL     1       6.609   4.440  16.971  0.00  0.00    +0.000 NA
ATOM     12  C   UNL     1       6.271   4.478  15.641  0.00  0.00    +0.000 A 
ATOM     13  C   UNL     1       7.241   4.812  14.584  0.00  0.00    +0.000 C 
ATOM     14  N   UNL     1       4.982   4.235  15.377  0.00  0.00    +0.000 NA
ATOM     15  O   UNL     1       4.444   3.983  16.633  0.00  0.00    +0.000 OA
ENDBRANCH   3  10
BRANCH   1  16
ATOM     16  S   UNL     1       2.682   6.758  18.299  0.00  0.00    +0.000 S 
ATOM     17  O   UNL     1       1.593   6.121  17.593  0.00  0.00    +0.000 OA
ATOM     18  O   UNL     1       3.851   7.248  17.608  0.00  0.00    +0.000 OA
BRANCH  16  20
ATOM     19  C   UNL     1       1.500   9.232  18.438  0.00  0.00    +0.000 C 
ATOM     20  C   UNL     1       1.989   8.079  19.291  0.00  0.00    +0.000 C 
ENDBRANCH  16  20
ENDBRANCH   1  16
TORSDOF 3
ENDMDL
MODEL 6
REMARK VINA RESULT:      -6.4      2.749      4.442
REMARK  Name = 
REMARK  5 active torsions:
REMARK  status: ('A' for Active; 'I' for Inactive)
REMARK    1  A    between atoms: C_1  and  C_2
REMARK    2  A    between atoms: C_2  and  S_3
REMARK    3  A    between atoms: S_3  and  N_6
REMARK    4  A    between atoms: C_8  and  C_9
REMARK    5  A    between atoms: C_11  and  C_12
REMARK                            x       y       z     vdW  Elec       q    Type
REMARK                         _______ _______ _______ _____ _____    ______ ____
ROOT
ATOM      1  N   UNL     1       4.625   4.124  17.787  0.00  0.00    +0.000 NA
ATOM      2  C   UNL     1       5.014   5.320  18.581  0.00  0.00    +0.000 C 
ATOM      3  C   UNL     1       4.878   6.670  17.865  0.00  0.00    +0.000 C 
ATOM      4  C   UNL     1       5.287   6.648  16.394  0.00  0.00    +0.000 C 
ATOM      5  C   UNL     1       4.861   5.397  15.625  0.00  0.00    +0.000 C 
ATOM      6  O   UNL     1       5.743   5.295  14.482  0.00  0.00    +0.000 OA
ATOM      7  C   UNL     1       6.808   4.379  14.813  0.00  0.00    +0.000 C 
ATOM      8  C   UNL     1       6.580   3.906  16.239  0.00  0.00    +0.000 C 
ATOM      9  C   UNL     1       5.085   4.100  16.382  0.00  0.00    +0.000 C 
ENDROOT
BRANCH   3  10
ATOM     10  C   UNL     1       3.565   7.328  18.108  0.00  0.00    +0.000 A 
ATOM     11  N   UNL     1       2.952   8.293  17.461  0.00  0.00    +0.000 NA
ATOM     12  C   UNL     1       1.872   8.538  18.272  0.00  0.00    +0.000 A 
ATOM     13  C   UNL     1       0.860   9.562  17.961  0.00  0.00    +0.000 C 
ATOM     14  N   UNL     1       1.830   7.809  19.395  0.00  0.00    +0.000 NA
ATOM     15  O   UNL     1       2.954   6.999  19.287  0.00  0.00    +0.000 OA
ENDBRANCH   3  10
BRANCH   1  16
ATOM     16  S   UNL     1       3.092   3.434  18.087  0.00  0.00    +0.000 S 
ATOM     17  O   UNL     1       3.172   2.023  17.786  0.00  0.00    +0.000 OA
ATOM     18  O   UNL     1       2.106   4.288  17.467  0.00  0.00    +0.000 OA
BRANCH  16  20
ATOM     19  C   UNL     1       1.561   3.856  20.326  0.00  0.00    +0.000 C 
ATOM     20  C   UNL     1       2.984   3.607  19.866  0.00  0.00    +0.000 C 
ENDBRANCH  16  20
ENDBRANCH   1  16
TORSDOF 3
ENDMDL
MODEL 7
REMARK VINA RESULT:      -6.4      2.440      3.603
REMARK  Name = 
REMARK  5 active torsions:
REMARK  status: ('A' for Active; 'I' for Inactive)
REMARK    1  A    between atoms: C_1  and  C_2
REMARK    2  A    between atoms: C_2  and  S_3
REMARK    3  A    between atoms: S_3  and  N_6
REMARK    4  A    between atoms: C_8  and  C_9
REMARK    5  A    between atoms: C_11  and  C_12
REMARK                            x       y       z     vdW  Elec       q    Type
REMARK                         _______ _______ _______ _____ _____    ______ ____
ROOT
ATOM      1  N   UNL     1       3.963   5.981  17.459  0.00  0.00    +0.000 NA
ATOM      2  C   UNL     1       3.983   4.520  17.178  0.00  0.00    +0.000 C 
ATOM      3  C   UNL     1       4.846   3.671  18.118  0.00  0.00    +0.000 C 
ATOM      4  C   UNL     1       6.168   4.319  18.520  0.00  0.00    +0.000 C 
ATOM      5  C   UNL     1       6.091   5.821  18.799  0.00  0.00    +0.000 C 
ATOM      6  O   UNL     1       7.432   6.341  18.634  0.00  0.00    +0.000 OA
ATOM      7  C   UNL     1       7.545   6.885  17.303  0.00  0.00    +0.000 C 
ATOM      8  C   UNL     1       6.211   6.675  16.606  0.00  0.00    +0.000 C 
ATOM      9  C   UNL     1       5.266   6.596  17.787  0.00  0.00    +0.000 C 
ENDROOT
BRANCH   3  10
ATOM     10  C   UNL     1       4.082   3.117  19.269  0.00  0.00    +0.000 A 
ATOM     11  N   UNL     1       2.838   3.307  19.649  0.00  0.00    +0.000 NA
ATOM     12  C   UNL     1       2.804   2.643  20.851  0.00  0.00    +0.000 A 
ATOM     13  C   UNL     1       1.590   2.566  21.682  0.00  0.00    +0.000 C 
ATOM     14  N   UNL     1       3.969   2.108  21.236  0.00  0.00    +0.000 NA
ATOM     15  O   UNL     1       4.823   2.418  20.184  0.00  0.00    +0.000 OA
ENDBRANCH   3  10
BRANCH   1  16
ATOM     16  S   UNL     1       2.606   6.615  18.281  0.00  0.00    +0.000 S 
ATOM     17  O   UNL     1       2.930   6.683  19.688  0.00  0.00    +0.000 OA
ATOM     18  O   UNL     1       1.443   5.906  17.803  0.00  0.00    +0.000 OA
BRANCH  16  20
ATOM     19  C   UNL     1       1.458   9.108  18.259  0.00  0.00    +0.000 C 
ATOM     20  C   UNL     1       2.577   8.289  17.646  0.00  0.00    +0.000 C 
ENDBRANCH  16  20
ENDBRANCH   1  16
TORSDOF 3
ENDMDL
MODEL 8
REMARK VINA RESULT:      -6.4      2.359      5.272
REMARK  Name = 
REMARK  5 active torsions:
REMARK  status: ('A' for Active; 'I' for Inactive)
REMARK    1  A    between atoms: C_1  and  C_2
REMARK    2  A    between atoms: C_2  and  S_3
REMARK    3  A    between atoms: S_3  and  N_6
REMARK    4  A    between atoms: C_8  and  C_9
REMARK    5  A    between atoms: C_11  and  C_12
REMARK                            x       y       z     vdW  Elec       q    Type
REMARK                         _______ _______ _______ _____ _____    ______ ____
ROOT
ATOM      1  N   UNL     1       3.248   5.532  19.624  0.00  0.00    +0.000 NA
ATOM      2  C   UNL     1       4.689   5.182  19.743  0.00  0.00    +0.000 C 
ATOM      3  C   UNL     1       5.118   3.876  19.064  0.00  0.00    +0.000 C 
ATOM      4  C   UNL     1       4.113   2.735  19.199  0.00  0.00    +0.000 C 
ATOM      5  C   UNL     1       2.646   3.149  19.067  0.00  0.00    +0.000 C 
ATOM      6  O   UNL     1       1.867   2.122  19.724  0.00  0.00    +0.000 OA
ATOM      7  C   UNL     1       1.573   2.567  21.065  0.00  0.00    +0.000 C 
ATOM      8  C   UNL     1       2.219   3.929  21.249  0.00  0.00    +0.000 C 
ATOM      9  C   UNL     1       2.293   4.420  19.818  0.00  0.00    +0.000 C 
ENDROOT
BRANCH   3  10
ATOM     10  C   UNL     1       5.608   4.076  17.673  0.00  0.00    +0.000 A 
ATOM     11  N   UNL     1       5.083   3.736  16.517  0.00  0.00    +0.000 NA
ATOM     12  C   UNL     1       6.089   4.063  15.641  0.00  0.00    +0.000 A 
ATOM     13  C   UNL     1       5.972   3.864  14.186  0.00  0.00    +0.000 C 
ATOM     14  N   UNL     1       7.206   4.533  16.211  0.00  0.00    +0.000 NA
ATOM     15  O   UNL     1       6.888   4.548  17.564  0.00  0.00    +0.000 OA
ENDBRANCH   3  10
BRANCH   1  16
ATOM     16  S   UNL     1       2.807   6.706  18.465  0.00  0.00    +0.000 S 
ATOM     17  O   UNL     1       2.252   7.840  19.169  0.00  0.00    +0.000 OA
ATOM     18  O   UNL     1       2.075   6.028  17.421  0.00  0.00    +0.000 OA
BRANCH  16  20
ATOM     19  C   UNL     1       4.454   7.194  16.323  0.00  0.00    +0.000 C 
ATOM     20  C   UNL     1       4.415   7.186  17.839  0.00  0.00    +0.000 C 
ENDBRANCH  16  20
ENDBRANCH   1  16
TORSDOF 3
ENDMDL
MODEL 9
REMARK VINA RESULT:      -6.4      1.110      1.274
REMARK  Name = 
REMARK  5 active torsions:
REMARK  status: ('A' for Active; 'I' for Inactive)
REMARK    1  A    between atoms: C_1  and  C_2
REMARK    2  A    between atoms: C_2  and  S_3
REMARK    3  A    between atoms: S_3  and  N_6
REMARK    4  A    between atoms: C_8  and  C_9
REMARK    5  A    between atoms: C_11  and  C_12
REMARK                            x       y       z     vdW  Elec       q    Type
REMARK                         _______ _______ _______ _____ _____    ______ ____
ROOT
ATOM      1  N   UNL     1       6.138   5.737  17.611  0.00  0.00    +0.000 NA
ATOM      2  C   UNL     1       4.745   5.779  18.133  0.00  0.00    +0.000 C 
ATOM      3  C   UNL     1       3.938   4.483  17.984  0.00  0.00    +0.000 C 
ATOM      4  C   UNL     1       4.165   3.745  16.668  0.00  0.00    +0.000 C 
ATOM      5  C   UNL     1       5.614   3.731  16.178  0.00  0.00    +0.000 C 
ATOM      6  O   UNL     1       5.565   3.491  14.752  0.00  0.00    +0.000 OA
ATOM      7  C   UNL     1       5.651   4.764  14.077  0.00  0.00    +0.000 C 
ATOM      8  C   UNL     1       5.740   5.844  15.142  0.00  0.00    +0.000 C 
ATOM      9  C   UNL     1       6.322   5.068  16.306  0.00  0.00    +0.000 C 
ENDROOT
BRANCH   3  10
ATOM     10  C   UNL     1       4.022   3.604  19.183  0.00  0.00    +0.000 A 
ATOM     11  N   UNL     1       4.951   2.757  19.566  0.00  0.00    +0.000 NA
ATOM     12  C   UNL     1       4.361   2.162  20.654  0.00  0.00    +0.000 A 
ATOM     13  C   UNL     1       5.029   1.117  21.448  0.00  0.00    +0.000 C 
ATOM     14  N   UNL     1       3.112   2.569  20.915  0.00  0.00    +0.000 NA
ATOM     15  O   UNL     1       2.884   3.533  19.939  0.00  0.00    +0.000 OA
ENDBRANCH   3  10
BRANCH   1  16
ATOM     16  S   UNL     1       7.405   5.541  18.740  0.00  0.00    +0.000 S 
ATOM     17  O   UNL     1       8.285   4.506  18.246  0.00  0.00    +0.000 OA
ATOM     18  O   UNL     1       6.807   5.466  20.051  0.00  0.00    +0.000 OA
BRANCH  16  20
ATOM     19  C   UNL     1       7.570   8.019  17.571  0.00  0.00    +0.000 C 
ATOM     20  C   UNL     1       8.256   7.108  18.569  0.00  0.00    +0.000 C 
ENDBRANCH  16  20
ENDBRANCH   1  16
TORSDOF 3
ENDMDL
