MODEL 1
REMARK VINA RESULT:      -8.8      0.000      0.000
REMARK  Name = 
REMARK  5 active torsions:
REMARK  status: ('A' for Active; 'I' for Inactive)
REMARK    1  A    between atoms: C_1  and  N_2
REMARK    2  A    between atoms: N_2  and  C_19
REMARK    3  A    between atoms: C_3  and  C_5
REMARK    4  A    between atoms: C_5  and  N_6
REMARK    5  A    between atoms: C_7  and  C_9
REMARK                            x       y       z     vdW  Elec       q    Type
REMARK                         _______ _______ _______ _____ _____    ______ ____
ROOT
ATOM      1  N   UNL     1       5.729   4.045  18.936  0.00  0.00    +0.000 N 
ATOM      2  C   UNL     1       4.442   3.991  19.402  0.00  0.00    +0.000 C 
ATOM      3  O   UNL     1       4.057   2.961  19.949  0.00  0.00    +0.000 OA
ATOM      4  H   UNL     1       6.153   3.124  18.872  0.00  0.00    +0.000 HD
ENDROOT
BRANCH   2   5
ATOM      5  C   UNL     1       3.604   5.167  19.316  0.00  0.00    +0.000 A 
ATOM      6  C   UNL     1       3.283   6.015  18.272  0.00  0.00    +0.000 A 
ATOM      7  C   UNL     1       2.545   7.106  18.786  0.00  0.00    +0.000 A 
ATOM      8  C   UNL     1       2.080   8.305  18.222  0.00  0.00    +0.000 A 
ATOM      9  C   UNL     1       1.362   9.185  19.030  0.00  0.00    +0.000 A 
ATOM     10 CL   UNL     1       0.816  10.678  18.367  0.00  0.00    +0.000 Cl
ATOM     11  C   UNL     1       1.086   8.876  20.362  0.00  0.00    +0.000 A 
ATOM     12  C   UNL     1       1.538   7.683  20.937  0.00  0.00    +0.000 A 
ATOM     13  C   UNL     1       2.279   6.826  20.122  0.00  0.00    +0.000 A 
ATOM     14  N   UNL     1       2.870   5.609  20.398  0.00  0.00    +0.000 N 
ATOM     15  H   UNL     1       2.837   5.128  21.286  0.00  0.00    +0.000 HD
ENDBRANCH   2   5
BRANCH   1  16
ATOM     16  C   UNL     1       6.430   5.152  18.298  0.00  0.00    +0.000 C 
BRANCH  16  19
ATOM     17  C   UNL     1       5.051   6.077  15.896  0.00  0.00    +0.000 C 
ATOM     18  N   UNL     1       6.192   5.165  15.785  0.00  0.00    +0.000 N 
ATOM     19  C   UNL     1       6.937   4.741  16.903  0.00  0.00    +0.000 C 
ATOM     20  O   UNL     1       7.991   4.101  16.834  0.00  0.00    +0.000 OA
BRANCH  18  21
ATOM     21  C   UNL     1       6.620   4.824  14.442  0.00  0.00    +0.000 A 
ATOM     22  C   UNL     1       7.662   5.509  13.797  0.00  0.00    +0.000 A 
ATOM     23  C   UNL     1       8.003   5.240  12.467  0.00  0.00    +0.000 A 
ATOM     24  C   UNL     1       7.320   4.264  11.755  0.00  0.00    +0.000 A 
ATOM     25  C   UNL     1       6.323   3.530  12.386  0.00  0.00    +0.000 A 
ATOM     26  C   UNL     1       5.988   3.797  13.720  0.00  0.00    +0.000 A 
ENDBRANCH  18  21
ENDBRANCH  16  19
ENDBRANCH   1  16
TORSDOF 4
ENDMDL
MODEL 2
REMARK VINA RESULT:      -8.5      2.925      7.242
REMARK  Name = 
REMARK  5 active torsions:
REMARK  status: ('A' for Active; 'I' for Inactive)
REMARK    1  A    between atoms: C_1  and  N_2
REMARK    2  A    between atoms: N_2  and  C_19
REMARK    3  A    between atoms: C_3  and  C_5
REMARK    4  A    between atoms: C_5  and  N_6
REMARK    5  A    between atoms: C_7  and  C_9
REMARK                            x       y       z     vdW  Elec       q    Type
REMARK                         _______ _______ _______ _____ _____    ______ ____
ROOT
ATOM      1  N   UNL     1       7.260   5.181  18.764  0.00  0.00    +0.000 N 
ATOM      2  C   UNL     1       7.903   4.540  17.736  0.00  0.00    +0.000 C 
ATOM      3  O   UNL     1       8.981   3.999  17.963  0.00  0.00    +0.000 OA
ATOM      4  H   UNL     1       7.875   5.351  19.554  0.00  0.00    +0.000 HD
ENDROOT
BRANCH   2   5
ATOM      5  C   UNL     1       7.260   4.447  16.444  0.00  0.00    +0.000 A 
ATOM      6  C   UNL     1       6.017   3.990  16.045  0.00  0.00    +0.000 A 
ATOM      7  C   UNL     1       5.972   3.978  14.631  0.00  0.00    +0.000 A 
ATOM      8  C   UNL     1       5.034   3.501  13.702  0.00  0.00    +0.000 A 
ATOM      9  C   UNL     1       5.306   3.654  12.344  0.00  0.00    +0.000 A 
ATOM     10 CL   UNL     1       4.186   3.041  11.189  0.00  0.00    +0.000 Cl
ATOM     11  C   UNL     1       6.470   4.289  11.912  0.00  0.00    +0.000 A 
ATOM     12  C   UNL     1       7.412   4.775  12.824  0.00  0.00    +0.000 A 
ATOM     13  C   UNL     1       7.137   4.589  14.180  0.00  0.00    +0.000 A 
ATOM     14  N   UNL     1       7.867   4.930  15.302  0.00  0.00    +0.000 N 
ATOM     15  H   UNL     1       8.758   5.406  15.300  0.00  0.00    +0.000 HD
ENDBRANCH   2   5
BRANCH   1  16
ATOM     16  C   UNL     1       5.968   5.853  18.762  0.00  0.00    +0.000 C 
BRANCH  16  19
ATOM     17  C   UNL     1       3.177   6.539  18.251  0.00  0.00    +0.000 C 
ATOM     18  N   UNL     1       3.514   5.285  18.930  0.00  0.00    +0.000 N 
ATOM     19  C   UNL     1       4.844   4.871  19.141  0.00  0.00    +0.000 C 
ATOM     20  O   UNL     1       5.166   3.758  19.568  0.00  0.00    +0.000 OA
BRANCH  18  21
ATOM     21  C   UNL     1       2.408   4.405  19.253  0.00  0.00    +0.000 A 
ATOM     22  C   UNL     1       1.931   4.261  20.565  0.00  0.00    +0.000 A 
ATOM     23  C   UNL     1       0.930   3.337  20.884  0.00  0.00    +0.000 A 
ATOM     24  C   UNL     1       0.366   2.549  19.890  0.00  0.00    +0.000 A 
ATOM     25  C   UNL     1       0.776   2.713  18.573  0.00  0.00    +0.000 A 
ATOM     26  C   UNL     1       1.775   3.643  18.256  0.00  0.00    +0.000 A 
ENDBRANCH  18  21
ENDBRANCH  16  19
ENDBRANCH   1  16
TORSDOF 4
ENDMDL
MODEL 3
REMARK VINA RESULT:      -8.2      3.495      8.195
REMARK  Name = 
REMARK  5 active torsions:
REMARK  status: ('A' for Active; 'I' for Inactive)
REMARK    1  A    between atoms: C_1  and  N_2
REMARK    2  A    between atoms: N_2  and  C_19
REMARK    3  A    between atoms: C_3  and  C_5
REMARK    4  A    between atoms: C_5  and  N_6
REMARK    5  A    between atoms: C_7  and  C_9
REMARK                            x       y       z     vdW  Elec       q    Type
REMARK                         _______ _______ _______ _____ _____    ______ ____
ROOT
ATOM      1  N   UNL     1       1.569   6.543  20.949  0.00  0.00    +0.000 N 
ATOM      2  C   UNL     1       2.056   5.322  20.562  0.00  0.00    +0.000 C 
ATOM      3  O   UNL     1       1.593   4.311  21.083  0.00  0.00    +0.000 OA
ATOM      4  H   UNL     1       1.043   6.489  21.816  0.00  0.00    +0.000 HD
ENDROOT
BRANCH   2   5
ATOM      5  C   UNL     1       3.035   5.251  19.499  0.00  0.00    +0.000 A 
ATOM      6  C   UNL     1       2.923   5.117  18.127  0.00  0.00    +0.000 A 
ATOM      7  C   UNL     1       4.215   4.940  17.582  0.00  0.00    +0.000 A 
ATOM      8  C   UNL     1       4.684   4.633  16.294  0.00  0.00    +0.000 A 
ATOM      9  C   UNL     1       6.059   4.530  16.095  0.00  0.00    +0.000 A 
ATOM     10 CL   UNL     1       6.651   4.118  14.531  0.00  0.00    +0.000 Cl
ATOM     11  C   UNL     1       6.956   4.751  17.140  0.00  0.00    +0.000 A 
ATOM     12  C   UNL     1       6.506   5.062  18.427  0.00  0.00    +0.000 A 
ATOM     13  C   UNL     1       5.125   5.134  18.617  0.00  0.00    +0.000 A 
ATOM     14  N   UNL     1       4.385   5.394  19.753  0.00  0.00    +0.000 N 
ATOM     15  H   UNL     1       4.764   5.596  20.668  0.00  0.00    +0.000 HD
ENDBRANCH   2   5
BRANCH   1  16
ATOM     16  C   UNL     1       1.917   7.869  20.458  0.00  0.00    +0.000 C 
BRANCH  16  19
ATOM     17  C   UNL     1       1.470   9.606  18.154  0.00  0.00    +0.000 C 
ATOM     18  N   UNL     1       0.542   9.633  19.287  0.00  0.00    +0.000 N 
ATOM     19  C   UNL     1       0.669   8.769  20.393  0.00  0.00    +0.000 C 
ATOM     20  O   UNL     1      -0.174   8.657  21.288  0.00  0.00    +0.000 OA
BRANCH  18  21
ATOM     21  C   UNL     1      -0.614  10.499  19.157  0.00  0.00    +0.000 A 
ATOM     22  C   UNL     1      -0.776  11.646  19.949  0.00  0.00    +0.000 A 
ATOM     23  C   UNL     1      -1.939  12.421  19.886  0.00  0.00    +0.000 A 
ATOM     24  C   UNL     1      -2.962  12.076  19.013  0.00  0.00    +0.000 A 
ATOM     25  C   UNL     1      -2.803  10.980  18.174  0.00  0.00    +0.000 A 
ATOM     26  C   UNL     1      -1.634  10.209  18.235  0.00  0.00    +0.000 A 
ENDBRANCH  18  21
ENDBRANCH  16  19
ENDBRANCH   1  16
TORSDOF 4
ENDMDL
MODEL 4
REMARK VINA RESULT:      -8.2      1.277      1.896
REMARK  Name = 
REMARK  5 active torsions:
REMARK  status: ('A' for Active; 'I' for Inactive)
REMARK    1  A    between atoms: C_1  and  N_2
REMARK    2  A    between atoms: N_2  and  C_19
REMARK    3  A    between atoms: C_3  and  C_5
REMARK    4  A    between atoms: C_5  and  N_6
REMARK    5  A    between atoms: C_7  and  C_9
REMARK                            x       y       z     vdW  Elec       q    Type
REMARK                         _______ _______ _______ _____ _____    ______ ____
ROOT
ATOM      1  N   UNL     1       4.957   5.333  18.696  0.00  0.00    +0.000 N 
ATOM      2  C   UNL     1       3.726   5.298  19.297  0.00  0.00    +0.000 C 
ATOM      3  O   UNL     1       3.391   4.279  19.893  0.00  0.00    +0.000 OA
ATOM      4  H   UNL     1       5.363   4.407  18.598  0.00  0.00    +0.000 HD
ENDROOT
BRANCH   2   5
ATOM      5  C   UNL     1       2.896   6.483  19.285  0.00  0.00    +0.000 A 
ATOM      6  C   UNL     1       2.492   7.336  18.274  0.00  0.00    +0.000 A 
ATOM      7  C   UNL     1       1.814   8.433  18.852  0.00  0.00    +0.000 A 
ATOM      8  C   UNL     1       1.313   9.638  18.332  0.00  0.00    +0.000 A 
ATOM      9  C   UNL     1       0.678  10.523  19.201  0.00  0.00    +0.000 A 
ATOM     10 CL   UNL     1       0.091  12.023  18.590  0.00  0.00    +0.000 Cl
ATOM     11  C   UNL     1       0.518  10.215  20.552  0.00  0.00    +0.000 A 
ATOM     12  C   UNL     1       1.007   9.017  21.084  0.00  0.00    +0.000 A 
ATOM     13  C   UNL     1       1.664   8.154  20.206  0.00  0.00    +0.000 A 
ATOM     14  N   UNL     1       2.265   6.931  20.428  0.00  0.00    +0.000 N 
ATOM     15  H   UNL     1       2.306   6.448  21.316  0.00  0.00    +0.000 HD
ENDBRANCH   2   5
BRANCH   1  16
ATOM     16  C   UNL     1       5.597   6.424  17.974  0.00  0.00    +0.000 C 
BRANCH  16  19
ATOM     17  C   UNL     1       7.442   4.410  16.943  0.00  0.00    +0.000 C 
ATOM     18  N   UNL     1       6.608   5.185  16.021  0.00  0.00    +0.000 N 
ATOM     19  C   UNL     1       5.652   6.120  16.466  0.00  0.00    +0.000 C 
ATOM     20  O   UNL     1       4.830   6.676  15.731  0.00  0.00    +0.000 OA
BRANCH  18  21
ATOM     21  C   UNL     1       6.706   4.843  14.615  0.00  0.00    +0.000 A 
ATOM     22  C   UNL     1       5.898   3.854  14.033  0.00  0.00    +0.000 A 
ATOM     23  C   UNL     1       6.066   3.461  12.701  0.00  0.00    +0.000 A 
ATOM     24  C   UNL     1       7.037   4.064  11.912  0.00  0.00    +0.000 A 
ATOM     25  C   UNL     1       7.812   5.086  12.446  0.00  0.00    +0.000 A 
ATOM     26  C   UNL     1       7.637   5.482  13.778  0.00  0.00    +0.000 A 
ENDBRANCH  18  21
ENDBRANCH  16  19
ENDBRANCH   1  16
TORSDOF 4
ENDMDL
MODEL 5
REMARK VINA RESULT:      -8.2      3.099      3.964
REMARK  Name = 
REMARK  5 active torsions:
REMARK  status: ('A' for Active; 'I' for Inactive)
REMARK    1  A    between atoms: C_1  and  N_2
REMARK    2  A    between atoms: N_2  and  C_19
REMARK    3  A    between atoms: C_3  and  C_5
REMARK    4  A    between atoms: C_5  and  N_6
REMARK    5  A    between atoms: C_7  and  C_9
REMARK                            x       y       z     vdW  Elec       q    Type
REMARK                         _______ _______ _______ _____ _____    ______ ____
ROOT
ATOM      1  N   UNL     1       4.239   7.958  17.323  0.00  0.00    +0.000 N 
ATOM      2  C   UNL     1       3.001   7.984  17.909  0.00  0.00    +0.000 C 
ATOM      3  O   UNL     1       2.303   8.984  17.764  0.00  0.00    +0.000 OA
ATOM      4  H   UNL     1       4.548   8.882  17.035  0.00  0.00    +0.000 HD
ENDROOT
BRANCH   2   5
ATOM      5  C   UNL     1       2.518   6.812  18.605  0.00  0.00    +0.000 A 
ATOM      6  C   UNL     1       2.309   6.535  19.944  0.00  0.00    +0.000 A 
ATOM      7  C   UNL     1       1.978   5.167  20.077  0.00  0.00    +0.000 A 
ATOM      8  C   UNL     1       1.793   4.324  21.185  0.00  0.00    +0.000 A 
ATOM      9  C   UNL     1       1.462   2.990  20.957  0.00  0.00    +0.000 A 
ATOM     10 CL   UNL     1       1.268   1.932  22.302  0.00  0.00    +0.000 Cl
ATOM     11  C   UNL     1       1.291   2.503  19.661  0.00  0.00    +0.000 A 
ATOM     12  C   UNL     1       1.466   3.330  18.547  0.00  0.00    +0.000 A 
ATOM     13  C   UNL     1       1.825   4.657  18.792  0.00  0.00    +0.000 A 
ATOM     14  N   UNL     1       2.087   5.694  17.919  0.00  0.00    +0.000 N 
ATOM     15  H   UNL     1       2.040   5.640  16.911  0.00  0.00    +0.000 HD
ENDBRANCH   2   5
BRANCH   1  16
ATOM     16  C   UNL     1       5.227   6.887  17.310  0.00  0.00    +0.000 C 
BRANCH  16  19
ATOM     17  C   UNL     1       6.831   4.497  16.824  0.00  0.00    +0.000 C 
ATOM     18  N   UNL     1       6.317   5.280  15.697  0.00  0.00    +0.000 N 
ATOM     19  C   UNL     1       5.481   6.401  15.871  0.00  0.00    +0.000 C 
ATOM     20  O   UNL     1       4.908   6.990  14.949  0.00  0.00    +0.000 OA
BRANCH  18  21
ATOM     21  C   UNL     1       6.589   4.761  14.371  0.00  0.00    +0.000 A 
ATOM     22  C   UNL     1       7.621   5.275  13.569  0.00  0.00    +0.000 A 
ATOM     23  C   UNL     1       7.814   4.837  12.254  0.00  0.00    +0.000 A 
ATOM     24  C   UNL     1       6.989   3.858  11.716  0.00  0.00    +0.000 A 
ATOM     25  C   UNL     1       5.998   3.290  12.507  0.00  0.00    +0.000 A 
ATOM     26  C   UNL     1       5.811   3.726  13.825  0.00  0.00    +0.000 A 
ENDBRANCH  18  21
ENDBRANCH  16  19
ENDBRANCH   1  16
TORSDOF 4
ENDMDL
MODEL 6
REMARK VINA RESULT:      -8.1      0.795      1.320
REMARK  Name = 
REMARK  5 active torsions:
REMARK  status: ('A' for Active; 'I' for Inactive)
REMARK    1  A    between atoms: C_1  and  N_2
REMARK    2  A    between atoms: N_2  and  C_19
REMARK    3  A    between atoms: C_3  and  C_5
REMARK    4  A    between atoms: C_5  and  N_6
REMARK    5  A    between atoms: C_7  and  C_9
REMARK                            x       y       z     vdW  Elec       q    Type
REMARK                         _______ _______ _______ _____ _____    ______ ____
ROOT
ATOM      1  N   UNL     1       5.378   3.726  18.732  0.00  0.00    +0.000 N 
ATOM      2  C   UNL     1       4.081   3.807  19.166  0.00  0.00    +0.000 C 
ATOM      3  O   UNL     1       3.498   2.771  19.475  0.00  0.00    +0.000 OA
ATOM      4  H   UNL     1       5.638   2.778  18.474  0.00  0.00    +0.000 HD
ENDROOT
BRANCH   2   5
ATOM      5  C   UNL     1       3.465   5.106  19.328  0.00  0.00    +0.000 A 
ATOM      6  C   UNL     1       2.840   5.721  20.398  0.00  0.00    +0.000 A 
ATOM      7  C   UNL     1       2.276   6.939  19.952  0.00  0.00    +0.000 A 
ATOM      8  C   UNL     1       1.437   7.889  20.556  0.00  0.00    +0.000 A 
ATOM      9  C   UNL     1       1.059   9.007  19.816  0.00  0.00    +0.000 A 
ATOM     10 CL   UNL     1      -0.000  10.165  20.527  0.00  0.00    +0.000 Cl
ATOM     11  C   UNL     1       1.520   9.197  18.514  0.00  0.00    +0.000 A 
ATOM     12  C   UNL     1       2.360   8.263  17.899  0.00  0.00    +0.000 A 
ATOM     13  C   UNL     1       2.707   7.135  18.645  0.00  0.00    +0.000 A 
ATOM     14  N   UNL     1       3.487   6.044  18.316  0.00  0.00    +0.000 N 
ATOM     15  H   UNL     1       3.960   5.904  17.434  0.00  0.00    +0.000 HD
ENDBRANCH   2   5
BRANCH   1  16
ATOM     16  C   UNL     1       6.289   4.797  18.352  0.00  0.00    +0.000 C 
BRANCH  16  19
ATOM     17  C   UNL     1       4.794   5.564  15.964  0.00  0.00    +0.000 C 
ATOM     18  N   UNL     1       6.080   4.872  15.838  0.00  0.00    +0.000 N 
ATOM     19  C   UNL     1       6.876   4.540  16.952  0.00  0.00    +0.000 C 
ATOM     20  O   UNL     1       8.027   4.098  16.877  0.00  0.00    +0.000 OA
BRANCH  18  21
ATOM     21  C   UNL     1       6.575   4.668  14.490  0.00  0.00    +0.000 A 
ATOM     22  C   UNL     1       7.602   5.456  13.948  0.00  0.00    +0.000 A 
ATOM     23  C   UNL     1       8.006   5.318  12.616  0.00  0.00    +0.000 A 
ATOM     24  C   UNL     1       7.403   4.372  11.798  0.00  0.00    +0.000 A 
ATOM     25  C   UNL     1       6.425   3.538  12.325  0.00  0.00    +0.000 A 
ATOM     26  C   UNL     1       6.027   3.674  13.661  0.00  0.00    +0.000 A 
ENDBRANCH  18  21
ENDBRANCH  16  19
ENDBRANCH   1  16
TORSDOF 4
ENDMDL
MODEL 7
REMARK VINA RESULT:      -8.1      3.562      8.825
REMARK  Name = 
REMARK  5 active torsions:
REMARK  status: ('A' for Active; 'I' for Inactive)
REMARK    1  A    between atoms: C_1  and  N_2
REMARK    2  A    between atoms: N_2  and  C_19
REMARK    3  A    between atoms: C_3  and  C_5
REMARK    4  A    between atoms: C_5  and  N_6
REMARK    5  A    between atoms: C_7  and  C_9
REMARK                            x       y       z     vdW  Elec       q    Type
REMARK                         _______ _______ _______ _____ _____    ______ ____
ROOT
ATOM      1  N   UNL     1       1.632   6.514  20.882  0.00  0.00    +0.000 N 
ATOM      2  C   UNL     1       2.236   5.314  20.610  0.00  0.00    +0.000 C 
ATOM      3  O   UNL     1       1.921   4.333  21.277  0.00  0.00    +0.000 OA
ATOM      4  H   UNL     1       1.163   6.513  21.783  0.00  0.00    +0.000 HD
ENDROOT
BRANCH   2   5
ATOM      5  C   UNL     1       3.158   5.218  19.499  0.00  0.00    +0.000 A 
ATOM      6  C   UNL     1       2.975   5.013  18.144  0.00  0.00    +0.000 A 
ATOM      7  C   UNL     1       4.242   4.843  17.538  0.00  0.00    +0.000 A 
ATOM      8  C   UNL     1       4.649   4.486  16.242  0.00  0.00    +0.000 A 
ATOM      9  C   UNL     1       6.014   4.411  15.972  0.00  0.00    +0.000 A 
ATOM     10 CL   UNL     1       6.533   3.937  14.400  0.00  0.00    +0.000 Cl
ATOM     11  C   UNL     1       6.959   4.708  16.954  0.00  0.00    +0.000 A 
ATOM     12  C   UNL     1       6.570   5.070  18.248  0.00  0.00    +0.000 A 
ATOM     13  C   UNL     1       5.199   5.114  18.510  0.00  0.00    +0.000 A 
ATOM     14  N   UNL     1       4.514   5.410  19.671  0.00  0.00    +0.000 N 
ATOM     15  H   UNL     1       4.936   5.667  20.553  0.00  0.00    +0.000 HD
ENDBRANCH   2   5
BRANCH   1  16
ATOM     16  C   UNL     1       1.797   7.798  20.214  0.00  0.00    +0.000 C 
BRANCH  16  19
ATOM     17  C   UNL     1       0.278  10.020  19.081  0.00  0.00    +0.000 C 
ATOM     18  N   UNL     1       0.637  10.022  20.502  0.00  0.00    +0.000 N 
ATOM     19  C   UNL     1       1.308   8.946  21.117  0.00  0.00    +0.000 C 
ATOM     20  O   UNL     1       1.490   8.845  22.334  0.00  0.00    +0.000 OA
BRANCH  18  21
ATOM     21  C   UNL     1       0.139  11.130  21.293  0.00  0.00    +0.000 A 
ATOM     22  C   UNL     1      -0.834  10.954  22.290  0.00  0.00    +0.000 A 
ATOM     23  C   UNL     1      -1.380  12.041  22.980  0.00  0.00    +0.000 A 
ATOM     24  C   UNL     1      -0.949  13.332  22.704  0.00  0.00    +0.000 A 
ATOM     25  C   UNL     1       0.056  13.530  21.765  0.00  0.00    +0.000 A 
ATOM     26  C   UNL     1       0.605  12.439  21.079  0.00  0.00    +0.000 A 
ENDBRANCH  18  21
ENDBRANCH  16  19
ENDBRANCH   1  16
TORSDOF 4
ENDMDL
MODEL 8
REMARK VINA RESULT:      -8.0      3.479      8.675
REMARK  Name = 
REMARK  5 active torsions:
REMARK  status: ('A' for Active; 'I' for Inactive)
REMARK    1  A    between atoms: C_1  and  N_2
REMARK    2  A    between atoms: N_2  and  C_19
REMARK    3  A    between atoms: C_3  and  C_5
REMARK    4  A    between atoms: C_5  and  N_6
REMARK    5  A    between atoms: C_7  and  C_9
REMARK                            x       y       z     vdW  Elec       q    Type
REMARK                         _______ _______ _______ _____ _____    ______ ____
ROOT
ATOM      1  N   UNL     1       1.822   6.396  20.792  0.00  0.00    +0.000 N 
ATOM      2  C   UNL     1       2.459   5.212  20.528  0.00  0.00    +0.000 C 
ATOM      3  O   UNL     1       2.205   4.238  21.231  0.00  0.00    +0.000 OA
ATOM      4  H   UNL     1       1.387   6.402  21.710  0.00  0.00    +0.000 HD
ENDROOT
BRANCH   2   5
ATOM      5  C   UNL     1       3.342   5.119  19.386  0.00  0.00    +0.000 A 
ATOM      6  C   UNL     1       3.112   4.946  18.033  0.00  0.00    +0.000 A 
ATOM      7  C   UNL     1       4.354   4.763  17.383  0.00  0.00    +0.000 A 
ATOM      8  C   UNL     1       4.712   4.424  16.068  0.00  0.00    +0.000 A 
ATOM      9  C   UNL     1       6.065   4.326  15.752  0.00  0.00    +0.000 A 
ATOM     10 CL   UNL     1       6.524   3.874  14.154  0.00  0.00    +0.000 Cl
ATOM     11  C   UNL     1       7.047   4.582  16.709  0.00  0.00    +0.000 A 
ATOM     12  C   UNL     1       6.708   4.926  18.021  0.00  0.00    +0.000 A 
ATOM     13  C   UNL     1       5.348   4.993  18.328  0.00  0.00    +0.000 A 
ATOM     14  N   UNL     1       4.707   5.279  19.517  0.00  0.00    +0.000 N 
ATOM     15  H   UNL     1       5.162   5.509  20.390  0.00  0.00    +0.000 HD
ENDBRANCH   2   5
BRANCH   1  16
ATOM     16  C   UNL     1       1.915   7.668  20.087  0.00  0.00    +0.000 C 
BRANCH  16  19
ATOM     17  C   UNL     1       0.524   9.913  18.843  0.00  0.00    +0.000 C 
ATOM     18  N   UNL     1       0.751   9.898  20.290  0.00  0.00    +0.000 N 
ATOM     19  C   UNL     1       1.355   8.811  20.953  0.00  0.00    +0.000 C 
ATOM     20  O   UNL     1       1.424   8.697  22.181  0.00  0.00    +0.000 OA
BRANCH  18  21
ATOM     21  C   UNL     1       0.192  11.003  21.044  0.00  0.00    +0.000 A 
ATOM     22  C   UNL     1       0.638  12.323  20.871  0.00  0.00    +0.000 A 
ATOM     23  C   UNL     1       0.163  13.368  21.672  0.00  0.00    +0.000 A 
ATOM     24  C   UNL     1      -0.787  13.119  22.653  0.00  0.00    +0.000 A 
ATOM     25  C   UNL     1      -1.290  11.833  22.806  0.00  0.00    +0.000 A 
ATOM     26  C   UNL     1      -0.817  10.790  21.999  0.00  0.00    +0.000 A 
ENDBRANCH  18  21
ENDBRANCH  16  19
ENDBRANCH   1  16
TORSDOF 4
ENDMDL
MODEL 9
REMARK VINA RESULT:      -8.0      3.432      8.235
REMARK  Name = 
REMARK  5 active torsions:
REMARK  status: ('A' for Active; 'I' for Inactive)
REMARK    1  A    between atoms: C_1  and  N_2
REMARK    2  A    between atoms: N_2  and  C_19
REMARK    3  A    between atoms: C_3  and  C_5
REMARK    4  A    between atoms: C_5  and  N_6
REMARK    5  A    between atoms: C_7  and  C_9
REMARK                            x       y       z     vdW  Elec       q    Type
REMARK                         _______ _______ _______ _____ _____    ______ ____
ROOT
ATOM      1  N   UNL     1       1.590   6.453  20.903  0.00  0.00    +0.000 N 
ATOM      2  C   UNL     1       2.115   5.286  20.415  0.00  0.00    +0.000 C 
ATOM      3  O   UNL     1       1.642   4.221  20.800  0.00  0.00    +0.000 OA
ATOM      4  H   UNL     1       1.021   6.301  21.731  0.00  0.00    +0.000 HD
ENDROOT
BRANCH   2   5
ATOM      5  C   UNL     1       3.149   5.340  19.404  0.00  0.00    +0.000 A 
ATOM      6  C   UNL     1       3.109   5.363  18.021  0.00  0.00    +0.000 A 
ATOM      7  C   UNL     1       4.429   5.252  17.528  0.00  0.00    +0.000 A 
ATOM      8  C   UNL     1       4.967   5.096  16.240  0.00  0.00    +0.000 A 
ATOM      9  C   UNL     1       6.351   5.020  16.103  0.00  0.00    +0.000 A 
ATOM     10 CL   UNL     1       7.027   4.790  14.536  0.00  0.00    +0.000 Cl
ATOM     11  C   UNL     1       7.191   5.122  17.212  0.00  0.00    +0.000 A 
ATOM     12  C   UNL     1       6.672   5.283  18.501  0.00  0.00    +0.000 A 
ATOM     13  C   UNL     1       5.282   5.330  18.624  0.00  0.00    +0.000 A 
ATOM     14  N   UNL     1       4.482   5.456  19.742  0.00  0.00    +0.000 N 
ATOM     15  H   UNL     1       4.811   5.553  20.693  0.00  0.00    +0.000 HD
ENDBRANCH   2   5
BRANCH   1  16
ATOM     16  C   UNL     1       1.942   7.828  20.575  0.00  0.00    +0.000 C 
BRANCH  16  19
ATOM     17  C   UNL     1       1.455   9.603  18.309  0.00  0.00    +0.000 C 
ATOM     18  N   UNL     1       0.538   9.600  19.452  0.00  0.00    +0.000 N 
ATOM     19  C   UNL     1       0.685   8.717  20.540  0.00  0.00    +0.000 C 
ATOM     20  O   UNL     1      -0.148   8.581  21.441  0.00  0.00    +0.000 OA
BRANCH  18  21
ATOM     21  C   UNL     1      -0.627  10.457  19.349  0.00  0.00    +0.000 A 
ATOM     22  C   UNL     1      -1.649  10.214  18.418  0.00  0.00    +0.000 A 
ATOM     23  C   UNL     1      -2.720  11.100  18.257  0.00  0.00    +0.000 A 
ATOM     24  C   UNL     1      -2.805  12.242  19.043  0.00  0.00    +0.000 A 
ATOM     25  C   UNL     1      -1.839  12.476  20.014  0.00  0.00    +0.000 A 
ATOM     26  C   UNL     1      -0.771  11.584  20.176  0.00  0.00    +0.000 A 
ENDBRANCH  18  21
ENDBRANCH  16  19
ENDBRANCH   1  16
TORSDOF 4
ENDMDL
