MODEL 1
REMARK VINA RESULT:      -7.9      0.000      0.000
REMARK  Name = 
REMARK  11 active torsions:
REMARK  status: ('A' for Active; 'I' for Inactive)
REMARK    1  A    between atoms: C_1  and  O_2
REMARK    2  A    between atoms: O_2  and  C_3
REMARK    3  A    between atoms: C_5  and  C_6
REMARK    4  A    between atoms: C_9  and  C_10
REMARK    5  A    between atoms: N_12  and  N_13
REMARK    6  A    between atoms: N_16  and  C_17
REMARK    7  A    between atoms: C_24  and  C_25
REMARK    8  A    between atoms: C_28  and  O_29
REMARK    9  A    between atoms: O_29  and  C_30
REMARK   10  A    between atoms: C_31  and  O_32
REMARK   11  A    between atoms: O_32  and  C_33
REMARK                            x       y       z     vdW  Elec       q    Type
REMARK                         _______ _______ _______ _____ _____    ______ ____
ROOT
ATOM      1  C   UNL     1       2.351   7.238  18.998  0.00  0.00    +0.000 A 
ATOM      2  C   UNL     1       2.301   8.062  17.882  0.00  0.00    +0.000 A 
ATOM      3  C   UNL     1       1.720   9.328  17.994  0.00  0.00    +0.000 A 
ATOM      4  C   UNL     1       1.189   9.773  19.213  0.00  0.00    +0.000 A 
ATOM      5  C   UNL     1       1.240   8.881  20.286  0.00  0.00    +0.000 A 
ATOM      6  C   UNL     1       0.706   9.140  21.662  0.00  0.00    +0.000 C 
ATOM      7  N   UNL     1       1.824   7.648  20.178  0.00  0.00    +0.000 NA
ENDROOT
BRANCH   1  10
ATOM      8  C   UNL     1       5.087   4.580  19.174  0.00  0.00    +0.000 A 
ATOM      9  C   UNL     1       4.422   5.801  18.936  0.00  0.00    +0.000 A 
ATOM     10  C   UNL     1       3.033   5.922  19.033  0.00  0.00    +0.000 A 
ATOM     11  C   UNL     1       2.319   4.734  19.256  0.00  0.00    +0.000 A 
ATOM     12  C   UNL     1       2.948   3.481  19.400  0.00  0.00    +0.000 A 
ATOM     13  C   UNL     1       4.355   3.391  19.370  0.00  0.00    +0.000 A 
BRANCH   8  15
ATOM     14  C   UNL     1       7.087   4.733  17.917  0.00  0.00    +0.000 C 
ATOM     15  O   UNL     1       6.461   4.555  19.191  0.00  0.00    +0.000 OA
ENDBRANCH   8  15
BRANCH  12  16
ATOM     16  O   UNL     1       2.027   2.479  19.594  0.00  0.00    +0.000 OA
ATOM     17  C   UNL     1       0.826   2.470  18.838  0.00  0.00    +0.000 C 
ENDBRANCH  12  16
BRANCH  13  18
ATOM     18  O   UNL     1       4.882   2.139  19.528  0.00  0.00    +0.000 OA
ATOM     19  C   UNL     1       5.031   1.559  20.812  0.00  0.00    +0.000 C 
ENDBRANCH  13  18
ENDBRANCH   1  10
BRANCH   4  20
ATOM     20  C   UNL     1       0.581  11.140  19.200  0.00  0.00    +0.000 C 
ATOM     21  O   UNL     1       1.303  12.136  19.195  0.00  0.00    +0.000 OA
ATOM     22  N   UNL     1      -0.789  11.240  19.270  0.00  0.00    +0.000 N 
ATOM     23  H   UNL     1      -1.433  10.456  19.371  0.00  0.00    +0.000 HD
BRANCH  22  24
ATOM     24  N   UNL     1      -1.411  12.511  19.214  0.00  0.00    +0.000 N 
ATOM     25  C   UNL     1      -2.017  12.908  20.397  0.00  0.00    +0.000 C 
ATOM     26  O   UNL     1      -2.056  12.129  21.345  0.00  0.00    +0.000 OA
ATOM     27  N   UNL     1      -2.569  14.169  20.350  0.00  0.00    +0.000 N 
ATOM     28  H   UNL     1      -0.962  13.189  18.601  0.00  0.00    +0.000 HD
ATOM     29  H   UNL     1      -2.719  14.559  19.425  0.00  0.00    +0.000 HD
BRANCH  27  30
ATOM     30  C   UNL     1      -3.223  14.804  21.433  0.00  0.00    +0.000 A 
ATOM     31  C   UNL     1      -4.589  14.637  21.688  0.00  0.00    +0.000 A 
ATOM     32  C   UNL     1      -5.220  15.329  22.724  0.00  0.00    +0.000 A 
ATOM     33  C   UNL     1      -4.482  16.188  23.529  0.00  0.00    +0.000 A 
ATOM     34 CL   UNL     1      -5.267  17.063  24.785  0.00  0.00    +0.000 Cl
ATOM     35  C   UNL     1      -3.113  16.338  23.318  0.00  0.00    +0.000 A 
ATOM     36  C   UNL     1      -2.481  15.640  22.279  0.00  0.00    +0.000 A 
ENDBRANCH  27  30
ENDBRANCH  22  24
ENDBRANCH   4  20
TORSDOF 7
ENDMDL
MODEL 2
REMARK VINA RESULT:      -7.7      1.188      2.212
REMARK  Name = 
REMARK  11 active torsions:
REMARK  status: ('A' for Active; 'I' for Inactive)
REMARK    1  A    between atoms: C_1  and  O_2
REMARK    2  A    between atoms: O_2  and  C_3
REMARK    3  A    between atoms: C_5  and  C_6
REMARK    4  A    between atoms: C_9  and  C_10
REMARK    5  A    between atoms: N_12  and  N_13
REMARK    6  A    between atoms: N_16  and  C_17
REMARK    7  A    between atoms: C_24  and  C_25
REMARK    8  A    between atoms: C_28  and  O_29
REMARK    9  A    between atoms: O_29  and  C_30
REMARK   10  A    between atoms: C_31  and  O_32
REMARK   11  A    between atoms: O_32  and  C_33
REMARK                            x       y       z     vdW  Elec       q    Type
REMARK                         _______ _______ _______ _____ _____    ______ ____
ROOT
ATOM      1  C   UNL     1       2.047   7.758  19.125  0.00  0.00    +0.000 A 
ATOM      2  C   UNL     1       1.997   8.602  18.023  0.00  0.00    +0.000 A 
ATOM      3  C   UNL     1       1.442   9.877  18.165  0.00  0.00    +0.000 A 
ATOM      4  C   UNL     1       0.934  10.310  19.398  0.00  0.00    +0.000 A 
ATOM      5  C   UNL     1       0.983   9.398  20.455  0.00  0.00    +0.000 A 
ATOM      6  C   UNL     1       0.471   9.643  21.842  0.00  0.00    +0.000 C 
ATOM      7  N   UNL     1       1.543   8.157  20.318  0.00  0.00    +0.000 NA
ENDROOT
BRANCH   1  10
ATOM      8  C   UNL     1       3.001   4.192  20.100  0.00  0.00    +0.000 A 
ATOM      9  C   UNL     1       2.552   5.526  20.184  0.00  0.00    +0.000 A 
ATOM     10  C   UNL     1       2.705   6.429  19.128  0.00  0.00    +0.000 A 
ATOM     11  C   UNL     1       3.444   5.976  18.024  0.00  0.00    +0.000 A 
ATOM     12  C   UNL     1       3.992   4.680  17.952  0.00  0.00    +0.000 A 
ATOM     13  C   UNL     1       3.766   3.760  18.998  0.00  0.00    +0.000 A 
BRANCH   8  15
ATOM     14  C   UNL     1       1.331   2.940  21.216  0.00  0.00    +0.000 C 
ATOM     15  O   UNL     1       2.706   3.318  21.119  0.00  0.00    +0.000 OA
ENDBRANCH   8  15
BRANCH  12  16
ATOM     16  O   UNL     1       4.681   4.493  16.778  0.00  0.00    +0.000 OA
ATOM     17  C   UNL     1       6.053   4.846  16.701  0.00  0.00    +0.000 C 
ENDBRANCH  12  16
BRANCH  13  18
ATOM     18  O   UNL     1       4.325   2.521  18.841  0.00  0.00    +0.000 OA
ATOM     19  C   UNL     1       3.578   1.437  18.319  0.00  0.00    +0.000 C 
ENDBRANCH  13  18
ENDBRANCH   1  10
BRANCH   4  20
ATOM     20  C   UNL     1       0.351  11.687  19.417  0.00  0.00    +0.000 C 
ATOM     21  O   UNL     1       1.082  12.664  19.576  0.00  0.00    +0.000 OA
ATOM     22  N   UNL     1      -1.016  11.813  19.327  0.00  0.00    +0.000 N 
ATOM     23  H   UNL     1      -1.678  11.039  19.290  0.00  0.00    +0.000 HD
BRANCH  22  24
ATOM     24  N   UNL     1      -1.609  13.099  19.295  0.00  0.00    +0.000 N 
ATOM     25  C   UNL     1      -2.183  13.498  20.493  0.00  0.00    +0.000 C 
ATOM     26  O   UNL     1      -2.223  12.711  21.435  0.00  0.00    +0.000 OA
ATOM     27  N   UNL     1      -2.707  14.772  20.467  0.00  0.00    +0.000 N 
ATOM     28  H   UNL     1      -1.156  13.771  18.680  0.00  0.00    +0.000 HD
ATOM     29  H   UNL     1      -2.864  15.175  19.549  0.00  0.00    +0.000 HD
BRANCH  27  30
ATOM     30  C   UNL     1      -3.326  15.412  21.568  0.00  0.00    +0.000 A 
ATOM     31  C   UNL     1      -4.590  15.040  22.039  0.00  0.00    +0.000 A 
ATOM     32  C   UNL     1      -5.203  15.734  23.084  0.00  0.00    +0.000 A 
ATOM     33  C   UNL     1      -4.546  16.802  23.682  0.00  0.00    +0.000 A 
ATOM     34 CL   UNL     1      -5.316  17.675  24.949  0.00  0.00    +0.000 Cl
ATOM     35  C   UNL     1      -3.270  17.164  23.255  0.00  0.00    +0.000 A 
ATOM     36  C   UNL     1      -2.655  16.464  22.207  0.00  0.00    +0.000 A 
ENDBRANCH  27  30
ENDBRANCH  22  24
ENDBRANCH   4  20
TORSDOF 7
ENDMDL
MODEL 3
REMARK VINA RESULT:      -7.7      0.984      1.293
REMARK  Name = 
REMARK  11 active torsions:
REMARK  status: ('A' for Active; 'I' for Inactive)
REMARK    1  A    between atoms: C_1  and  O_2
REMARK    2  A    between atoms: O_2  and  C_3
REMARK    3  A    between atoms: C_5  and  C_6
REMARK    4  A    between atoms: C_9  and  C_10
REMARK    5  A    between atoms: N_12  and  N_13
REMARK    6  A    between atoms: N_16  and  C_17
REMARK    7  A    between atoms: C_24  and  C_25
REMARK    8  A    between atoms: C_28  and  O_29
REMARK    9  A    between atoms: O_29  and  C_30
REMARK   10  A    between atoms: C_31  and  O_32
REMARK   11  A    between atoms: O_32  and  C_33
REMARK                            x       y       z     vdW  Elec       q    Type
REMARK                         _______ _______ _______ _____ _____    ______ ____
ROOT
ATOM      1  C   UNL     1       2.164   7.629  18.992  0.00  0.00    +0.000 A 
ATOM      2  C   UNL     1       2.157   8.472  17.888  0.00  0.00    +0.000 A 
ATOM      3  C   UNL     1       1.605   9.750  18.009  0.00  0.00    +0.000 A 
ATOM      4  C   UNL     1       1.058  10.189  19.223  0.00  0.00    +0.000 A 
ATOM      5  C   UNL     1       1.065   9.279  20.282  0.00  0.00    +0.000 A 
ATOM      6  C   UNL     1       0.507   9.529  21.650  0.00  0.00    +0.000 C 
ATOM      7  N   UNL     1       1.621   8.034  20.167  0.00  0.00    +0.000 NA
ENDROOT
BRANCH   1  10
ATOM      8  C   UNL     1       4.601   4.773  18.298  0.00  0.00    +0.000 A 
ATOM      9  C   UNL     1       3.845   5.953  18.142  0.00  0.00    +0.000 A 
ATOM     10  C   UNL     1       2.813   6.297  19.020  0.00  0.00    +0.000 A 
ATOM     11  C   UNL     1       2.481   5.342  19.993  0.00  0.00    +0.000 A 
ATOM     12  C   UNL     1       3.152   4.108  20.113  0.00  0.00    +0.000 A 
ATOM     13  C   UNL     1       4.237   3.811  19.262  0.00  0.00    +0.000 A 
BRANCH   8  15
ATOM     14  C   UNL     1       5.383   3.962  16.216  0.00  0.00    +0.000 C 
ATOM     15  O   UNL     1       5.685   4.556  17.481  0.00  0.00    +0.000 OA
ENDBRANCH   8  15
BRANCH  12  16
ATOM     16  O   UNL     1       2.626   3.350  21.131  0.00  0.00    +0.000 OA
ATOM     17  C   UNL     1       1.255   2.986  21.105  0.00  0.00    +0.000 C 
ENDBRANCH  12  16
BRANCH  13  18
ATOM     18  O   UNL     1       4.838   2.597  19.454  0.00  0.00    +0.000 OA
ATOM     19  C   UNL     1       4.232   1.397  19.007  0.00  0.00    +0.000 C 
ENDBRANCH  13  18
ENDBRANCH   1  10
BRANCH   4  20
ATOM     20  C   UNL     1       0.483  11.570  19.220  0.00  0.00    +0.000 C 
ATOM     21  O   UNL     1       1.226  12.547  19.308  0.00  0.00    +0.000 OA
ATOM     22  N   UNL     1      -0.886  11.702  19.190  0.00  0.00    +0.000 N 
ATOM     23  H   UNL     1      -1.553  10.931  19.212  0.00  0.00    +0.000 HD
BRANCH  22  24
ATOM     24  N   UNL     1      -1.473  12.990  19.139  0.00  0.00    +0.000 N 
ATOM     25  C   UNL     1      -2.031  13.415  20.335  0.00  0.00    +0.000 C 
ATOM     26  O   UNL     1      -2.063  12.647  21.293  0.00  0.00    +0.000 OA
ATOM     27  N   UNL     1      -2.549  14.691  20.291  0.00  0.00    +0.000 N 
ATOM     28  H   UNL     1      -1.024  13.647  18.506  0.00  0.00    +0.000 HD
ATOM     29  H   UNL     1      -2.715  15.076  19.366  0.00  0.00    +0.000 HD
BRANCH  27  30
ATOM     30  C   UNL     1      -3.152  15.355  21.386  0.00  0.00    +0.000 A 
ATOM     31  C   UNL     1      -2.423  16.155  22.272  0.00  0.00    +0.000 A 
ATOM     32  C   UNL     1      -3.033  16.745  23.381  0.00  0.00    +0.000 A 
ATOM     33  C   UNL     1      -4.390  16.551  23.606  0.00  0.00    +0.000 A 
ATOM     34 CL   UNL     1      -5.133  17.252  24.990  0.00  0.00    +0.000 Cl
ATOM     35  C   UNL     1      -5.143  15.791  22.714  0.00  0.00    +0.000 A 
ATOM     36  C   UNL     1      -4.529  15.202  21.599  0.00  0.00    +0.000 A 
ENDBRANCH  27  30
ENDBRANCH  22  24
ENDBRANCH   4  20
TORSDOF 7
ENDMDL
MODEL 4
REMARK VINA RESULT:      -7.6      2.435      3.702
REMARK  Name = 
REMARK  11 active torsions:
REMARK  status: ('A' for Active; 'I' for Inactive)
REMARK    1  A    between atoms: C_1  and  O_2
REMARK    2  A    between atoms: O_2  and  C_3
REMARK    3  A    between atoms: C_5  and  C_6
REMARK    4  A    between atoms: C_9  and  C_10
REMARK    5  A    between atoms: N_12  and  N_13
REMARK    6  A    between atoms: N_16  and  C_17
REMARK    7  A    between atoms: C_24  and  C_25
REMARK    8  A    between atoms: C_28  and  O_29
REMARK    9  A    between atoms: O_29  and  C_30
REMARK   10  A    between atoms: C_31  and  O_32
REMARK   11  A    between atoms: O_32  and  C_33
REMARK                            x       y       z     vdW  Elec       q    Type
REMARK                         _______ _______ _______ _____ _____    ______ ____
ROOT
ATOM      1  C   UNL     1       2.254   7.947  18.422  0.00  0.00    +0.000 A 
ATOM      2  C   UNL     1       1.727   8.918  17.581  0.00  0.00    +0.000 A 
ATOM      3  C   UNL     1       0.927   9.929  18.123  0.00  0.00    +0.000 A 
ATOM      4  C   UNL     1       0.650   9.972  19.496  0.00  0.00    +0.000 A 
ATOM      5  C   UNL     1       1.181   8.945  20.279  0.00  0.00    +0.000 A 
ATOM      6  C   UNL     1       0.983   8.783  21.756  0.00  0.00    +0.000 C 
ATOM      7  N   UNL     1       1.977   7.966  19.750  0.00  0.00    +0.000 NA
ENDROOT
BRANCH   1  10
ATOM      8  C   UNL     1       3.659   4.557  17.369  0.00  0.00    +0.000 A 
ATOM      9  C   UNL     1       2.845   5.538  17.972  0.00  0.00    +0.000 A 
ATOM     10  C   UNL     1       3.198   6.891  17.987  0.00  0.00    +0.000 A 
ATOM     11  C   UNL     1       4.468   7.207  17.482  0.00  0.00    +0.000 A 
ATOM     12  C   UNL     1       5.348   6.236  16.962  0.00  0.00    +0.000 A 
ATOM     13  C   UNL     1       4.944   4.887  16.891  0.00  0.00    +0.000 A 
BRANCH   8  15
ATOM     14  C   UNL     1       2.642   2.728  18.476  0.00  0.00    +0.000 C 
ATOM     15  O   UNL     1       3.198   3.266  17.272  0.00  0.00    +0.000 OA
ENDBRANCH   8  15
BRANCH  12  16
ATOM     16  O   UNL     1       6.529   6.802  16.548  0.00  0.00    +0.000 OA
ATOM     17  C   UNL     1       7.552   7.072  17.494  0.00  0.00    +0.000 C 
ENDBRANCH  12  16
BRANCH  13  18
ATOM     18  O   UNL     1       5.855   4.013  16.363  0.00  0.00    +0.000 OA
ATOM     19  C   UNL     1       6.062   3.921  14.965  0.00  0.00    +0.000 C 
ENDBRANCH  13  18
ENDBRANCH   1  10
BRANCH   4  20
ATOM     20  C   UNL     1      -0.231  11.093  19.950  0.00  0.00    +0.000 C 
ATOM     21  O   UNL     1      -1.404  10.872  20.251  0.00  0.00    +0.000 OA
ATOM     22  N   UNL     1       0.287  12.367  19.947  0.00  0.00    +0.000 N 
ATOM     23  H   UNL     1       1.218  12.623  19.619  0.00  0.00    +0.000 HD
BRANCH  22  24
ATOM     24  N   UNL     1      -0.496  13.452  20.411  0.00  0.00    +0.000 N 
ATOM     25  C   UNL     1      -0.222  13.843  21.714  0.00  0.00    +0.000 C 
ATOM     26  O   UNL     1       0.578  13.195  22.383  0.00  0.00    +0.000 OA
ATOM     27  N   UNL     1      -0.948  14.934  22.136  0.00  0.00    +0.000 N 
ATOM     28  H   UNL     1      -0.759  14.133  19.703  0.00  0.00    +0.000 HD
ATOM     29  H   UNL     1      -1.769  15.168  21.587  0.00  0.00    +0.000 HD
BRANCH  27  30
ATOM     30  C   UNL     1      -0.834  15.534  23.414  0.00  0.00    +0.000 A 
ATOM     31  C   UNL     1      -0.032  16.657  23.646  0.00  0.00    +0.000 A 
ATOM     32  C   UNL     1       0.113  17.186  24.931  0.00  0.00    +0.000 A 
ATOM     33  C   UNL     1      -0.559  16.603  25.997  0.00  0.00    +0.000 A 
ATOM     34 CL   UNL     1      -0.355  17.237  27.583  0.00  0.00    +0.000 Cl
ATOM     35  C   UNL     1      -1.394  15.509  25.781  0.00  0.00    +0.000 A 
ATOM     36  C   UNL     1      -1.540  14.980  24.490  0.00  0.00    +0.000 A 
ENDBRANCH  27  30
ENDBRANCH  22  24
ENDBRANCH   4  20
TORSDOF 7
ENDMDL
MODEL 5
REMARK VINA RESULT:      -7.6      4.410     12.228
REMARK  Name = 
REMARK  11 active torsions:
REMARK  status: ('A' for Active; 'I' for Inactive)
REMARK    1  A    between atoms: C_1  and  O_2
REMARK    2  A    between atoms: O_2  and  C_3
REMARK    3  A    between atoms: C_5  and  C_6
REMARK    4  A    between atoms: C_9  and  C_10
REMARK    5  A    between atoms: N_12  and  N_13
REMARK    6  A    between atoms: N_16  and  C_17
REMARK    7  A    between atoms: C_24  and  C_25
REMARK    8  A    between atoms: C_28  and  O_29
REMARK    9  A    between atoms: O_29  and  C_30
REMARK   10  A    between atoms: C_31  and  O_32
REMARK   11  A    between atoms: O_32  and  C_33
REMARK                            x       y       z     vdW  Elec       q    Type
REMARK                         _______ _______ _______ _____ _____    ______ ____
ROOT
ATOM      1  C   UNL     1      -2.234  12.088  22.182  0.00  0.00    +0.000 A 
ATOM      2  C   UNL     1      -1.825  11.330  23.271  0.00  0.00    +0.000 A 
ATOM      3  C   UNL     1      -0.747  10.453  23.126  0.00  0.00    +0.000 A 
ATOM      4  C   UNL     1      -0.079  10.327  21.899  0.00  0.00    +0.000 A 
ATOM      5  C   UNL     1      -0.564  11.091  20.836  0.00  0.00    +0.000 A 
ATOM      6  C   UNL     1      -0.021  11.087  19.440  0.00  0.00    +0.000 C 
ATOM      7  N   UNL     1      -1.609  11.962  20.985  0.00  0.00    +0.000 NA
ENDROOT
BRANCH   1  10
ATOM      8  C   UNL     1      -5.412  14.066  21.426  0.00  0.00    +0.000 A 
ATOM      9  C   UNL     1      -4.294  13.220  21.269  0.00  0.00    +0.000 A 
ATOM     10  C   UNL     1      -3.291  13.126  22.238  0.00  0.00    +0.000 A 
ATOM     11  C   UNL     1      -3.387  14.014  23.321  0.00  0.00    +0.000 A 
ATOM     12  C   UNL     1      -4.439  14.942  23.457  0.00  0.00    +0.000 A 
ATOM     13  C   UNL     1      -5.480  14.971  22.504  0.00  0.00    +0.000 A 
BRANCH   8  15
ATOM     14  C   UNL     1      -7.359  12.947  20.679  0.00  0.00    +0.000 C 
ATOM     15  O   UNL     1      -6.427  14.017  20.502  0.00  0.00    +0.000 OA
ENDBRANCH   8  15
BRANCH  12  16
ATOM     16  O   UNL     1      -4.292  15.701  24.592  0.00  0.00    +0.000 OA
ATOM     17  C   UNL     1      -3.526  16.895  24.548  0.00  0.00    +0.000 C 
ENDBRANCH  12  16
BRANCH  13  18
ATOM     18  O   UNL     1      -6.466  15.895  22.719  0.00  0.00    +0.000 OA
ATOM     19  C   UNL     1      -7.635  15.568  23.450  0.00  0.00    +0.000 C 
ENDBRANCH  13  18
ENDBRANCH   1  10
BRANCH   4  20
ATOM     20  C   UNL     1       1.047   9.343  21.867  0.00  0.00    +0.000 C 
ATOM     21  O   UNL     1       1.968   9.434  22.678  0.00  0.00    +0.000 OA
ATOM     22  N   UNL     1       1.052   8.396  20.869  0.00  0.00    +0.000 N 
ATOM     23  H   UNL     1       0.369   8.332  20.115  0.00  0.00    +0.000 HD
BRANCH  22  24
ATOM     24  N   UNL     1       2.074   7.417  20.826  0.00  0.00    +0.000 N 
ATOM     25  C   UNL     1       2.494   7.078  19.548  0.00  0.00    +0.000 C 
ATOM     26  O   UNL     1       1.916   7.558  18.577  0.00  0.00    +0.000 OA
ATOM     27  N   UNL     1       3.526   6.167  19.519  0.00  0.00    +0.000 N 
ATOM     28  H   UNL     1       2.727   7.435  21.606  0.00  0.00    +0.000 HD
ATOM     29  H   UNL     1       3.689   5.646  20.375  0.00  0.00    +0.000 HD
BRANCH  27  30
ATOM     30  C   UNL     1       4.141   5.681  18.340  0.00  0.00    +0.000 A 
ATOM     31  C   UNL     1       4.989   6.471  17.556  0.00  0.00    +0.000 A 
ATOM     32  C   UNL     1       5.528   5.986  16.362  0.00  0.00    +0.000 A 
ATOM     33  C   UNL     1       5.235   4.692  15.949  0.00  0.00    +0.000 A 
ATOM     34 CL   UNL     1       5.875   4.107  14.464  0.00  0.00    +0.000 Cl
ATOM     35  C   UNL     1       4.426   3.875  16.735  0.00  0.00    +0.000 A 
ATOM     36  C   UNL     1       3.887   4.364  17.935  0.00  0.00    +0.000 A 
ENDBRANCH  27  30
ENDBRANCH  22  24
ENDBRANCH   4  20
TORSDOF 7
ENDMDL
MODEL 6
REMARK VINA RESULT:      -7.5      4.395     12.109
REMARK  Name = 
REMARK  11 active torsions:
REMARK  status: ('A' for Active; 'I' for Inactive)
REMARK    1  A    between atoms: C_1  and  O_2
REMARK    2  A    between atoms: O_2  and  C_3
REMARK    3  A    between atoms: C_5  and  C_6
REMARK    4  A    between atoms: C_9  and  C_10
REMARK    5  A    between atoms: N_12  and  N_13
REMARK    6  A    between atoms: N_16  and  C_17
REMARK    7  A    between atoms: C_24  and  C_25
REMARK    8  A    between atoms: C_28  and  O_29
REMARK    9  A    between atoms: O_29  and  C_30
REMARK   10  A    between atoms: C_31  and  O_32
REMARK   11  A    between atoms: O_32  and  C_33
REMARK                            x       y       z     vdW  Elec       q    Type
REMARK                         _______ _______ _______ _____ _____    ______ ____
ROOT
ATOM      1  C   UNL     1      -2.187  12.087  22.224  0.00  0.00    +0.000 A 
ATOM      2  C   UNL     1      -1.853  11.241  23.273  0.00  0.00    +0.000 A 
ATOM      3  C   UNL     1      -0.780  10.357  23.122  0.00  0.00    +0.000 A 
ATOM      4  C   UNL     1      -0.043  10.314  21.931  0.00  0.00    +0.000 A 
ATOM      5  C   UNL     1      -0.454  11.166  20.904  0.00  0.00    +0.000 A 
ATOM      6  C   UNL     1       0.172  11.259  19.545  0.00  0.00    +0.000 C 
ATOM      7  N   UNL     1      -1.493  12.042  21.059  0.00  0.00    +0.000 NA
ENDROOT
BRANCH   1  10
ATOM      8  C   UNL     1      -3.939  15.407  22.920  0.00  0.00    +0.000 A 
ATOM      9  C   UNL     1      -3.041  14.325  23.013  0.00  0.00    +0.000 A 
ATOM     10  C   UNL     1      -3.230  13.137  22.299  0.00  0.00    +0.000 A 
ATOM     11  C   UNL     1      -4.430  13.030  21.580  0.00  0.00    +0.000 A 
ATOM     12  C   UNL     1      -5.395  14.056  21.545  0.00  0.00    +0.000 A 
ATOM     13  C   UNL     1      -5.152  15.273  22.215  0.00  0.00    +0.000 A 
BRANCH   8  15
ATOM     14  C   UNL     1      -3.941  16.643  24.938  0.00  0.00    +0.000 C 
ATOM     15  O   UNL     1      -3.630  16.593  23.543  0.00  0.00    +0.000 OA
ENDBRANCH   8  15
BRANCH  12  16
ATOM     16  O   UNL     1      -6.481  13.696  20.785  0.00  0.00    +0.000 OA
ATOM     17  C   UNL     1      -7.471  12.837  21.331  0.00  0.00    +0.000 C 
ENDBRANCH  12  16
BRANCH  13  18
ATOM     18  O   UNL     1      -6.137  16.219  22.121  0.00  0.00    +0.000 OA
ATOM     19  C   UNL     1      -7.192  16.281  23.065  0.00  0.00    +0.000 C 
ENDBRANCH  13  18
ENDBRANCH   1  10
BRANCH   4  20
ATOM     20  C   UNL     1       1.070   9.315  21.888  0.00  0.00    +0.000 C 
ATOM     21  O   UNL     1       2.050   9.452  22.619  0.00  0.00    +0.000 OA
ATOM     22  N   UNL     1       0.992   8.298  20.965  0.00  0.00    +0.000 N 
ATOM     23  H   UNL     1       0.253   8.187  20.271  0.00  0.00    +0.000 HD
BRANCH  22  24
ATOM     24  N   UNL     1       1.999   7.303  20.919  0.00  0.00    +0.000 N 
ATOM     25  C   UNL     1       2.405   6.954  19.639  0.00  0.00    +0.000 C 
ATOM     26  O   UNL     1       1.827   7.438  18.670  0.00  0.00    +0.000 OA
ATOM     27  N   UNL     1       3.424   6.028  19.607  0.00  0.00    +0.000 N 
ATOM     28  H   UNL     1       2.659   7.316  21.693  0.00  0.00    +0.000 HD
ATOM     29  H   UNL     1       3.586   5.508  20.464  0.00  0.00    +0.000 HD
BRANCH  27  30
ATOM     30  C   UNL     1       4.023   5.528  18.425  0.00  0.00    +0.000 A 
ATOM     31  C   UNL     1       3.781   4.235  17.949  0.00  0.00    +0.000 A 
ATOM     32  C   UNL     1       4.438   3.748  16.818  0.00  0.00    +0.000 A 
ATOM     33  C   UNL     1       5.337   4.560  16.138  0.00  0.00    +0.000 A 
ATOM     34 CL   UNL     1       6.168   3.948  14.763  0.00  0.00    +0.000 Cl
ATOM     35  C   UNL     1       5.563   5.865  16.572  0.00  0.00    +0.000 A 
ATOM     36  C   UNL     1       4.900   6.353  17.708  0.00  0.00    +0.000 A 
ENDBRANCH  27  30
ENDBRANCH  22  24
ENDBRANCH   4  20
TORSDOF 7
ENDMDL
MODEL 7
REMARK VINA RESULT:      -7.5      0.845      1.223
REMARK  Name = 
REMARK  11 active torsions:
REMARK  status: ('A' for Active; 'I' for Inactive)
REMARK    1  A    between atoms: C_1  and  O_2
REMARK    2  A    between atoms: O_2  and  C_3
REMARK    3  A    between atoms: C_5  and  C_6
REMARK    4  A    between atoms: C_9  and  C_10
REMARK    5  A    between atoms: N_12  and  N_13
REMARK    6  A    between atoms: N_16  and  C_17
REMARK    7  A    between atoms: C_24  and  C_25
REMARK    8  A    between atoms: C_28  and  O_29
REMARK    9  A    between atoms: O_29  and  C_30
REMARK   10  A    between atoms: C_31  and  O_32
REMARK   11  A    between atoms: O_32  and  C_33
REMARK                            x       y       z     vdW  Elec       q    Type
REMARK                         _______ _______ _______ _____ _____    ______ ____
ROOT
ATOM      1  C   UNL     1       2.308   7.367  19.064  0.00  0.00    +0.000 A 
ATOM      2  C   UNL     1       2.331   8.215  17.965  0.00  0.00    +0.000 A 
ATOM      3  C   UNL     1       1.792   9.499  18.082  0.00  0.00    +0.000 A 
ATOM      4  C   UNL     1       1.229   9.938  19.289  0.00  0.00    +0.000 A 
ATOM      5  C   UNL     1       1.206   9.023  20.343  0.00  0.00    +0.000 A 
ATOM      6  C   UNL     1       0.626   9.273  21.703  0.00  0.00    +0.000 C 
ATOM      7  N   UNL     1       1.749   7.772  20.231  0.00  0.00    +0.000 NA
ENDROOT
BRANCH   1  10
ATOM      8  C   UNL     1       4.942   4.603  19.011  0.00  0.00    +0.000 A 
ATOM      9  C   UNL     1       4.289   5.832  18.784  0.00  0.00    +0.000 A 
ATOM     10  C   UNL     1       2.940   6.026  19.097  0.00  0.00    +0.000 A 
ATOM     11  C   UNL     1       2.234   4.895  19.532  0.00  0.00    +0.000 A 
ATOM     12  C   UNL     1       2.834   3.628  19.676  0.00  0.00    +0.000 A 
ATOM     13  C   UNL     1       4.213   3.469  19.423  0.00  0.00    +0.000 A 
BRANCH   8  15
ATOM     14  C   UNL     1       6.935   5.736  18.424  0.00  0.00    +0.000 C 
ATOM     15  O   UNL     1       6.297   4.514  18.805  0.00  0.00    +0.000 OA
ENDBRANCH   8  15
BRANCH  12  16
ATOM     16  O   UNL     1       1.925   2.689  20.101  0.00  0.00    +0.000 OA
ATOM     17  C   UNL     1       1.279   2.850  21.354  0.00  0.00    +0.000 C 
ENDBRANCH  12  16
BRANCH  13  18
ATOM     18  O   UNL     1       4.716   2.209  19.597  0.00  0.00    +0.000 OA
ATOM     19  C   UNL     1       4.834   1.635  20.887  0.00  0.00    +0.000 C 
ENDBRANCH  13  18
ENDBRANCH   1  10
BRANCH   4  20
ATOM     20  C   UNL     1       0.671  11.326  19.282  0.00  0.00    +0.000 C 
ATOM     21  O   UNL     1       1.427  12.295  19.351  0.00  0.00    +0.000 OA
ATOM     22  N   UNL     1      -0.697  11.475  19.273  0.00  0.00    +0.000 N 
ATOM     23  H   UNL     1      -1.373  10.712  19.312  0.00  0.00    +0.000 HD
BRANCH  22  24
ATOM     24  N   UNL     1      -1.269  12.769  19.220  0.00  0.00    +0.000 N 
ATOM     25  C   UNL     1      -2.293  12.983  20.131  0.00  0.00    +0.000 C 
ATOM     26  O   UNL     1      -2.683  12.052  20.829  0.00  0.00    +0.000 OA
ATOM     27  N   UNL     1      -2.804  14.262  20.110  0.00  0.00    +0.000 N 
ATOM     28  H   UNL     1      -0.629  13.517  18.964  0.00  0.00    +0.000 HD
ATOM     29  H   UNL     1      -2.589  14.819  19.289  0.00  0.00    +0.000 HD
BRANCH  27  30
ATOM     30  C   UNL     1      -3.837  14.732  20.956  0.00  0.00    +0.000 A 
ATOM     31  C   UNL     1      -3.578  15.347  22.187  0.00  0.00    +0.000 A 
ATOM     32  C   UNL     1      -4.620  15.740  23.030  0.00  0.00    +0.000 A 
ATOM     33  C   UNL     1      -5.938  15.535  22.641  0.00  0.00    +0.000 A 
ATOM     34 CL   UNL     1      -7.218  15.992  23.694  0.00  0.00    +0.000 Cl
ATOM     35  C   UNL     1      -6.217  14.962  21.403  0.00  0.00    +0.000 A 
ATOM     36  C   UNL     1      -5.170  14.569  20.556  0.00  0.00    +0.000 A 
ENDBRANCH  27  30
ENDBRANCH  22  24
ENDBRANCH   4  20
TORSDOF 7
ENDMDL
MODEL 8
REMARK VINA RESULT:      -7.5      4.374     12.251
REMARK  Name = 
REMARK  11 active torsions:
REMARK  status: ('A' for Active; 'I' for Inactive)
REMARK    1  A    between atoms: C_1  and  O_2
REMARK    2  A    between atoms: O_2  and  C_3
REMARK    3  A    between atoms: C_5  and  C_6
REMARK    4  A    between atoms: C_9  and  C_10
REMARK    5  A    between atoms: N_12  and  N_13
REMARK    6  A    between atoms: N_16  and  C_17
REMARK    7  A    between atoms: C_24  and  C_25
REMARK    8  A    between atoms: C_28  and  O_29
REMARK    9  A    between atoms: O_29  and  C_30
REMARK   10  A    between atoms: C_31  and  O_32
REMARK   11  A    between atoms: O_32  and  C_33
REMARK                            x       y       z     vdW  Elec       q    Type
REMARK                         _______ _______ _______ _____ _____    ______ ____
ROOT
ATOM      1  C   UNL     1      -2.153  12.241  22.128  0.00  0.00    +0.000 A 
ATOM      2  C   UNL     1      -1.828  11.433  23.209  0.00  0.00    +0.000 A 
ATOM      3  C   UNL     1      -0.787  10.510  23.083  0.00  0.00    +0.000 A 
ATOM      4  C   UNL     1      -0.072  10.387  21.883  0.00  0.00    +0.000 A 
ATOM      5  C   UNL     1      -0.474  11.205  20.824  0.00  0.00    +0.000 A 
ATOM      6  C   UNL     1       0.130  11.215  19.452  0.00  0.00    +0.000 C 
ATOM      7  N   UNL     1      -1.482  12.120  20.956  0.00  0.00    +0.000 NA
ENDROOT
BRANCH   1  10
ATOM      8  C   UNL     1      -5.376  14.164  22.830  0.00  0.00    +0.000 A 
ATOM      9  C   UNL     1      -4.476  13.105  22.590  0.00  0.00    +0.000 A 
ATOM     10  C   UNL     1      -3.161  13.327  22.171  0.00  0.00    +0.000 A 
ATOM     11  C   UNL     1      -2.818  14.656  21.878  0.00  0.00    +0.000 A 
ATOM     12  C   UNL     1      -3.725  15.727  22.012  0.00  0.00    +0.000 A 
ATOM     13  C   UNL     1      -5.026  15.490  22.504  0.00  0.00    +0.000 A 
BRANCH   8  15
ATOM     14  C   UNL     1      -6.743  12.592  23.953  0.00  0.00    +0.000 C 
ATOM     15  O   UNL     1      -6.612  13.888  23.363  0.00  0.00    +0.000 OA
ENDBRANCH   8  15
BRANCH  12  16
ATOM     16  O   UNL     1      -3.148  16.919  21.648  0.00  0.00    +0.000 OA
ATOM     17  C   UNL     1      -1.782  16.954  21.266  0.00  0.00    +0.000 C 
ENDBRANCH  12  16
BRANCH  13  18
ATOM     18  O   UNL     1      -5.837  16.586  22.613  0.00  0.00    +0.000 OA
ATOM     19  C   UNL     1      -5.913  17.330  23.816  0.00  0.00    +0.000 C 
ENDBRANCH  13  18
ENDBRANCH   1  10
BRANCH   4  20
ATOM     20  C   UNL     1       1.007   9.352  21.868  0.00  0.00    +0.000 C 
ATOM     21  O   UNL     1       1.951   9.434  22.653  0.00  0.00    +0.000 OA
ATOM     22  N   UNL     1       0.945   8.365  20.911  0.00  0.00    +0.000 N 
ATOM     23  H   UNL     1       0.241   8.300  20.177  0.00  0.00    +0.000 HD
BRANCH  22  24
ATOM     24  N   UNL     1       1.920   7.338  20.888  0.00  0.00    +0.000 N 
ATOM     25  C   UNL     1       2.396   7.024  19.624  0.00  0.00    +0.000 C 
ATOM     26  O   UNL     1       1.899   7.567  18.641  0.00  0.00    +0.000 OA
ATOM     27  N   UNL     1       3.384   6.064  19.618  0.00  0.00    +0.000 N 
ATOM     28  H   UNL     1       2.527   7.296  21.704  0.00  0.00    +0.000 HD
ATOM     29  H   UNL     1       3.473   5.506  20.461  0.00  0.00    +0.000 HD
BRANCH  27  30
ATOM     30  C   UNL     1       4.042   5.591  18.458  0.00  0.00    +0.000 A 
ATOM     31  C   UNL     1       4.888   6.401  17.692  0.00  0.00    +0.000 A 
ATOM     32  C   UNL     1       5.471   5.926  16.515  0.00  0.00    +0.000 A 
ATOM     33  C   UNL     1       5.224   4.623  16.100  0.00  0.00    +0.000 A 
ATOM     34 CL   UNL     1       5.918   4.050  14.634  0.00  0.00    +0.000 Cl
ATOM     35  C   UNL     1       4.417   3.788  16.869  0.00  0.00    +0.000 A 
ATOM     36  C   UNL     1       3.835   4.266  18.052  0.00  0.00    +0.000 A 
ENDBRANCH  27  30
ENDBRANCH  22  24
ENDBRANCH   4  20
TORSDOF 7
ENDMDL
MODEL 9
REMARK VINA RESULT:      -7.5      0.975      2.484
REMARK  Name = 
REMARK  11 active torsions:
REMARK  status: ('A' for Active; 'I' for Inactive)
REMARK    1  A    between atoms: C_1  and  O_2
REMARK    2  A    between atoms: O_2  and  C_3
REMARK    3  A    between atoms: C_5  and  C_6
REMARK    4  A    between atoms: C_9  and  C_10
REMARK    5  A    between atoms: N_12  and  N_13
REMARK    6  A    between atoms: N_16  and  C_17
REMARK    7  A    between atoms: C_24  and  C_25
REMARK    8  A    between atoms: C_28  and  O_29
REMARK    9  A    between atoms: O_29  and  C_30
REMARK   10  A    between atoms: C_31  and  O_32
REMARK   11  A    between atoms: O_32  and  C_33
REMARK                            x       y       z     vdW  Elec       q    Type
REMARK                         _______ _______ _______ _____ _____    ______ ____
ROOT
ATOM      1  C   UNL     1       1.946   7.577  19.358  0.00  0.00    +0.000 A 
ATOM      2  C   UNL     1       1.944   8.368  18.216  0.00  0.00    +0.000 A 
ATOM      3  C   UNL     1       1.446   9.672  18.291  0.00  0.00    +0.000 A 
ATOM      4  C   UNL     1       0.949  10.187  19.497  0.00  0.00    +0.000 A 
ATOM      5  C   UNL     1       0.947   9.326  20.596  0.00  0.00    +0.000 A 
ATOM      6  C   UNL     1       0.436   9.661  21.965  0.00  0.00    +0.000 C 
ATOM      7  N   UNL     1       1.451   8.056  20.525  0.00  0.00    +0.000 NA
ENDROOT
BRANCH   1  10
ATOM      8  C   UNL     1       2.338   3.818  19.902  0.00  0.00    +0.000 A 
ATOM      9  C   UNL     1       1.868   5.143  20.013  0.00  0.00    +0.000 A 
ATOM     10  C   UNL     1       2.542   6.222  19.431  0.00  0.00    +0.000 A 
ATOM     11  C   UNL     1       3.781   5.934  18.838  0.00  0.00    +0.000 A 
ATOM     12  C   UNL     1       4.326   4.634  18.798  0.00  0.00    +0.000 A 
ATOM     13  C   UNL     1       3.597   3.549  19.328  0.00  0.00    +0.000 A 
BRANCH   8  15
ATOM     14  C   UNL     1       1.585   2.626  21.804  0.00  0.00    +0.000 C 
ATOM     15  O   UNL     1       1.565   2.789  20.383  0.00  0.00    +0.000 OA
ENDBRANCH   8  15
BRANCH  12  16
ATOM     16  O   UNL     1       5.551   4.625  18.178  0.00  0.00    +0.000 OA
ATOM     17  C   UNL     1       6.192   5.852  17.863  0.00  0.00    +0.000 C 
ENDBRANCH  12  16
BRANCH  13  18
ATOM     18  O   UNL     1       4.195   2.322  19.238  0.00  0.00    +0.000 OA
ATOM     19  C   UNL     1       3.759   1.357  18.295  0.00  0.00    +0.000 C 
ENDBRANCH  13  18
ENDBRANCH   1  10
BRANCH   4  20
ATOM     20  C   UNL     1       0.429  11.589  19.443  0.00  0.00    +0.000 C 
ATOM     21  O   UNL     1       1.208  12.538  19.525  0.00  0.00    +0.000 OA
ATOM     22  N   UNL     1      -0.933  11.773  19.376  0.00  0.00    +0.000 N 
ATOM     23  H   UNL     1      -1.630  11.029  19.402  0.00  0.00    +0.000 HD
BRANCH  22  24
ATOM     24  N   UNL     1      -1.467  13.081  19.278  0.00  0.00    +0.000 N 
ATOM     25  C   UNL     1      -2.085  13.538  20.432  0.00  0.00    +0.000 C 
ATOM     26  O   UNL     1      -2.207  12.782  21.392  0.00  0.00    +0.000 OA
ATOM     27  N   UNL     1      -2.552  14.831  20.344  0.00  0.00    +0.000 N 
ATOM     28  H   UNL     1      -0.955  13.715  18.670  0.00  0.00    +0.000 HD
ATOM     29  H   UNL     1      -2.644  15.213  19.408  0.00  0.00    +0.000 HD
BRANCH  27  30
ATOM     30  C   UNL     1      -3.198  15.529  21.393  0.00  0.00    +0.000 A 
ATOM     31  C   UNL     1      -2.502  16.339  22.296  0.00  0.00    +0.000 A 
ATOM     32  C   UNL     1      -3.158  16.962  23.361  0.00  0.00    +0.000 A 
ATOM     33  C   UNL     1      -4.527  16.791  23.522  0.00  0.00    +0.000 A 
ATOM     34 CL   UNL     1      -5.328  17.533  24.851  0.00  0.00    +0.000 Cl
ATOM     35  C   UNL     1      -5.246  16.021  22.610  0.00  0.00    +0.000 A 
ATOM     36  C   UNL     1      -4.586  15.399  21.541  0.00  0.00    +0.000 A 
ENDBRANCH  27  30
ENDBRANCH  22  24
ENDBRANCH   4  20
TORSDOF 7
ENDMDL
