MODEL 1
REMARK VINA RESULT:      -7.9      0.000      0.000
REMARK  Name = 
REMARK  11 active torsions:
REMARK  status: ('A' for Active; 'I' for Inactive)
REMARK    1  A    between atoms: C_1  and  O_2
REMARK    2  A    between atoms: O_2  and  C_3
REMARK    3  A    between atoms: C_5  and  C_6
REMARK    4  A    between atoms: N_7  and  N_8
REMARK    5  A    between atoms: C_9  and  C_11
REMARK    6  A    between atoms: C_11  and  S_12
REMARK    7  A    between atoms: S_12  and  C_13
REMARK    8  A    between atoms: C_24  and  O_25
REMARK    9  A    between atoms: O_25  and  C_26
REMARK   10  A    between atoms: C_27  and  O_28
REMARK   11  A    between atoms: O_28  and  C_29
REMARK                            x       y       z     vdW  Elec       q    Type
REMARK                         _______ _______ _______ _____ _____    ______ ____
ROOT
ATOM      1  N   UNL     1       7.704   7.160  17.944  0.00  0.00    +0.000 N 
ATOM      2  C   UNL     1       7.691   5.860  18.461  0.00  0.00    +0.000 C 
ATOM      3  O   UNL     1       8.175   5.543  19.546  0.00  0.00    +0.000 OA
ATOM      4  H   UNL     1       7.371   7.313  17.003  0.00  0.00    +0.000 HD
ENDROOT
BRANCH   1   6
ATOM      5  C   UNL     1       8.470   9.290  17.998  0.00  0.00    +0.000 C 
ATOM      6  N   UNL     1       8.369   8.148  18.610  0.00  0.00    +0.000 NA
BRANCH   5   9
ATOM      7  C   UNL     1       9.830  11.689  20.585  0.00  0.00    +0.000 A 
ATOM      8  C   UNL     1       9.018  10.737  19.945  0.00  0.00    +0.000 A 
ATOM      9  C   UNL     1       9.224  10.409  18.612  0.00  0.00    +0.000 A 
ATOM     10  C   UNL     1      10.185  11.094  17.875  0.00  0.00    +0.000 A 
ATOM     11  C   UNL     1      10.954  12.110  18.474  0.00  0.00    +0.000 A 
ATOM     12  C   UNL     1      10.785  12.423  19.844  0.00  0.00    +0.000 A 
BRANCH   7  14
ATOM     13  C   UNL     1       8.661  12.863  22.280  0.00  0.00    +0.000 C 
ATOM     14  O   UNL     1       9.679  11.921  21.930  0.00  0.00    +0.000 OA
ENDBRANCH   7  14
BRANCH  11  15
ATOM     15  O   UNL     1      11.833  12.660  17.571  0.00  0.00    +0.000 OA
ATOM     16  C   UNL     1      11.350  13.564  16.583  0.00  0.00    +0.000 C 
ENDBRANCH  11  15
BRANCH  12  17
ATOM     17  O   UNL     1      11.576  13.428  20.332  0.00  0.00    +0.000 OA
ATOM     18  C   UNL     1      11.187  14.788  20.239  0.00  0.00    +0.000 C 
ENDBRANCH  12  17
ENDBRANCH   5   9
ENDBRANCH   1   6
BRANCH   2  19
ATOM     19  C   UNL     1       6.915   4.855  17.618  0.00  0.00    +0.000 C 
BRANCH  19  20
ATOM     20  S   UNL     1       5.214   5.451  17.320  0.00  0.00    +0.000 S 
BRANCH  20  21
ATOM     21  C   UNL     1       4.109   4.244  18.093  0.00  0.00    +0.000 A 
ATOM     22  C   UNL     1       4.188   2.975  17.483  0.00  0.00    +0.000 A 
ATOM     23  C   UNL     1       3.254   1.984  17.756  0.00  0.00    +0.000 A 
ATOM     24  C   UNL     1       2.193   2.272  18.600  0.00  0.00    +0.000 A 
ATOM     25  C   UNL     1       2.101   3.527  19.222  0.00  0.00    +0.000 A 
ATOM     26  C   UNL     1       0.979   3.830  20.004  0.00  0.00    +0.000 A 
ATOM     27  C   UNL     1       0.897   5.047  20.662  0.00  0.00    +0.000 A 
ATOM     28  C   UNL     1       1.962   5.911  20.535  0.00  0.00    +0.000 A 
ATOM     29  N   UNL     1       3.023   5.681  19.728  0.00  0.00    +0.000 NA
ATOM     30  C   UNL     1       3.100   4.517  19.040  0.00  0.00    +0.000 A 
ENDBRANCH  20  21
ENDBRANCH  19  20
ENDBRANCH   2  19
TORSDOF 8
ENDMDL
MODEL 2
REMARK VINA RESULT:      -7.7      1.599      2.226
REMARK  Name = 
REMARK  11 active torsions:
REMARK  status: ('A' for Active; 'I' for Inactive)
REMARK    1  A    between atoms: C_1  and  O_2
REMARK    2  A    between atoms: O_2  and  C_3
REMARK    3  A    between atoms: C_5  and  C_6
REMARK    4  A    between atoms: N_7  and  N_8
REMARK    5  A    between atoms: C_9  and  C_11
REMARK    6  A    between atoms: C_11  and  S_12
REMARK    7  A    between atoms: S_12  and  C_13
REMARK    8  A    between atoms: C_24  and  O_25
REMARK    9  A    between atoms: O_25  and  C_26
REMARK   10  A    between atoms: C_27  and  O_28
REMARK   11  A    between atoms: O_28  and  C_29
REMARK                            x       y       z     vdW  Elec       q    Type
REMARK                         _______ _______ _______ _____ _____    ______ ____
ROOT
ATOM      1  N   UNL     1       8.136   7.664  18.364  0.00  0.00    +0.000 N 
ATOM      2  C   UNL     1       7.126   7.145  17.547  0.00  0.00    +0.000 C 
ATOM      3  O   UNL     1       6.580   7.772  16.642  0.00  0.00    +0.000 OA
ATOM      4  H   UNL     1       8.460   7.114  19.146  0.00  0.00    +0.000 HD
ENDROOT
BRANCH   1   6
ATOM      5  C   UNL     1       9.105   9.502  19.267  0.00  0.00    +0.000 C 
ATOM      6  N   UNL     1       8.499   8.974  18.246  0.00  0.00    +0.000 NA
BRANCH   5   9
ATOM      7  C   UNL     1       9.920  12.989  20.479  0.00  0.00    +0.000 A 
ATOM      8  C   UNL     1       9.417  11.678  20.429  0.00  0.00    +0.000 A 
ATOM      9  C   UNL     1       9.488  10.933  19.260  0.00  0.00    +0.000 A 
ATOM     10  C   UNL     1       9.980  11.521  18.098  0.00  0.00    +0.000 A 
ATOM     11  C   UNL     1      10.411  12.861  18.104  0.00  0.00    +0.000 A 
ATOM     12  C   UNL     1      10.386  13.617  19.300  0.00  0.00    +0.000 A 
BRANCH   7  14
ATOM     13  C   UNL     1       8.706  14.305  22.033  0.00  0.00    +0.000 C 
ATOM     14  O   UNL     1       9.936  13.670  21.671  0.00  0.00    +0.000 OA
ENDBRANCH   7  14
BRANCH  11  15
ATOM     15  O   UNL     1      10.848  13.243  16.857  0.00  0.00    +0.000 OA
ATOM     16  C   UNL     1      12.241  13.227  16.566  0.00  0.00    +0.000 C 
ENDBRANCH  11  15
BRANCH  12  17
ATOM     17  O   UNL     1      10.822  14.910  19.202  0.00  0.00    +0.000 OA
ATOM     18  C   UNL     1      12.117  15.290  19.637  0.00  0.00    +0.000 C 
ENDBRANCH  12  17
ENDBRANCH   5   9
ENDBRANCH   1   6
BRANCH   2  19
ATOM     19  C   UNL     1       6.819   5.672  17.785  0.00  0.00    +0.000 C 
BRANCH  19  20
ATOM     20  S   UNL     1       5.331   5.171  16.849  0.00  0.00    +0.000 S 
BRANCH  20  21
ATOM     21  C   UNL     1       3.919   5.463  17.944  0.00  0.00    +0.000 A 
ATOM     22  C   UNL     1       3.434   6.784  17.852  0.00  0.00    +0.000 A 
ATOM     23  C   UNL     1       2.526   7.284  18.777  0.00  0.00    +0.000 A 
ATOM     24  C   UNL     1       2.140   6.485  19.842  0.00  0.00    +0.000 A 
ATOM     25  C   UNL     1       2.608   5.166  19.947  0.00  0.00    +0.000 A 
ATOM     26  C   UNL     1       2.275   4.402  21.072  0.00  0.00    +0.000 A 
ATOM     27  C   UNL     1       2.690   3.083  21.166  0.00  0.00    +0.000 A 
ATOM     28  C   UNL     1       3.405   2.566  20.109  0.00  0.00    +0.000 A 
ATOM     29  N   UNL     1       3.808   3.297  19.045  0.00  0.00    +0.000 NA
ATOM     30  C   UNL     1       3.451   4.600  18.956  0.00  0.00    +0.000 A 
ENDBRANCH  20  21
ENDBRANCH  19  20
ENDBRANCH   2  19
TORSDOF 8
ENDMDL
MODEL 3
REMARK VINA RESULT:      -7.7      5.416      9.183
REMARK  Name = 
REMARK  11 active torsions:
REMARK  status: ('A' for Active; 'I' for Inactive)
REMARK    1  A    between atoms: C_1  and  O_2
REMARK    2  A    between atoms: O_2  and  C_3
REMARK    3  A    between atoms: C_5  and  C_6
REMARK    4  A    between atoms: N_7  and  N_8
REMARK    5  A    between atoms: C_9  and  C_11
REMARK    6  A    between atoms: C_11  and  S_12
REMARK    7  A    between atoms: S_12  and  C_13
REMARK    8  A    between atoms: C_24  and  O_25
REMARK    9  A    between atoms: O_25  and  C_26
REMARK   10  A    between atoms: C_27  and  O_28
REMARK   11  A    between atoms: O_28  and  C_29
REMARK                            x       y       z     vdW  Elec       q    Type
REMARK                         _______ _______ _______ _____ _____    ______ ____
ROOT
ATOM      1  N   UNL     1       1.161  10.553  17.970  0.00  0.00    +0.000 N 
ATOM      2  C   UNL     1       1.763  11.797  18.192  0.00  0.00    +0.000 C 
ATOM      3  O   UNL     1       2.937  12.051  17.931  0.00  0.00    +0.000 OA
ATOM      4  H   UNL     1       0.220  10.402  18.303  0.00  0.00    +0.000 HD
ENDROOT
BRANCH   1   6
ATOM      5  C   UNL     1       2.094   8.528  18.367  0.00  0.00    +0.000 C 
ATOM      6  N   UNL     1       1.912   9.504  17.528  0.00  0.00    +0.000 NA
BRANCH   5   9
ATOM      7  C   UNL     1       3.184   4.976  17.665  0.00  0.00    +0.000 A 
ATOM      8  C   UNL     1       2.456   6.077  18.147  0.00  0.00    +0.000 A 
ATOM      9  C   UNL     1       2.943   7.370  18.004  0.00  0.00    +0.000 A 
ATOM     10  C   UNL     1       4.207   7.572  17.457  0.00  0.00    +0.000 A 
ATOM     11  C   UNL     1       4.990   6.476  17.044  0.00  0.00    +0.000 A 
ATOM     12  C   UNL     1       4.486   5.158  17.144  0.00  0.00    +0.000 A 
BRANCH   7  14
ATOM     13  C   UNL     1       2.665   3.094  19.009  0.00  0.00    +0.000 C 
ATOM     14  O   UNL     1       2.636   3.718  17.723  0.00  0.00    +0.000 OA
ENDBRANCH   7  14
BRANCH  11  15
ATOM     15  O   UNL     1       6.200   6.896  16.545  0.00  0.00    +0.000 OA
ATOM     16  C   UNL     1       7.279   7.145  17.440  0.00  0.00    +0.000 C 
ENDBRANCH  11  15
BRANCH  12  17
ATOM     17  O   UNL     1       5.323   4.162  16.720  0.00  0.00    +0.000 OA
ATOM     18  C   UNL     1       5.547   3.919  15.341  0.00  0.00    +0.000 C 
ENDBRANCH  12  17
ENDBRANCH   5   9
ENDBRANCH   1   6
BRANCH   2  19
ATOM     19  C   UNL     1       0.811  12.879  18.685  0.00  0.00    +0.000 C 
BRANCH  19  20
ATOM     20  S   UNL     1      -0.924  12.336  18.500  0.00  0.00    +0.000 S 
BRANCH  20  21
ATOM     21  C   UNL     1      -1.527  11.978  20.168  0.00  0.00    +0.000 A 
ATOM     22  C   UNL     1      -2.441  12.948  20.628  0.00  0.00    +0.000 A 
ATOM     23  C   UNL     1      -2.829  12.998  21.960  0.00  0.00    +0.000 A 
ATOM     24  C   UNL     1      -2.258  12.114  22.863  0.00  0.00    +0.000 A 
ATOM     25  C   UNL     1      -1.351  11.137  22.422  0.00  0.00    +0.000 A 
ATOM     26  C   UNL     1      -0.720  10.308  23.358  0.00  0.00    +0.000 A 
ATOM     27  C   UNL     1       0.141   9.309  22.934  0.00  0.00    +0.000 A 
ATOM     28  C   UNL     1       0.319   9.157  21.577  0.00  0.00    +0.000 A 
ATOM     29  N   UNL     1      -0.214   9.989  20.652  0.00  0.00    +0.000 NA
ATOM     30  C   UNL     1      -1.022  11.000  21.049  0.00  0.00    +0.000 A 
ENDBRANCH  20  21
ENDBRANCH  19  20
ENDBRANCH   2  19
TORSDOF 8
ENDMDL
MODEL 4
REMARK VINA RESULT:      -7.6      6.239     10.293
REMARK  Name = 
REMARK  11 active torsions:
REMARK  status: ('A' for Active; 'I' for Inactive)
REMARK    1  A    between atoms: C_1  and  O_2
REMARK    2  A    between atoms: O_2  and  C_3
REMARK    3  A    between atoms: C_5  and  C_6
REMARK    4  A    between atoms: N_7  and  N_8
REMARK    5  A    between atoms: C_9  and  C_11
REMARK    6  A    between atoms: C_11  and  S_12
REMARK    7  A    between atoms: S_12  and  C_13
REMARK    8  A    between atoms: C_24  and  O_25
REMARK    9  A    between atoms: O_25  and  C_26
REMARK   10  A    between atoms: C_27  and  O_28
REMARK   11  A    between atoms: O_28  and  C_29
REMARK                            x       y       z     vdW  Elec       q    Type
REMARK                         _______ _______ _______ _____ _____    ______ ____
ROOT
ATOM      1  N   UNL     1       0.862   9.464  20.866  0.00  0.00    +0.000 N 
ATOM      2  C   UNL     1      -0.199   9.812  21.709  0.00  0.00    +0.000 C 
ATOM      3  O   UNL     1      -0.739   9.036  22.495  0.00  0.00    +0.000 OA
ATOM      4  H   UNL     1       1.181  10.135  20.183  0.00  0.00    +0.000 HD
ENDROOT
BRANCH   1   6
ATOM      5  C   UNL     1       2.002   7.837  19.778  0.00  0.00    +0.000 C 
ATOM      6  N   UNL     1       1.291   8.169  20.813  0.00  0.00    +0.000 NA
BRANCH   5   9
ATOM      7  C   UNL     1       4.205   4.884  18.928  0.00  0.00    +0.000 A 
ATOM      8  C   UNL     1       3.676   6.185  18.969  0.00  0.00    +0.000 A 
ATOM      9  C   UNL     1       2.465   6.441  19.599  0.00  0.00    +0.000 A 
ATOM     10  C   UNL     1       1.723   5.384  20.116  0.00  0.00    +0.000 A 
ATOM     11  C   UNL     1       2.194   4.061  20.011  0.00  0.00    +0.000 A 
ATOM     12  C   UNL     1       3.447   3.793  19.412  0.00  0.00    +0.000 A 
BRANCH   7  14
ATOM     13  C   UNL     1       6.520   5.385  19.023  0.00  0.00    +0.000 C 
ATOM     14  O   UNL     1       5.452   4.671  18.394  0.00  0.00    +0.000 OA
ENDBRANCH   7  14
BRANCH  11  15
ATOM     15  O   UNL     1       1.306   3.176  20.576  0.00  0.00    +0.000 OA
ATOM     16  C   UNL     1       1.604   2.593  21.840  0.00  0.00    +0.000 C 
ENDBRANCH  11  15
BRANCH  12  17
ATOM     17  O   UNL     1       3.815   2.476  19.355  0.00  0.00    +0.000 OA
ATOM     18  C   UNL     1       3.536   1.677  18.217  0.00  0.00    +0.000 C 
ENDBRANCH  12  17
ENDBRANCH   5   9
ENDBRANCH   1   6
BRANCH   2  19
ATOM     19  C   UNL     1      -0.577  11.287  21.668  0.00  0.00    +0.000 C 
BRANCH  19  20
ATOM     20  S   UNL     1      -0.357  11.957  19.983  0.00  0.00    +0.000 S 
BRANCH  20  21
ATOM     21  C   UNL     1      -1.666  11.227  18.969  0.00  0.00    +0.000 A 
ATOM     22  C   UNL     1      -1.162  10.333  18.003  0.00  0.00    +0.000 A 
ATOM     23  C   UNL     1      -1.961   9.859  16.972  0.00  0.00    +0.000 A 
ATOM     24  C   UNL     1      -3.263  10.324  16.860  0.00  0.00    +0.000 A 
ATOM     25  C   UNL     1      -3.785  11.209  17.817  0.00  0.00    +0.000 A 
ATOM     26  C   UNL     1      -5.072  11.734  17.643  0.00  0.00    +0.000 A 
ATOM     27  C   UNL     1      -5.618  12.571  18.603  0.00  0.00    +0.000 A 
ATOM     28  C   UNL     1      -4.861  12.832  19.723  0.00  0.00    +0.000 A 
ATOM     29  N   UNL     1      -3.588  12.404  19.885  0.00  0.00    +0.000 NA
ATOM     30  C   UNL     1      -3.020  11.622  18.937  0.00  0.00    +0.000 A 
ENDBRANCH  20  21
ENDBRANCH  19  20
ENDBRANCH   2  19
TORSDOF 8
ENDMDL
MODEL 5
REMARK VINA RESULT:      -7.6      6.194      9.713
REMARK  Name = 
REMARK  11 active torsions:
REMARK  status: ('A' for Active; 'I' for Inactive)
REMARK    1  A    between atoms: C_1  and  O_2
REMARK    2  A    between atoms: O_2  and  C_3
REMARK    3  A    between atoms: C_5  and  C_6
REMARK    4  A    between atoms: N_7  and  N_8
REMARK    5  A    between atoms: C_9  and  C_11
REMARK    6  A    between atoms: C_11  and  S_12
REMARK    7  A    between atoms: S_12  and  C_13
REMARK    8  A    between atoms: C_24  and  O_25
REMARK    9  A    between atoms: O_25  and  C_26
REMARK   10  A    between atoms: C_27  and  O_28
REMARK   11  A    between atoms: O_28  and  C_29
REMARK                            x       y       z     vdW  Elec       q    Type
REMARK                         _______ _______ _______ _____ _____    ______ ____
ROOT
ATOM      1  N   UNL     1       1.257  10.303  18.011  0.00  0.00    +0.000 N 
ATOM      2  C   UNL     1       1.760  11.591  18.227  0.00  0.00    +0.000 C 
ATOM      3  O   UNL     1       2.883  11.959  17.887  0.00  0.00    +0.000 OA
ATOM      4  H   UNL     1       0.363  10.057  18.409  0.00  0.00    +0.000 HD
ENDROOT
BRANCH   1   6
ATOM      5  C   UNL     1       2.263   8.283  18.213  0.00  0.00    +0.000 C 
ATOM      6  N   UNL     1       2.064   9.339  17.481  0.00  0.00    +0.000 NA
BRANCH   5   9
ATOM      7  C   UNL     1       5.362   6.508  16.973  0.00  0.00    +0.000 A 
ATOM      8  C   UNL     1       4.433   7.520  17.269  0.00  0.00    +0.000 A 
ATOM      9  C   UNL     1       3.169   7.206  17.752  0.00  0.00    +0.000 A 
ATOM     10  C   UNL     1       2.785   5.873  17.858  0.00  0.00    +0.000 A 
ATOM     11  C   UNL     1       3.671   4.843  17.487  0.00  0.00    +0.000 A 
ATOM     12  C   UNL     1       4.977   5.149  17.037  0.00  0.00    +0.000 A 
BRANCH   7  14
ATOM     13  C   UNL     1       7.485   7.316  17.651  0.00  0.00    +0.000 C 
ATOM     14  O   UNL     1       6.640   6.843  16.598  0.00  0.00    +0.000 OA
ENDBRANCH   7  14
BRANCH  11  15
ATOM     15  O   UNL     1       3.091   3.608  17.662  0.00  0.00    +0.000 OA
ATOM     16  C   UNL     1       1.847   3.508  18.347  0.00  0.00    +0.000 C 
ENDBRANCH  11  15
BRANCH  12  17
ATOM     17  O   UNL     1       5.760   4.079  16.697  0.00  0.00    +0.000 OA
ATOM     18  C   UNL     1       6.038   3.765  15.343  0.00  0.00    +0.000 C 
ENDBRANCH  12  17
ENDBRANCH   5   9
ENDBRANCH   1   6
BRANCH   2  19
ATOM     19  C   UNL     1       0.755  12.567  18.825  0.00  0.00    +0.000 C 
BRANCH  19  20
ATOM     20  S   UNL     1      -0.353  11.707  19.995  0.00  0.00    +0.000 S 
BRANCH  20  21
ATOM     21  C   UNL     1      -2.042  12.109  19.486  0.00  0.00    +0.000 A 
ATOM     22  C   UNL     1      -2.804  12.659  20.537  0.00  0.00    +0.000 A 
ATOM     23  C   UNL     1      -4.180  12.805  20.431  0.00  0.00    +0.000 A 
ATOM     24  C   UNL     1      -4.821  12.344  19.291  0.00  0.00    +0.000 A 
ATOM     25  C   UNL     1      -4.079  11.798  18.231  0.00  0.00    +0.000 A 
ATOM     26  C   UNL     1      -4.749  11.261  17.124  0.00  0.00    +0.000 A 
ATOM     27  C   UNL     1      -4.028  10.763  16.051  0.00  0.00    +0.000 A 
ATOM     28  C   UNL     1      -2.656  10.847  16.112  0.00  0.00    +0.000 A 
ATOM     29  N   UNL     1      -1.978  11.289  17.197  0.00  0.00    +0.000 NA
ATOM     30  C   UNL     1      -2.663  11.738  18.275  0.00  0.00    +0.000 A 
ENDBRANCH  20  21
ENDBRANCH  19  20
ENDBRANCH   2  19
TORSDOF 8
ENDMDL
MODEL 6
REMARK VINA RESULT:      -7.5      1.786      3.318
REMARK  Name = 
REMARK  11 active torsions:
REMARK  status: ('A' for Active; 'I' for Inactive)
REMARK    1  A    between atoms: C_1  and  O_2
REMARK    2  A    between atoms: O_2  and  C_3
REMARK    3  A    between atoms: C_5  and  C_6
REMARK    4  A    between atoms: N_7  and  N_8
REMARK    5  A    between atoms: C_9  and  C_11
REMARK    6  A    between atoms: C_11  and  S_12
REMARK    7  A    between atoms: S_12  and  C_13
REMARK    8  A    between atoms: C_24  and  O_25
REMARK    9  A    between atoms: O_25  and  C_26
REMARK   10  A    between atoms: C_27  and  O_28
REMARK   11  A    between atoms: O_28  and  C_29
REMARK                            x       y       z     vdW  Elec       q    Type
REMARK                         _______ _______ _______ _____ _____    ______ ____
ROOT
ATOM      1  N   UNL     1       8.614   8.002  18.934  0.00  0.00    +0.000 N 
ATOM      2  C   UNL     1       7.780   7.366  18.009  0.00  0.00    +0.000 C 
ATOM      3  O   UNL     1       7.516   7.813  16.894  0.00  0.00    +0.000 OA
ATOM      4  H   UNL     1       8.699   7.613  19.861  0.00  0.00    +0.000 HD
ENDROOT
BRANCH   1   6
ATOM      5  C   UNL     1       8.961  10.144  19.584  0.00  0.00    +0.000 C 
ATOM      6  N   UNL     1       9.110   9.243  18.659  0.00  0.00    +0.000 NA
BRANCH   5   9
ATOM      7  C   UNL     1      10.362  13.216  17.882  0.00  0.00    +0.000 A 
ATOM      8  C   UNL     1      10.064  11.875  18.181  0.00  0.00    +0.000 A 
ATOM      9  C   UNL     1       9.413  11.536  19.360  0.00  0.00    +0.000 A 
ATOM     10  C   UNL     1       9.132  12.525  20.298  0.00  0.00    +0.000 A 
ATOM     11  C   UNL     1       9.497  13.863  20.057  0.00  0.00    +0.000 A 
ATOM     12  C   UNL     1      10.120  14.228  18.840  0.00  0.00    +0.000 A 
BRANCH   7  14
ATOM     13  C   UNL     1      12.333  13.426  16.583  0.00  0.00    +0.000 C 
ATOM     14  O   UNL     1      10.910  13.539  16.665  0.00  0.00    +0.000 OA
ENDBRANCH   7  14
BRANCH  11  15
ATOM     15  O   UNL     1       9.136  14.669  21.111  0.00  0.00    +0.000 OA
ATOM     16  C   UNL     1       9.969  14.731  22.264  0.00  0.00    +0.000 C 
ENDBRANCH  11  15
BRANCH  12  17
ATOM     17  O   UNL     1      10.439  15.551  18.702  0.00  0.00    +0.000 OA
ATOM     18  C   UNL     1      11.684  16.064  19.146  0.00  0.00    +0.000 C 
ENDBRANCH  12  17
ENDBRANCH   5   9
ENDBRANCH   1   6
BRANCH   2  19
ATOM     19  C   UNL     1       7.296   5.987  18.441  0.00  0.00    +0.000 C 
BRANCH  19  20
ATOM     20  S   UNL     1       6.448   5.145  17.059  0.00  0.00    +0.000 S 
BRANCH  20  21
ATOM     21  C   UNL     1       4.675   5.267  17.398  0.00  0.00    +0.000 A 
ATOM     22  C   UNL     1       4.214   6.599  17.371  0.00  0.00    +0.000 A 
ATOM     23  C   UNL     1       2.953   6.935  17.845  0.00  0.00    +0.000 A 
ATOM     24  C   UNL     1       2.159   5.948  18.409  0.00  0.00    +0.000 A 
ATOM     25  C   UNL     1       2.599   4.615  18.440  0.00  0.00    +0.000 A 
ATOM     26  C   UNL     1       1.822   3.646  19.088  0.00  0.00    +0.000 A 
ATOM     27  C   UNL     1       2.221   2.319  19.084  0.00  0.00    +0.000 A 
ATOM     28  C   UNL     1       3.375   2.004  18.403  0.00  0.00    +0.000 A 
ATOM     29  N   UNL     1       4.186   2.924  17.834  0.00  0.00    +0.000 NA
ATOM     30  C   UNL     1       3.838   4.233  17.865  0.00  0.00    +0.000 A 
ENDBRANCH  20  21
ENDBRANCH  19  20
ENDBRANCH   2  19
TORSDOF 8
ENDMDL
MODEL 7
REMARK VINA RESULT:      -7.5      6.259      9.327
REMARK  Name = 
REMARK  11 active torsions:
REMARK  status: ('A' for Active; 'I' for Inactive)
REMARK    1  A    between atoms: C_1  and  O_2
REMARK    2  A    between atoms: O_2  and  C_3
REMARK    3  A    between atoms: C_5  and  C_6
REMARK    4  A    between atoms: N_7  and  N_8
REMARK    5  A    between atoms: C_9  and  C_11
REMARK    6  A    between atoms: C_11  and  S_12
REMARK    7  A    between atoms: S_12  and  C_13
REMARK    8  A    between atoms: C_24  and  O_25
REMARK    9  A    between atoms: O_25  and  C_26
REMARK   10  A    between atoms: C_27  and  O_28
REMARK   11  A    between atoms: O_28  and  C_29
REMARK                            x       y       z     vdW  Elec       q    Type
REMARK                         _______ _______ _______ _____ _____    ______ ____
ROOT
ATOM      1  N   UNL     1       1.191   9.775  18.121  0.00  0.00    +0.000 N 
ATOM      2  C   UNL     1       1.337  11.141  18.383  0.00  0.00    +0.000 C 
ATOM      3  O   UNL     1       2.371  11.775  18.186  0.00  0.00    +0.000 OA
ATOM      4  H   UNL     1       0.339   9.313  18.404  0.00  0.00    +0.000 HD
ENDROOT
BRANCH   1   6
ATOM      5  C   UNL     1       2.261   7.781  18.019  0.00  0.00    +0.000 C 
ATOM      6  N   UNL     1       2.267   9.043  17.711  0.00  0.00    +0.000 NA
BRANCH   5   9
ATOM      7  C   UNL     1       5.727   6.691  16.975  0.00  0.00    +0.000 A 
ATOM      8  C   UNL     1       4.577   7.474  17.166  0.00  0.00    +0.000 A 
ATOM      9  C   UNL     1       3.410   6.914  17.670  0.00  0.00    +0.000 A 
ATOM     10  C   UNL     1       3.351   5.543  17.904  0.00  0.00    +0.000 A 
ATOM     11  C   UNL     1       4.466   4.725  17.640  0.00  0.00    +0.000 A 
ATOM     12  C   UNL     1       5.675   5.291  17.169  0.00  0.00    +0.000 A 
BRANCH   7  14
ATOM     13  C   UNL     1       7.650   7.920  17.616  0.00  0.00    +0.000 C 
ATOM     14  O   UNL     1       6.899   7.286  16.577  0.00  0.00    +0.000 OA
ENDBRANCH   7  14
BRANCH  11  15
ATOM     15  O   UNL     1       4.192   3.409  17.930  0.00  0.00    +0.000 OA
ATOM     16  C   UNL     1       4.218   2.969  19.284  0.00  0.00    +0.000 C 
ENDBRANCH  11  15
BRANCH  12  17
ATOM     17  O   UNL     1       6.699   4.413  16.939  0.00  0.00    +0.000 OA
ATOM     18  C   UNL     1       7.824   4.345  17.800  0.00  0.00    +0.000 C 
ENDBRANCH  12  17
ENDBRANCH   5   9
ENDBRANCH   1   6
BRANCH   2  19
ATOM     19  C   UNL     1       0.058  11.836  18.835  0.00  0.00    +0.000 C 
BRANCH  19  20
ATOM     20  S   UNL     1      -1.170  10.607  19.401  0.00  0.00    +0.000 S 
BRANCH  20  21
ATOM     21  C   UNL     1      -2.464  10.562  18.136  0.00  0.00    +0.000 A 
ATOM     22  C   UNL     1      -2.042   9.908  16.960  0.00  0.00    +0.000 A 
ATOM     23  C   UNL     1      -2.784   9.980  15.789  0.00  0.00    +0.000 A 
ATOM     24  C   UNL     1      -3.931  10.760  15.764  0.00  0.00    +0.000 A 
ATOM     25  C   UNL     1      -4.370  11.413  16.927  0.00  0.00    +0.000 A 
ATOM     26  C   UNL     1      -5.481  12.263  16.864  0.00  0.00    +0.000 A 
ATOM     27  C   UNL     1      -5.954  12.876  18.013  0.00  0.00    +0.000 A 
ATOM     28  C   UNL     1      -5.310  12.592  19.196  0.00  0.00    +0.000 A 
ATOM     29  N   UNL     1      -4.190  11.838  19.279  0.00  0.00    +0.000 NA
ATOM     30  C   UNL     1      -3.685  11.266  18.160  0.00  0.00    +0.000 A 
ENDBRANCH  20  21
ENDBRANCH  19  20
ENDBRANCH   2  19
TORSDOF 8
ENDMDL
MODEL 8
REMARK VINA RESULT:      -7.5      6.289     10.321
REMARK  Name = 
REMARK  11 active torsions:
REMARK  status: ('A' for Active; 'I' for Inactive)
REMARK    1  A    between atoms: C_1  and  O_2
REMARK    2  A    between atoms: O_2  and  C_3
REMARK    3  A    between atoms: C_5  and  C_6
REMARK    4  A    between atoms: N_7  and  N_8
REMARK    5  A    between atoms: C_9  and  C_11
REMARK    6  A    between atoms: C_11  and  S_12
REMARK    7  A    between atoms: S_12  and  C_13
REMARK    8  A    between atoms: C_24  and  O_25
REMARK    9  A    between atoms: O_25  and  C_26
REMARK   10  A    between atoms: C_27  and  O_28
REMARK   11  A    between atoms: O_28  and  C_29
REMARK                            x       y       z     vdW  Elec       q    Type
REMARK                         _______ _______ _______ _____ _____    ______ ____
ROOT
ATOM      1  N   UNL     1       0.113  10.325  21.282  0.00  0.00    +0.000 N 
ATOM      2  C   UNL     1      -0.420  10.607  22.544  0.00  0.00    +0.000 C 
ATOM      3  O   UNL     1      -0.302   9.872  23.523  0.00  0.00    +0.000 OA
ATOM      4  H   UNL     1      -0.114  10.935  20.510  0.00  0.00    +0.000 HD
ENDROOT
BRANCH   1   6
ATOM      5  C   UNL     1       1.319   8.988  19.907  0.00  0.00    +0.000 C 
ATOM      6  N   UNL     1       0.726   9.127  21.055  0.00  0.00    +0.000 NA
BRANCH   5   9
ATOM      7  C   UNL     1       3.436   6.446  18.077  0.00  0.00    +0.000 A 
ATOM      8  C   UNL     1       2.692   7.602  18.365  0.00  0.00    +0.000 A 
ATOM      9  C   UNL     1       1.963   7.705  19.542  0.00  0.00    +0.000 A 
ATOM     10  C   UNL     1       1.896   6.616  20.406  0.00  0.00    +0.000 A 
ATOM     11  C   UNL     1       2.565   5.417  20.097  0.00  0.00    +0.000 A 
ATOM     12  C   UNL     1       3.347   5.315  18.922  0.00  0.00    +0.000 A 
BRANCH   7  14
ATOM     13  C   UNL     1       5.573   6.871  17.143  0.00  0.00    +0.000 C 
ATOM     14  O   UNL     1       4.233   6.407  16.959  0.00  0.00    +0.000 OA
ENDBRANCH   7  14
BRANCH  11  15
ATOM     15  O   UNL     1       2.360   4.472  21.075  0.00  0.00    +0.000 OA
ATOM     16  C   UNL     1       1.291   3.542  20.938  0.00  0.00    +0.000 C 
ENDBRANCH  11  15
BRANCH  12  17
ATOM     17  O   UNL     1       3.956   4.108  18.709  0.00  0.00    +0.000 OA
ATOM     18  C   UNL     1       3.369   3.118  17.881  0.00  0.00    +0.000 C 
ENDBRANCH  12  17
ENDBRANCH   5   9
ENDBRANCH   1   6
BRANCH   2  19
ATOM     19  C   UNL     1      -1.077  11.977  22.659  0.00  0.00    +0.000 C 
BRANCH  19  20
ATOM     20  S   UNL     1      -0.803  12.946  21.135  0.00  0.00    +0.000 S 
BRANCH  20  21
ATOM     21  C   UNL     1      -2.274  12.707  20.108  0.00  0.00    +0.000 A 
ATOM     22  C   UNL     1      -3.408  13.358  20.635  0.00  0.00    +0.000 A 
ATOM     23  C   UNL     1      -4.681  13.100  20.144  0.00  0.00    +0.000 A 
ATOM     24  C   UNL     1      -4.841  12.139  19.157  0.00  0.00    +0.000 A 
ATOM     25  C   UNL     1      -3.723  11.485  18.616  0.00  0.00    +0.000 A 
ATOM     26  C   UNL     1      -3.909  10.458  17.681  0.00  0.00    +0.000 A 
ATOM     27  C   UNL     1      -2.813   9.837  17.104  0.00  0.00    +0.000 A 
ATOM     28  C   UNL     1      -1.563  10.288  17.464  0.00  0.00    +0.000 A 
ATOM     29  N   UNL     1      -1.349  11.222  18.419  0.00  0.00    +0.000 NA
ATOM     30  C   UNL     1      -2.405  11.810  19.028  0.00  0.00    +0.000 A 
ENDBRANCH  20  21
ENDBRANCH  19  20
ENDBRANCH   2  19
TORSDOF 8
ENDMDL
MODEL 9
REMARK VINA RESULT:      -7.4      1.213      2.079
REMARK  Name = 
REMARK  11 active torsions:
REMARK  status: ('A' for Active; 'I' for Inactive)
REMARK    1  A    between atoms: C_1  and  O_2
REMARK    2  A    between atoms: O_2  and  C_3
REMARK    3  A    between atoms: C_5  and  C_6
REMARK    4  A    between atoms: N_7  and  N_8
REMARK    5  A    between atoms: C_9  and  C_11
REMARK    6  A    between atoms: C_11  and  S_12
REMARK    7  A    between atoms: S_12  and  C_13
REMARK    8  A    between atoms: C_24  and  O_25
REMARK    9  A    between atoms: O_25  and  C_26
REMARK   10  A    between atoms: C_27  and  O_28
REMARK   11  A    between atoms: O_28  and  C_29
REMARK                            x       y       z     vdW  Elec       q    Type
REMARK                         _______ _______ _______ _____ _____    ______ ____
ROOT
ATOM      1  N   UNL     1       7.297   7.884  17.265  0.00  0.00    +0.000 N 
ATOM      2  C   UNL     1       7.621   6.708  17.950  0.00  0.00    +0.000 C 
ATOM      3  O   UNL     1       8.180   6.678  19.044  0.00  0.00    +0.000 OA
ATOM      4  H   UNL     1       6.927   7.816  16.328  0.00  0.00    +0.000 HD
ENDROOT
BRANCH   1   6
ATOM      5  C   UNL     1       8.928   9.176  18.161  0.00  0.00    +0.000 C 
ATOM      6  N   UNL     1       7.694   9.091  17.763  0.00  0.00    +0.000 NA
BRANCH   5   9
ATOM      7  C   UNL     1       9.705  11.843  20.726  0.00  0.00    +0.000 A 
ATOM      8  C   UNL     1       9.109  10.746  20.081  0.00  0.00    +0.000 A 
ATOM      9  C   UNL     1       9.438  10.426  18.771  0.00  0.00    +0.000 A 
ATOM     10  C   UNL     1      10.301  11.252  18.057  0.00  0.00    +0.000 A 
ATOM     11  C   UNL     1      10.846  12.404  18.657  0.00  0.00    +0.000 A 
ATOM     12  C   UNL     1      10.552  12.716  20.005  0.00  0.00    +0.000 A 
BRANCH   7  14
ATOM     13  C   UNL     1       8.170  12.664  22.335  0.00  0.00    +0.000 C 
ATOM     14  O   UNL     1       9.444  12.078  22.053  0.00  0.00    +0.000 OA
ENDBRANCH   7  14
BRANCH  11  15
ATOM     15  O   UNL     1      11.660  13.079  17.778  0.00  0.00    +0.000 OA
ATOM     16  C   UNL     1      11.096  14.045  16.899  0.00  0.00    +0.000 C 
ENDBRANCH  11  15
BRANCH  12  17
ATOM     17  O   UNL     1      11.127  13.858  20.496  0.00  0.00    +0.000 OA
ATOM     18  C   UNL     1      10.447  15.102  20.464  0.00  0.00    +0.000 C 
ENDBRANCH  12  17
ENDBRANCH   5   9
ENDBRANCH   1   6
BRANCH   2  19
ATOM     19  C   UNL     1       7.119   5.433  17.283  0.00  0.00    +0.000 C 
BRANCH  19  20
ATOM     20  S   UNL     1       5.706   5.800  16.184  0.00  0.00    +0.000 S 
BRANCH  20  21
ATOM     21  C   UNL     1       4.220   5.675  17.208  0.00  0.00    +0.000 A 
ATOM     22  C   UNL     1       3.760   6.935  17.643  0.00  0.00    +0.000 A 
ATOM     23  C   UNL     1       2.791   7.047  18.631  0.00  0.00    +0.000 A 
ATOM     24  C   UNL     1       2.313   5.897  19.241  0.00  0.00    +0.000 A 
ATOM     25  C   UNL     1       2.755   4.634  18.817  0.00  0.00    +0.000 A 
ATOM     26  C   UNL     1       2.326   3.488  19.500  0.00  0.00    +0.000 A 
ATOM     27  C   UNL     1       2.716   2.232  19.063  0.00  0.00    +0.000 A 
ATOM     28  C   UNL     1       3.503   2.167  17.935  0.00  0.00    +0.000 A 
ATOM     29  N   UNL     1       3.996   3.255  17.300  0.00  0.00    +0.000 NA
ATOM     30  C   UNL     1       3.664   4.492  17.738  0.00  0.00    +0.000 A 
ENDBRANCH  20  21
ENDBRANCH  19  20
ENDBRANCH   2  19
TORSDOF 8
ENDMDL
