MODEL 1
REMARK VINA RESULT:      -9.0      0.000      0.000
REMARK  Name = 
REMARK  7 active torsions:
REMARK  status: ('A' for Active; 'I' for Inactive)
REMARK    1  A    between atoms: C_2  and  C_4
REMARK    2  A    between atoms: C_10  and  C_11
REMARK    3  A    between atoms: C_11  and  C_12
REMARK    4  A    between atoms: N_14  and  C_15
REMARK    5  A    between atoms: C_18  and  C_19
REMARK    6  A    between atoms: C_24  and  S_25
REMARK    7  A    between atoms: S_25  and  N_26
REMARK                            x       y       z     vdW  Elec       q    Type
REMARK                         _______ _______ _______ _____ _____    ______ ____
ROOT
ATOM      1  C   UNL     1       1.760   4.870  20.392  0.00  0.00    +0.000 C 
ATOM      2  O   UNL     1       0.575   4.739  20.090  0.00  0.00    +0.000 OA
ATOM      3  N   UNL     1       2.488   6.046  20.435  0.00  0.00    +0.000 N 
ATOM      4  H   UNL     1       3.493   5.961  20.537  0.00  0.00    +0.000 HD
ENDROOT
BRANCH   3   5
ATOM      5  C   UNL     1       2.010   7.307  20.044  0.00  0.00    +0.000 A 
ATOM      6  C   UNL     1       2.192   7.812  18.765  0.00  0.00    +0.000 A 
ATOM      7  C   UNL     1       1.817   9.121  18.462  0.00  0.00    +0.000 A 
ATOM      8  C   UNL     1       1.181   9.957  19.396  0.00  0.00    +0.000 A 
ATOM      9  C   UNL     1       0.891   9.368  20.633  0.00  0.00    +0.000 A 
ATOM     10  C   UNL     1       1.337   8.084  20.977  0.00  0.00    +0.000 A 
BRANCH   8  11
ATOM     11  C   UNL     1       0.839  11.364  19.027  0.00  0.00    +0.000 A 
ATOM     12  C   UNL     1       1.798  12.369  19.338  0.00  0.00    +0.000 A 
ATOM     13  C   UNL     1       1.567  13.733  19.149  0.00  0.00    +0.000 A 
ATOM     14  C   UNL     1       0.373  14.154  18.595  0.00  0.00    +0.000 A 
ATOM     15  C   UNL     1      -0.583  13.205  18.239  0.00  0.00    +0.000 A 
ATOM     16  C   UNL     1      -0.374  11.824  18.454  0.00  0.00    +0.000 A 
BRANCH  16  17
ATOM     17  S   UNL     1      -1.736  10.751  18.041  0.00  0.00    +0.000 S 
ATOM     18  O   UNL     1      -1.343   9.860  16.965  0.00  0.00    +0.000 OA
ATOM     19  O   UNL     1      -2.403  10.308  19.234  0.00  0.00    +0.000 OA
BRANCH  17  20
ATOM     20  N   UNL     1      -2.855  11.747  17.258  0.00  0.00    +0.000 NA
ATOM     21  H   UNL     1      -2.921  12.614  17.787  0.00  0.00    +0.000 HD
ATOM     22  H   UNL     1      -2.577  11.865  16.286  0.00  0.00    +0.000 HD
ENDBRANCH  17  20
ENDBRANCH  16  17
ENDBRANCH   8  11
ENDBRANCH   3   5
BRANCH   1  23
ATOM     23  C   UNL     1       2.573   3.644  20.744  0.00  0.00    +0.000 C 
BRANCH  23  30
ATOM     24  C   UNL     1       6.127   5.321  18.564  0.00  0.00    +0.000 A 
ATOM     25  C   UNL     1       5.583   5.784  17.351  0.00  0.00    +0.000 A 
ATOM     26  C   UNL     1       4.360   5.292  16.889  0.00  0.00    +0.000 A 
ATOM     27  C   UNL     1       3.708   4.334  17.641  0.00  0.00    +0.000 A 
ATOM     28  C   UNL     1       4.239   3.889  18.855  0.00  0.00    +0.000 A 
ATOM     29  C   UNL     1       5.460   4.349  19.322  0.00  0.00    +0.000 A 
ATOM     30  C   UNL     1       3.240   2.995  19.528  0.00  0.00    +0.000 C 
ATOM     31  C   UNL     1       2.263   2.735  18.350  0.00  0.00    +0.000 C 
ATOM     32  N   UNL     1       2.406   3.853  17.406  0.00  0.00    +0.000 N 
ATOM     33  H   UNL     1       2.218   3.649  16.428  0.00  0.00    +0.000 HD
BRANCH  24  35
ATOM     34  N   UNL     1       7.898   5.459  20.184  0.00  0.00    +0.000 NA
ATOM     35  C   UNL     1       7.395   5.905  19.080  0.00  0.00    +0.000 C 
ATOM     36  N   UNL     1       8.002   6.926  18.407  0.00  0.00    +0.000 N 
ATOM     37  H   UNL     1       8.782   5.933  20.375  0.00  0.00    +0.000 HD
ATOM     38  H   UNL     1       8.639   7.499  18.948  0.00  0.00    +0.000 HD
ATOM     39  H   UNL     1       7.397   7.494  17.821  0.00  0.00    +0.000 HD
ENDBRANCH  24  35
ENDBRANCH  23  30
ENDBRANCH   1  23
TORSDOF 7
ENDMDL
MODEL 2
REMARK VINA RESULT:      -8.8      3.168      9.369
REMARK  Name = 
REMARK  7 active torsions:
REMARK  status: ('A' for Active; 'I' for Inactive)
REMARK    1  A    between atoms: C_2  and  C_4
REMARK    2  A    between atoms: C_10  and  C_11
REMARK    3  A    between atoms: C_11  and  C_12
REMARK    4  A    between atoms: N_14  and  C_15
REMARK    5  A    between atoms: C_18  and  C_19
REMARK    6  A    between atoms: C_24  and  S_25
REMARK    7  A    between atoms: S_25  and  N_26
REMARK                            x       y       z     vdW  Elec       q    Type
REMARK                         _______ _______ _______ _____ _____    ______ ____
ROOT
ATOM      1  C   UNL     1       0.310  10.884  20.808  0.00  0.00    +0.000 C 
ATOM      2  O   UNL     1       1.400  11.298  21.199  0.00  0.00    +0.000 OA
ATOM      3  N   UNL     1       0.065   9.752  20.050  0.00  0.00    +0.000 N 
ATOM      4  H   UNL     1      -0.867   9.646  19.669  0.00  0.00    +0.000 HD
ENDROOT
BRANCH   3   5
ATOM      5  C   UNL     1       1.054   8.915  19.508  0.00  0.00    +0.000 A 
ATOM      6  C   UNL     1       1.552   9.079  18.224  0.00  0.00    +0.000 A 
ATOM      7  C   UNL     1       2.434   8.144  17.682  0.00  0.00    +0.000 A 
ATOM      8  C   UNL     1       2.914   7.047  18.420  0.00  0.00    +0.000 A 
ATOM      9  C   UNL     1       2.496   6.990  19.756  0.00  0.00    +0.000 A 
ATOM     10  C   UNL     1       1.545   7.874  20.285  0.00  0.00    +0.000 A 
BRANCH   8  11
ATOM     11  C   UNL     1       3.825   6.055  17.775  0.00  0.00    +0.000 A 
ATOM     12  C   UNL     1       5.067   6.541  17.276  0.00  0.00    +0.000 A 
ATOM     13  C   UNL     1       5.966   5.751  16.557  0.00  0.00    +0.000 A 
ATOM     14  C   UNL     1       5.681   4.417  16.339  0.00  0.00    +0.000 A 
ATOM     15  C   UNL     1       4.494   3.884  16.840  0.00  0.00    +0.000 A 
ATOM     16  C   UNL     1       3.562   4.681  17.542  0.00  0.00    +0.000 A 
BRANCH  16  17
ATOM     17  S   UNL     1       2.047   3.874  18.024  0.00  0.00    +0.000 S 
ATOM     18  O   UNL     1       2.007   3.739  19.468  0.00  0.00    +0.000 OA
ATOM     19  O   UNL     1       0.948   4.369  17.243  0.00  0.00    +0.000 OA
BRANCH  17  20
ATOM     20  N   UNL     1       2.237   2.265  17.542  0.00  0.00    +0.000 NA
ATOM     21  H   UNL     1       1.783   2.157  16.638  0.00  0.00    +0.000 HD
ATOM     22  H   UNL     1       3.227   2.028  17.550  0.00  0.00    +0.000 HD
ENDBRANCH  17  20
ENDBRANCH  16  17
ENDBRANCH   8  11
ENDBRANCH   3   5
BRANCH   1  23
ATOM     23  C   UNL     1      -0.941  11.667  21.141  0.00  0.00    +0.000 C 
BRANCH  23  30
ATOM     24  C   UNL     1      -5.024  11.999  19.295  0.00  0.00    +0.000 A 
ATOM     25  C   UNL     1      -4.845  11.474  18.001  0.00  0.00    +0.000 A 
ATOM     26  C   UNL     1      -3.572  11.413  17.429  0.00  0.00    +0.000 A 
ATOM     27  C   UNL     1      -2.500  11.893  18.156  0.00  0.00    +0.000 A 
ATOM     28  C   UNL     1      -2.675  12.396  19.449  0.00  0.00    +0.000 A 
ATOM     29  C   UNL     1      -3.931  12.483  20.027  0.00  0.00    +0.000 A 
ATOM     30  C   UNL     1      -1.330  12.672  20.053  0.00  0.00    +0.000 C 
ATOM     31  C   UNL     1      -0.436  12.592  18.787  0.00  0.00    +0.000 C 
ATOM     32  N   UNL     1      -1.144  11.764  17.801  0.00  0.00    +0.000 N 
ATOM     33  H   UNL     1      -0.959  11.965  16.822  0.00  0.00    +0.000 HD
BRANCH  24  35
ATOM     34  N   UNL     1      -7.400  12.356  19.222  0.00  0.00    +0.000 NA
ATOM     35  C   UNL     1      -6.375  11.991  19.919  0.00  0.00    +0.000 C 
ATOM     36  N   UNL     1      -6.522  11.633  21.228  0.00  0.00    +0.000 N 
ATOM     37  H   UNL     1      -8.249  12.255  19.780  0.00  0.00    +0.000 HD
ATOM     38  H   UNL     1      -7.364  11.959  21.687  0.00  0.00    +0.000 HD
ATOM     39  H   UNL     1      -5.704  11.756  21.817  0.00  0.00    +0.000 HD
ENDBRANCH  24  35
ENDBRANCH  23  30
ENDBRANCH   1  23
TORSDOF 7
ENDMDL
MODEL 3
REMARK VINA RESULT:      -8.8      1.979      2.539
REMARK  Name = 
REMARK  7 active torsions:
REMARK  status: ('A' for Active; 'I' for Inactive)
REMARK    1  A    between atoms: C_2  and  C_4
REMARK    2  A    between atoms: C_10  and  C_11
REMARK    3  A    between atoms: C_11  and  C_12
REMARK    4  A    between atoms: N_14  and  C_15
REMARK    5  A    between atoms: C_18  and  C_19
REMARK    6  A    between atoms: C_24  and  S_25
REMARK    7  A    between atoms: S_25  and  N_26
REMARK                            x       y       z     vdW  Elec       q    Type
REMARK                         _______ _______ _______ _____ _____    ______ ____
ROOT
ATOM      1  C   UNL     1       2.704   4.623  20.091  0.00  0.00    +0.000 C 
ATOM      2  O   UNL     1       1.567   4.246  19.814  0.00  0.00    +0.000 OA
ATOM      3  N   UNL     1       3.158   5.927  20.176  0.00  0.00    +0.000 N 
ATOM      4  H   UNL     1       4.159   6.062  20.247  0.00  0.00    +0.000 HD
ENDROOT
BRANCH   3   5
ATOM      5  C   UNL     1       2.401   7.067  19.862  0.00  0.00    +0.000 A 
ATOM      6  C   UNL     1       1.581   7.698  20.786  0.00  0.00    +0.000 A 
ATOM      7  C   UNL     1       0.747   8.745  20.393  0.00  0.00    +0.000 A 
ATOM      8  C   UNL     1       0.746   9.255  19.082  0.00  0.00    +0.000 A 
ATOM      9  C   UNL     1       1.684   8.684  18.213  0.00  0.00    +0.000 A 
ATOM     10  C   UNL     1       2.467   7.577  18.573  0.00  0.00    +0.000 A 
BRANCH   8  11
ATOM     11  C   UNL     1      -0.198  10.350  18.708  0.00  0.00    +0.000 A 
ATOM     12  C   UNL     1      -1.444   9.968  18.135  0.00  0.00    +0.000 A 
ATOM     13  C   UNL     1      -2.374  10.886  17.641  0.00  0.00    +0.000 A 
ATOM     14  C   UNL     1      -2.116  12.239  17.739  0.00  0.00    +0.000 A 
ATOM     15  C   UNL     1      -0.927  12.665  18.327  0.00  0.00    +0.000 A 
ATOM     16  C   UNL     1       0.036  11.747  18.801  0.00  0.00    +0.000 A 
BRANCH  16  17
ATOM     17  S   UNL     1       1.549  12.451  19.429  0.00  0.00    +0.000 S 
ATOM     18  O   UNL     1       1.685  12.132  20.838  0.00  0.00    +0.000 OA
ATOM     19  O   UNL     1       2.609  12.288  18.473  0.00  0.00    +0.000 OA
BRANCH  17  20
ATOM     20  N   UNL     1       1.264  14.115  19.488  0.00  0.00    +0.000 NA
ATOM     21  H   UNL     1       1.767  14.488  20.290  0.00  0.00    +0.000 HD
ATOM     22  H   UNL     1       1.523  14.532  18.596  0.00  0.00    +0.000 HD
ENDBRANCH  17  20
ENDBRANCH  16  17
ENDBRANCH   8  11
ENDBRANCH   3   5
BRANCH   1  23
ATOM     23  C   UNL     1       3.779   3.593  20.359  0.00  0.00    +0.000 C 
BRANCH  23  30
ATOM     24  C   UNL     1       6.467   6.046  17.723  0.00  0.00    +0.000 A 
ATOM     25  C   UNL     1       5.682   6.279  16.578  0.00  0.00    +0.000 A 
ATOM     26  C   UNL     1       4.597   5.452  16.280  0.00  0.00    +0.000 A 
ATOM     27  C   UNL     1       4.322   4.396  17.126  0.00  0.00    +0.000 A 
ATOM     28  C   UNL     1       5.089   4.176  18.275  0.00  0.00    +0.000 A 
ATOM     29  C   UNL     1       6.182   4.972  18.577  0.00  0.00    +0.000 A 
ATOM     30  C   UNL     1       4.456   3.083  19.084  0.00  0.00    +0.000 C 
ATOM     31  C   UNL     1       3.460   2.507  18.041  0.00  0.00    +0.000 C 
ATOM     32  N   UNL     1       3.184   3.570  17.065  0.00  0.00    +0.000 N 
ATOM     33  H   UNL     1       2.949   3.271  16.122  0.00  0.00    +0.000 HD
BRANCH  24  35
ATOM     34  N   UNL     1       8.322   6.726  19.091  0.00  0.00    +0.000 NA
ATOM     35  C   UNL     1       7.576   6.977  18.066  0.00  0.00    +0.000 C 
ATOM     36  N   UNL     1       7.780   8.102  17.321  0.00  0.00    +0.000 N 
ATOM     37  H   UNL     1       9.056   7.433  19.163  0.00  0.00    +0.000 HD
ATOM     38  H   UNL     1       8.296   8.848  17.773  0.00  0.00    +0.000 HD
ATOM     39  H   UNL     1       6.969   8.459  16.823  0.00  0.00    +0.000 HD
ENDBRANCH  24  35
ENDBRANCH  23  30
ENDBRANCH   1  23
TORSDOF 7
ENDMDL
MODEL 4
REMARK VINA RESULT:      -8.7      4.055      9.604
REMARK  Name = 
REMARK  7 active torsions:
REMARK  status: ('A' for Active; 'I' for Inactive)
REMARK    1  A    between atoms: C_2  and  C_4
REMARK    2  A    between atoms: C_10  and  C_11
REMARK    3  A    between atoms: C_11  and  C_12
REMARK    4  A    between atoms: N_14  and  C_15
REMARK    5  A    between atoms: C_18  and  C_19
REMARK    6  A    between atoms: C_24  and  S_25
REMARK    7  A    between atoms: S_25  and  N_26
REMARK                            x       y       z     vdW  Elec       q    Type
REMARK                         _______ _______ _______ _____ _____    ______ ____
ROOT
ATOM      1  C   UNL     1       0.717   9.621  21.954  0.00  0.00    +0.000 C 
ATOM      2  O   UNL     1       1.842   9.947  22.329  0.00  0.00    +0.000 OA
ATOM      3  N   UNL     1       0.395   8.701  20.973  0.00  0.00    +0.000 N 
ATOM      4  H   UNL     1      -0.570   8.673  20.667  0.00  0.00    +0.000 HD
ENDROOT
BRANCH   3   5
ATOM      5  C   UNL     1       1.322   8.033  20.156  0.00  0.00    +0.000 A 
ATOM      6  C   UNL     1       1.672   8.490  18.895  0.00  0.00    +0.000 A 
ATOM      7  C   UNL     1       2.495   7.725  18.068  0.00  0.00    +0.000 A 
ATOM      8  C   UNL     1       3.061   6.508  18.488  0.00  0.00    +0.000 A 
ATOM      9  C   UNL     1       2.796   6.147  19.815  0.00  0.00    +0.000 A 
ATOM     10  C   UNL     1       1.904   6.864  20.626  0.00  0.00    +0.000 A 
BRANCH   8  11
ATOM     11  C   UNL     1       3.901   5.711  17.545  0.00  0.00    +0.000 A 
ATOM     12  C   UNL     1       4.844   6.424  16.751  0.00  0.00    +0.000 A 
ATOM     13  C   UNL     1       5.616   5.824  15.754  0.00  0.00    +0.000 A 
ATOM     14  C   UNL     1       5.511   4.464  15.535  0.00  0.00    +0.000 A 
ATOM     15  C   UNL     1       4.630   3.715  16.312  0.00  0.00    +0.000 A 
ATOM     16  C   UNL     1       3.820   4.316  17.302  0.00  0.00    +0.000 A 
BRANCH  16  17
ATOM     17  S   UNL     1       2.671   3.237  18.135  0.00  0.00    +0.000 S 
ATOM     18  O   UNL     1       3.071   3.079  19.521  0.00  0.00    +0.000 OA
ATOM     19  O   UNL     1       1.325   3.531  17.728  0.00  0.00    +0.000 OA
BRANCH  17  20
ATOM     20  N   UNL     1       2.989   1.698  17.516  0.00  0.00    +0.000 NA
ATOM     21  H   UNL     1       3.672   1.799  16.768  0.00  0.00    +0.000 HD
ATOM     22  H   UNL     1       3.282   1.085  18.275  0.00  0.00    +0.000 HD
ENDBRANCH  17  20
ENDBRANCH  16  17
ENDBRANCH   8  11
ENDBRANCH   3   5
BRANCH   1  23
ATOM     23  C   UNL     1      -0.490  10.282  22.581  0.00  0.00    +0.000 C 
BRANCH  23  30
ATOM     24  C   UNL     1      -4.178  12.778  23.187  0.00  0.00    +0.000 A 
ATOM     25  C   UNL     1      -4.648  12.995  21.878  0.00  0.00    +0.000 A 
ATOM     26  C   UNL     1      -3.791  12.860  20.784  0.00  0.00    +0.000 A 
ATOM     27  C   UNL     1      -2.472  12.523  21.018  0.00  0.00    +0.000 A 
ATOM     28  C   UNL     1      -2.009  12.288  22.317  0.00  0.00    +0.000 A 
ATOM     29  C   UNL     1      -2.838  12.436  23.417  0.00  0.00    +0.000 A 
ATOM     30  C   UNL     1      -0.602  11.772  22.249  0.00  0.00    +0.000 C 
ATOM     31  C   UNL     1      -0.255  12.106  20.773  0.00  0.00    +0.000 C 
ATOM     32  N   UNL     1      -1.522  12.193  20.033  0.00  0.00    +0.000 N 
ATOM     33  H   UNL     1      -1.537  12.815  19.229  0.00  0.00    +0.000 HD
BRANCH  24  35
ATOM     34  N   UNL     1      -4.770  12.360  25.479  0.00  0.00    +0.000 NA
ATOM     35  C   UNL     1      -5.119  12.856  24.338  0.00  0.00    +0.000 C 
ATOM     36  N   UNL     1      -6.352  13.418  24.176  0.00  0.00    +0.000 N 
ATOM     37  H   UNL     1      -5.506  12.531  26.167  0.00  0.00    +0.000 HD
ATOM     38  H   UNL     1      -7.055  13.152  24.854  0.00  0.00    +0.000 HD
ATOM     39  H   UNL     1      -6.723  13.411  23.231  0.00  0.00    +0.000 HD
ENDBRANCH  24  35
ENDBRANCH  23  30
ENDBRANCH   1  23
TORSDOF 7
ENDMDL
MODEL 5
REMARK VINA RESULT:      -8.6      2.343      4.364
REMARK  Name = 
REMARK  7 active torsions:
REMARK  status: ('A' for Active; 'I' for Inactive)
REMARK    1  A    between atoms: C_2  and  C_4
REMARK    2  A    between atoms: C_10  and  C_11
REMARK    3  A    between atoms: C_11  and  C_12
REMARK    4  A    between atoms: N_14  and  C_15
REMARK    5  A    between atoms: C_18  and  C_19
REMARK    6  A    between atoms: C_24  and  S_25
REMARK    7  A    between atoms: S_25  and  N_26
REMARK                            x       y       z     vdW  Elec       q    Type
REMARK                         _______ _______ _______ _____ _____    ______ ____
ROOT
ATOM      1  C   UNL     1       4.995   6.773  16.653  0.00  0.00    +0.000 C 
ATOM      2  O   UNL     1       5.848   7.422  17.256  0.00  0.00    +0.000 OA
ATOM      3  N   UNL     1       3.630   6.770  16.877  0.00  0.00    +0.000 N 
ATOM      4  H   UNL     1       3.088   6.054  16.409  0.00  0.00    +0.000 HD
ENDROOT
BRANCH   3   5
ATOM      5  C   UNL     1       2.982   7.456  17.917  0.00  0.00    +0.000 A 
ATOM      6  C   UNL     1       2.704   6.866  19.142  0.00  0.00    +0.000 A 
ATOM      7  C   UNL     1       1.941   7.541  20.095  0.00  0.00    +0.000 A 
ATOM      8  C   UNL     1       1.485   8.857  19.899  0.00  0.00    +0.000 A 
ATOM      9  C   UNL     1       1.901   9.469  18.710  0.00  0.00    +0.000 A 
ATOM     10  C   UNL     1       2.595   8.772  17.709  0.00  0.00    +0.000 A 
BRANCH   8  11
ATOM     11  C   UNL     1       0.638   9.516  20.938  0.00  0.00    +0.000 A 
ATOM     12  C   UNL     1       0.820   9.099  22.287  0.00  0.00    +0.000 A 
ATOM     13  C   UNL     1       0.025   9.549  23.343  0.00  0.00    +0.000 A 
ATOM     14  C   UNL     1      -0.969  10.477  23.102  0.00  0.00    +0.000 A 
ATOM     15  C   UNL     1      -1.163  10.946  21.803  0.00  0.00    +0.000 A 
ATOM     16  C   UNL     1      -0.386  10.474  20.722  0.00  0.00    +0.000 A 
BRANCH  16  17
ATOM     17  S   UNL     1      -0.828  11.094  19.110  0.00  0.00    +0.000 S 
ATOM     18  O   UNL     1       0.141  12.087  18.688  0.00  0.00    +0.000 OA
ATOM     19  O   UNL     1      -1.280  10.020  18.269  0.00  0.00    +0.000 OA
BRANCH  17  20
ATOM     20  N   UNL     1      -2.196  12.051  19.371  0.00  0.00    +0.000 NA
ATOM     21  H   UNL     1      -2.491  12.422  18.470  0.00  0.00    +0.000 HD
ATOM     22  H   UNL     1      -2.904  11.500  19.853  0.00  0.00    +0.000 HD
ENDBRANCH  17  20
ENDBRANCH  16  17
ENDBRANCH   8  11
ENDBRANCH   3   5
BRANCH   1  23
ATOM     23  C   UNL     1       5.426   5.838  15.545  0.00  0.00    +0.000 C 
BRANCH  23  30
ATOM     24  C   UNL     1       3.032   3.201  18.286  0.00  0.00    +0.000 A 
ATOM     25  C   UNL     1       3.716   3.293  19.513  0.00  0.00    +0.000 A 
ATOM     26  C   UNL     1       5.052   3.700  19.552  0.00  0.00    +0.000 A 
ATOM     27  C   UNL     1       5.686   3.996  18.361  0.00  0.00    +0.000 A 
ATOM     28  C   UNL     1       5.001   3.924  17.145  0.00  0.00    +0.000 A 
ATOM     29  C   UNL     1       3.682   3.503  17.082  0.00  0.00    +0.000 A 
ATOM     30  C   UNL     1       5.878   4.467  16.056  0.00  0.00    +0.000 C 
ATOM     31  C   UNL     1       7.244   4.500  16.792  0.00  0.00    +0.000 C 
ATOM     32  N   UNL     1       6.965   4.568  18.233  0.00  0.00    +0.000 N 
ATOM     33  H   UNL     1       7.659   4.155  18.851  0.00  0.00    +0.000 HD
BRANCH  24  35
ATOM     34  N   UNL     1       0.719   3.701  17.866  0.00  0.00    +0.000 NA
ATOM     35  C   UNL     1       1.590   2.834  18.265  0.00  0.00    +0.000 C 
ATOM     36  N   UNL     1       1.191   1.602  18.697  0.00  0.00    +0.000 N 
ATOM     37  H   UNL     1      -0.212   3.281  17.873  0.00  0.00    +0.000 HD
ATOM     38  H   UNL     1       0.221   1.522  18.980  0.00  0.00    +0.000 HD
ATOM     39  H   UNL     1       1.811   1.140  19.355  0.00  0.00    +0.000 HD
ENDBRANCH  24  35
ENDBRANCH  23  30
ENDBRANCH   1  23
TORSDOF 7
ENDMDL
MODEL 6
REMARK VINA RESULT:      -8.5      4.119      9.880
REMARK  Name = 
REMARK  7 active torsions:
REMARK  status: ('A' for Active; 'I' for Inactive)
REMARK    1  A    between atoms: C_2  and  C_4
REMARK    2  A    between atoms: C_10  and  C_11
REMARK    3  A    between atoms: C_11  and  C_12
REMARK    4  A    between atoms: N_14  and  C_15
REMARK    5  A    between atoms: C_18  and  C_19
REMARK    6  A    between atoms: C_24  and  S_25
REMARK    7  A    between atoms: S_25  and  N_26
REMARK                            x       y       z     vdW  Elec       q    Type
REMARK                         _______ _______ _______ _____ _____    ______ ____
ROOT
ATOM      1  C   UNL     1      -0.207  10.650  19.423  0.00  0.00    +0.000 C 
ATOM      2  O   UNL     1      -1.149  10.004  18.967  0.00  0.00    +0.000 OA
ATOM      3  N   UNL     1       1.105  10.234  19.564  0.00  0.00    +0.000 N 
ATOM      4  H   UNL     1       1.718  10.825  20.113  0.00  0.00    +0.000 HD
ENDROOT
BRANCH   3   5
ATOM      5  C   UNL     1       1.576   8.941  19.287  0.00  0.00    +0.000 A 
ATOM      6  C   UNL     1       1.999   8.553  18.025  0.00  0.00    +0.000 A 
ATOM      7  C   UNL     1       2.332   7.223  17.767  0.00  0.00    +0.000 A 
ATOM      8  C   UNL     1       2.327   6.239  18.771  0.00  0.00    +0.000 A 
ATOM      9  C   UNL     1       2.026   6.694  20.061  0.00  0.00    +0.000 A 
ATOM     10  C   UNL     1       1.609   8.009  20.316  0.00  0.00    +0.000 A 
BRANCH   8  11
ATOM     11  C   UNL     1       2.653   4.822  18.429  0.00  0.00    +0.000 A 
ATOM     12  C   UNL     1       1.568   3.902  18.359  0.00  0.00    +0.000 A 
ATOM     13  C   UNL     1       1.737   2.531  18.156  0.00  0.00    +0.000 A 
ATOM     14  C   UNL     1       3.006   2.019  17.969  0.00  0.00    +0.000 A 
ATOM     15  C   UNL     1       4.099   2.884  17.991  0.00  0.00    +0.000 A 
ATOM     16  C   UNL     1       3.944   4.269  18.227  0.00  0.00    +0.000 A 
BRANCH  16  17
ATOM     17  S   UNL     1       5.448   5.220  18.328  0.00  0.00    +0.000 S 
ATOM     18  O   UNL     1       5.512   6.148  17.214  0.00  0.00    +0.000 OA
ATOM     19  O   UNL     1       5.710   5.596  19.689  0.00  0.00    +0.000 OA
BRANCH  17  20
ATOM     20  N   UNL     1       6.679   4.133  17.929  0.00  0.00    +0.000 NA
ATOM     21  H   UNL     1       6.290   3.194  17.971  0.00  0.00    +0.000 HD
ATOM     22  H   UNL     1       7.072   4.388  17.026  0.00  0.00    +0.000 HD
ENDBRANCH  17  20
ENDBRANCH  16  17
ENDBRANCH   8  11
ENDBRANCH   3   5
BRANCH   1  23
ATOM     23  C   UNL     1      -0.451  12.056  19.924  0.00  0.00    +0.000 C 
BRANCH  23  30
ATOM     24  C   UNL     1      -2.602  13.581  23.563  0.00  0.00    +0.000 A 
ATOM     25  C   UNL     1      -2.163  14.914  23.672  0.00  0.00    +0.000 A 
ATOM     26  C   UNL     1      -0.977  15.323  23.058  0.00  0.00    +0.000 A 
ATOM     27  C   UNL     1      -0.242  14.388  22.356  0.00  0.00    +0.000 A 
ATOM     28  C   UNL     1      -0.688  13.069  22.231  0.00  0.00    +0.000 A 
ATOM     29  C   UNL     1      -1.851  12.637  22.849  0.00  0.00    +0.000 A 
ATOM     30  C   UNL     1       0.209  12.336  21.277  0.00  0.00    +0.000 C 
ATOM     31  C   UNL     1       1.396  13.333  21.194  0.00  0.00    +0.000 C 
ATOM     32  N   UNL     1       0.880  14.662  21.552  0.00  0.00    +0.000 N 
ATOM     33  H   UNL     1       1.540  15.305  21.980  0.00  0.00    +0.000 HD
BRANCH  24  35
ATOM     34  N   UNL     1      -4.119  11.931  24.431  0.00  0.00    +0.000 NA
ATOM     35  C   UNL     1      -3.903  13.176  24.162  0.00  0.00    +0.000 C 
ATOM     36  N   UNL     1      -4.870  14.111  24.395  0.00  0.00    +0.000 N 
ATOM     37  H   UNL     1      -5.035  11.828  24.872  0.00  0.00    +0.000 HD
ATOM     38  H   UNL     1      -5.817  13.761  24.474  0.00  0.00    +0.000 HD
ATOM     39  H   UNL     1      -4.828  14.947  23.818  0.00  0.00    +0.000 HD
ENDBRANCH  24  35
ENDBRANCH  23  30
ENDBRANCH   1  23
TORSDOF 7
ENDMDL
MODEL 7
REMARK VINA RESULT:      -8.5      3.985      9.472
REMARK  Name = 
REMARK  7 active torsions:
REMARK  status: ('A' for Active; 'I' for Inactive)
REMARK    1  A    between atoms: C_2  and  C_4
REMARK    2  A    between atoms: C_10  and  C_11
REMARK    3  A    between atoms: C_11  and  C_12
REMARK    4  A    between atoms: N_14  and  C_15
REMARK    5  A    between atoms: C_18  and  C_19
REMARK    6  A    between atoms: C_24  and  S_25
REMARK    7  A    between atoms: S_25  and  N_26
REMARK                            x       y       z     vdW  Elec       q    Type
REMARK                         _______ _______ _______ _____ _____    ______ ____
ROOT
ATOM      1  C   UNL     1       0.646   9.463  22.167  0.00  0.00    +0.000 C 
ATOM      2  O   UNL     1       1.742   9.599  22.708  0.00  0.00    +0.000 OA
ATOM      3  N   UNL     1       0.359   8.736  21.025  0.00  0.00    +0.000 N 
ATOM      4  H   UNL     1      -0.559   8.865  20.615  0.00  0.00    +0.000 HD
ENDROOT
BRANCH   3   5
ATOM      5  C   UNL     1       1.310   8.088  20.220  0.00  0.00    +0.000 A 
ATOM      6  C   UNL     1       1.693   8.573  18.978  0.00  0.00    +0.000 A 
ATOM      7  C   UNL     1       2.540   7.827  18.158  0.00  0.00    +0.000 A 
ATOM      8  C   UNL     1       3.098   6.604  18.568  0.00  0.00    +0.000 A 
ATOM      9  C   UNL     1       2.799   6.214  19.879  0.00  0.00    +0.000 A 
ATOM     10  C   UNL     1       1.883   6.911  20.681  0.00  0.00    +0.000 A 
BRANCH   8  11
ATOM     11  C   UNL     1       3.967   5.829  17.632  0.00  0.00    +0.000 A 
ATOM     12  C   UNL     1       5.026   6.533  16.992  0.00  0.00    +0.000 A 
ATOM     13  C   UNL     1       5.845   5.964  16.015  0.00  0.00    +0.000 A 
ATOM     14  C   UNL     1       5.668   4.640  15.662  0.00  0.00    +0.000 A 
ATOM     15  C   UNL     1       4.669   3.897  16.287  0.00  0.00    +0.000 A 
ATOM     16  C   UNL     1       3.813   4.470  17.254  0.00  0.00    +0.000 A 
BRANCH  16  17
ATOM     17  S   UNL     1       2.520   3.415  17.880  0.00  0.00    +0.000 S 
ATOM     18  O   UNL     1       2.419   2.227  17.054  0.00  0.00    +0.000 OA
ATOM     19  O   UNL     1       2.554   3.382  19.316  0.00  0.00    +0.000 OA
BRANCH  17  20
ATOM     20  N   UNL     1       1.081   4.213  17.495  0.00  0.00    +0.000 NA
ATOM     21  H   UNL     1       0.670   4.548  18.364  0.00  0.00    +0.000 HD
ATOM     22  H   UNL     1       1.274   4.942  16.811  0.00  0.00    +0.000 HD
ENDBRANCH  17  20
ENDBRANCH  16  17
ENDBRANCH   8  11
ENDBRANCH   3   5
BRANCH   1  23
ATOM     23  C   UNL     1      -0.559  10.163  22.754  0.00  0.00    +0.000 C 
BRANCH  23  30
ATOM     24  C   UNL     1      -4.212  12.776  22.918  0.00  0.00    +0.000 A 
ATOM     25  C   UNL     1      -4.467  13.072  21.566  0.00  0.00    +0.000 A 
ATOM     26  C   UNL     1      -3.456  12.953  20.610  0.00  0.00    +0.000 A 
ATOM     27  C   UNL     1      -2.201  12.553  21.025  0.00  0.00    +0.000 A 
ATOM     28  C   UNL     1      -1.953  12.239  22.365  0.00  0.00    +0.000 A 
ATOM     29  C   UNL     1      -2.936  12.370  23.332  0.00  0.00    +0.000 A 
ATOM     30  C   UNL     1      -0.570  11.671  22.486  0.00  0.00    +0.000 C 
ATOM     31  C   UNL     1       0.012  12.059  21.100  0.00  0.00    +0.000 C 
ATOM     32  N   UNL     1      -1.122  12.231  20.181  0.00  0.00    +0.000 N 
ATOM     33  H   UNL     1      -0.992  12.889  19.417  0.00  0.00    +0.000 HD
BRANCH  24  35
ATOM     34  N   UNL     1      -6.342  13.589  23.679  0.00  0.00    +0.000 NA
ATOM     35  C   UNL     1      -5.317  12.838  23.914  0.00  0.00    +0.000 C 
ATOM     36  N   UNL     1      -5.229  12.133  25.079  0.00  0.00    +0.000 N 
ATOM     37  H   UNL     1      -7.022  13.487  24.435  0.00  0.00    +0.000 HD
ATOM     38  H   UNL     1      -5.809  12.459  25.842  0.00  0.00    +0.000 HD
ATOM     39  H   UNL     1      -4.289  11.910  25.394  0.00  0.00    +0.000 HD
ENDBRANCH  24  35
ENDBRANCH  23  30
ENDBRANCH   1  23
TORSDOF 7
ENDMDL
MODEL 8
REMARK VINA RESULT:      -8.3      3.379      9.666
REMARK  Name = 
REMARK  7 active torsions:
REMARK  status: ('A' for Active; 'I' for Inactive)
REMARK    1  A    between atoms: C_2  and  C_4
REMARK    2  A    between atoms: C_10  and  C_11
REMARK    3  A    between atoms: C_11  and  C_12
REMARK    4  A    between atoms: N_14  and  C_15
REMARK    5  A    between atoms: C_18  and  C_19
REMARK    6  A    between atoms: C_24  and  S_25
REMARK    7  A    between atoms: S_25  and  N_26
REMARK                            x       y       z     vdW  Elec       q    Type
REMARK                         _______ _______ _______ _____ _____    ______ ____
ROOT
ATOM      1  C   UNL     1      -0.604  10.310  19.832  0.00  0.00    +0.000 C 
ATOM      2  O   UNL     1      -1.417   9.662  19.176  0.00  0.00    +0.000 OA
ATOM      3  N   UNL     1       0.760  10.095  19.926  0.00  0.00    +0.000 N 
ATOM      4  H   UNL     1       1.259  10.612  20.641  0.00  0.00    +0.000 HD
ENDROOT
BRANCH   3   5
ATOM      5  C   UNL     1       1.449   9.018  19.347  0.00  0.00    +0.000 A 
ATOM      6  C   UNL     1       1.838   7.902  20.072  0.00  0.00    +0.000 A 
ATOM      7  C   UNL     1       2.635   6.919  19.486  0.00  0.00    +0.000 A 
ATOM      8  C   UNL     1       3.019   6.970  18.134  0.00  0.00    +0.000 A 
ATOM      9  C   UNL     1       2.495   8.040  17.398  0.00  0.00    +0.000 A 
ATOM     10  C   UNL     1       1.763   9.077  17.996  0.00  0.00    +0.000 A 
BRANCH   8  11
ATOM     11  C   UNL     1       3.908   5.910  17.570  0.00  0.00    +0.000 A 
ATOM     12  C   UNL     1       5.155   6.328  17.026  0.00  0.00    +0.000 A 
ATOM     13  C   UNL     1       6.034   5.463  16.371  0.00  0.00    +0.000 A 
ATOM     14  C   UNL     1       5.723   4.121  16.268  0.00  0.00    +0.000 A 
ATOM     15  C   UNL     1       4.530   3.655  16.819  0.00  0.00    +0.000 A 
ATOM     16  C   UNL     1       3.618   4.526  17.455  0.00  0.00    +0.000 A 
BRANCH  16  17
ATOM     17  S   UNL     1       2.092   3.791  18.012  0.00  0.00    +0.000 S 
ATOM     18  O   UNL     1       2.102   3.687  19.459  0.00  0.00    +0.000 OA
ATOM     19  O   UNL     1       0.983   4.315  17.263  0.00  0.00    +0.000 OA
BRANCH  17  20
ATOM     20  N   UNL     1       2.198   2.167  17.558  0.00  0.00    +0.000 NA
ATOM     21  H   UNL     1       2.278   1.612  18.407  0.00  0.00    +0.000 HD
ATOM     22  H   UNL     1       1.400   1.930  16.972  0.00  0.00    +0.000 HD
ENDBRANCH  17  20
ENDBRANCH  16  17
ENDBRANCH   8  11
ENDBRANCH   3   5
BRANCH   1  23
ATOM     23  C   UNL     1      -1.090  11.472  20.669  0.00  0.00    +0.000 C 
BRANCH  23  30
ATOM     24  C   UNL     1      -5.492  12.229  20.180  0.00  0.00    +0.000 A 
ATOM     25  C   UNL     1      -5.751  11.830  18.855  0.00  0.00    +0.000 A 
ATOM     26  C   UNL     1      -4.714  11.754  17.921  0.00  0.00    +0.000 A 
ATOM     27  C   UNL     1      -3.438  12.093  18.325  0.00  0.00    +0.000 A 
ATOM     28  C   UNL     1      -3.178  12.470  19.647  0.00  0.00    +0.000 A 
ATOM     29  C   UNL     1      -4.194  12.571  20.583  0.00  0.00    +0.000 A 
ATOM     30  C   UNL     1      -1.696  12.604  19.835  0.00  0.00    +0.000 C 
ATOM     31  C   UNL     1      -1.227  12.602  18.355  0.00  0.00    +0.000 C 
ATOM     32  N   UNL     1      -2.265  11.922  17.567  0.00  0.00    +0.000 N 
ATOM     33  H   UNL     1      -2.362  12.212  16.597  0.00  0.00    +0.000 HD
BRANCH  24  35
ATOM     34  N   UNL     1      -6.843  13.317  21.844  0.00  0.00    +0.000 NA
ATOM     35  C   UNL     1      -6.593  12.236  21.182  0.00  0.00    +0.000 C 
ATOM     36  N   UNL     1      -7.310  11.099  21.420  0.00  0.00    +0.000 N 
ATOM     37  H   UNL     1      -7.648  13.168  22.455  0.00  0.00    +0.000 HD
ATOM     38  H   UNL     1      -7.792  11.055  22.310  0.00  0.00    +0.000 HD
ATOM     39  H   UNL     1      -6.839  10.224  21.206  0.00  0.00    +0.000 HD
ENDBRANCH  24  35
ENDBRANCH  23  30
ENDBRANCH   1  23
TORSDOF 7
ENDMDL
MODEL 9
REMARK VINA RESULT:      -8.3      2.099      2.525
REMARK  Name = 
REMARK  7 active torsions:
REMARK  status: ('A' for Active; 'I' for Inactive)
REMARK    1  A    between atoms: C_2  and  C_4
REMARK    2  A    between atoms: C_10  and  C_11
REMARK    3  A    between atoms: C_11  and  C_12
REMARK    4  A    between atoms: N_14  and  C_15
REMARK    5  A    between atoms: C_18  and  C_19
REMARK    6  A    between atoms: C_24  and  S_25
REMARK    7  A    between atoms: S_25  and  N_26
REMARK                            x       y       z     vdW  Elec       q    Type
REMARK                         _______ _______ _______ _____ _____    ______ ____
ROOT
ATOM      1  C   UNL     1       2.156   4.367  20.235  0.00  0.00    +0.000 C 
ATOM      2  O   UNL     1       1.017   4.096  19.857  0.00  0.00    +0.000 OA
ATOM      3  N   UNL     1       2.678   5.623  20.489  0.00  0.00    +0.000 N 
ATOM      4  H   UNL     1       3.680   5.686  20.627  0.00  0.00    +0.000 HD
ENDROOT
BRANCH   3   5
ATOM      5  C   UNL     1       2.007   6.837  20.265  0.00  0.00    +0.000 A 
ATOM      6  C   UNL     1       1.108   7.372  21.175  0.00  0.00    +0.000 A 
ATOM      7  C   UNL     1       0.367   8.509  20.852  0.00  0.00    +0.000 A 
ATOM      8  C   UNL     1       0.542   9.201  19.640  0.00  0.00    +0.000 A 
ATOM      9  C   UNL     1       1.554   8.711  18.806  0.00  0.00    +0.000 A 
ATOM     10  C   UNL     1       2.246   7.522  19.082  0.00  0.00    +0.000 A 
BRANCH   8  11
ATOM     11  C   UNL     1      -0.309  10.390  19.330  0.00  0.00    +0.000 A 
ATOM     12  C   UNL     1      -1.084  10.342  18.137  0.00  0.00    +0.000 A 
ATOM     13  C   UNL     1      -1.838  11.420  17.669  0.00  0.00    +0.000 A 
ATOM     14  C   UNL     1      -1.886  12.590  18.403  0.00  0.00    +0.000 A 
ATOM     15  C   UNL     1      -1.175  12.673  19.598  0.00  0.00    +0.000 A 
ATOM     16  C   UNL     1      -0.383  11.600  20.066  0.00  0.00    +0.000 A 
BRANCH  16  17
ATOM     17  S   UNL     1       0.547  11.904  21.556  0.00  0.00    +0.000 S 
ATOM     18  O   UNL     1      -0.054  11.179  22.660  0.00  0.00    +0.000 OA
ATOM     19  O   UNL     1       1.956  11.896  21.276  0.00  0.00    +0.000 OA
BRANCH  17  20
ATOM     20  N   UNL     1       0.193  13.503  21.973  0.00  0.00    +0.000 NA
ATOM     21  H   UNL     1       0.299  14.072  21.137  0.00  0.00    +0.000 HD
ATOM     22  H   UNL     1      -0.732  13.542  22.397  0.00  0.00    +0.000 HD
ENDBRANCH  17  20
ENDBRANCH  16  17
ENDBRANCH   8  11
ENDBRANCH   3   5
BRANCH   1  23
ATOM     23  C   UNL     1       3.152   3.248  20.441  0.00  0.00    +0.000 C 
BRANCH  23  30
ATOM     24  C   UNL     1       6.422   5.490  18.325  0.00  0.00    +0.000 A 
ATOM     25  C   UNL     1       5.780   6.011  17.185  0.00  0.00    +0.000 A 
ATOM     26  C   UNL     1       4.593   5.443  16.717  0.00  0.00    +0.000 A 
ATOM     27  C   UNL     1       4.074   4.354  17.388  0.00  0.00    +0.000 A 
ATOM     28  C   UNL     1       4.700   3.849  18.532  0.00  0.00    +0.000 A 
ATOM     29  C   UNL     1       5.889   4.384  19.002  0.00  0.00    +0.000 A 
ATOM     30  C   UNL     1       3.826   2.794  19.144  0.00  0.00    +0.000 C 
ATOM     31  C   UNL     1       2.828   2.552  17.979  0.00  0.00    +0.000 C 
ATOM     32  N   UNL     1       2.817   3.766  17.150  0.00  0.00    +0.000 N 
ATOM     33  H   UNL     1       2.607   3.641  16.164  0.00  0.00    +0.000 HD
BRANCH  24  35
ATOM     34  N   UNL     1       8.065   7.243  18.312  0.00  0.00    +0.000 NA
ATOM     35  C   UNL     1       7.647   6.148  18.855  0.00  0.00    +0.000 C 
ATOM     36  N   UNL     1       8.339   5.578  19.884  0.00  0.00    +0.000 N 
ATOM     37  H   UNL     1       8.886   7.585  18.815  0.00  0.00    +0.000 HD
ATOM     38  H   UNL     1       9.308   5.859  19.979  0.00  0.00    +0.000 HD
ATOM     39  H   UNL     1       8.229   4.574  19.992  0.00  0.00    +0.000 HD
ENDBRANCH  24  35
ENDBRANCH  23  30
ENDBRANCH   1  23
TORSDOF 7
ENDMDL
