MODEL 1
REMARK VINA RESULT:      -7.5      0.000      0.000
REMARK  Name = 
REMARK  8 active torsions:
REMARK  status: ('A' for Active; 'I' for Inactive)
REMARK    1  A    between atoms: C_1  and  O_2
REMARK    2  A    between atoms: O_2  and  C_3
REMARK    3  A    between atoms: C_8  and  O_9
REMARK    4  A    between atoms: O_9  and  C_10
REMARK    5  A    between atoms: C_12  and  C_13
REMARK    6  A    between atoms: C_13  and  C_14
REMARK    7  A    between atoms: C_14  and  C_15
REMARK    8  A    between atoms: C_15  and  N_16
REMARK                            x       y       z     vdW  Elec       q    Type
REMARK                         _______ _______ _______ _____ _____    ______ ____
ROOT
ATOM      1  C   UNL     1      -3.519  11.089  17.396  0.00  0.00    +0.000 A 
ATOM      2  C   UNL     1      -3.029  11.661  18.576  0.00  0.00    +0.000 A 
ATOM      3  C   UNL     1      -1.768  11.296  19.018  0.00  0.00    +0.000 A 
ATOM      4  C   UNL     1      -0.980  10.391  18.358  0.00  0.00    +0.000 A 
ATOM      5  C   UNL     1      -1.448   9.802  17.195  0.00  0.00    +0.000 A 
ATOM      6  C   UNL     1      -2.727  10.138  16.706  0.00  0.00    +0.000 A 
ATOM      7  C   UNL     1       0.227  10.286  19.142  0.00  0.00    +0.000 C 
ATOM      8  C   UNL     1       1.326   9.548  18.945  0.00  0.00    +0.000 C 
ATOM      9  O   UNL     1       0.137  11.131  20.264  0.00  0.00    +0.000 OA
ATOM     10  C   UNL     1      -1.076  11.765  20.208  0.00  0.00    +0.000 C 
ATOM     11  O   UNL     1      -1.511  12.579  21.004  0.00  0.00    +0.000 OA
ENDROOT
BRANCH   1  13
ATOM     12  C   UNL     1      -5.611  12.144  17.780  0.00  0.00    +0.000 C 
ATOM     13  O   UNL     1      -4.765  11.392  16.915  0.00  0.00    +0.000 OA
ENDBRANCH   1  13
BRANCH   6  14
ATOM     14  O   UNL     1      -3.020   9.454  15.556  0.00  0.00    +0.000 OA
ATOM     15  C   UNL     1      -3.027  10.147  14.319  0.00  0.00    +0.000 C 
ENDBRANCH   6  14
BRANCH   8  16
ATOM     16  C   UNL     1       1.578   8.624  17.790  0.00  0.00    +0.000 C 
BRANCH  16  17
ATOM     17  C   UNL     1       2.625   7.565  18.136  0.00  0.00    +0.000 C 
BRANCH  17  18
ATOM     18  C   UNL     1       2.382   6.925  19.509  0.00  0.00    +0.000 C 
BRANCH  18  19
ATOM     19  N   UNL     1       2.308   5.454  19.490  0.00  0.00    +0.000 NA
ATOM     20  C   UNL     1       1.321   4.940  20.454  0.00  0.00    +0.000 C 
ATOM     21  C   UNL     1       1.272   3.412  20.448  0.00  0.00    +0.000 C 
ATOM     22  C   UNL     1       0.978   2.877  19.054  0.00  0.00    +0.000 C 
ATOM     23  C   UNL     1       1.969   3.456  18.052  0.00  0.00    +0.000 C 
ATOM     24  C   UNL     1       2.006   4.982  18.128  0.00  0.00    +0.000 C 
ENDBRANCH  18  19
ENDBRANCH  17  18
ENDBRANCH  16  17
ENDBRANCH   8  16
TORSDOF 6
ENDMDL
MODEL 2
REMARK VINA RESULT:      -7.3      5.010      8.897
REMARK  Name = 
REMARK  8 active torsions:
REMARK  status: ('A' for Active; 'I' for Inactive)
REMARK    1  A    between atoms: C_1  and  O_2
REMARK    2  A    between atoms: O_2  and  C_3
REMARK    3  A    between atoms: C_8  and  O_9
REMARK    4  A    between atoms: O_9  and  C_10
REMARK    5  A    between atoms: C_12  and  C_13
REMARK    6  A    between atoms: C_13  and  C_14
REMARK    7  A    between atoms: C_14  and  C_15
REMARK    8  A    between atoms: C_15  and  N_16
REMARK                            x       y       z     vdW  Elec       q    Type
REMARK                         _______ _______ _______ _____ _____    ______ ____
ROOT
ATOM      1  C   UNL     1       5.598   4.726  16.382  0.00  0.00    +0.000 A 
ATOM      2  C   UNL     1       4.753   3.675  16.759  0.00  0.00    +0.000 A 
ATOM      3  C   UNL     1       3.761   3.922  17.693  0.00  0.00    +0.000 A 
ATOM      4  C   UNL     1       3.573   5.148  18.275  0.00  0.00    +0.000 A 
ATOM      5  C   UNL     1       4.405   6.200  17.927  0.00  0.00    +0.000 A 
ATOM      6  C   UNL     1       5.432   5.998  16.983  0.00  0.00    +0.000 A 
ATOM      7  C   UNL     1       2.464   4.979  19.183  0.00  0.00    +0.000 C 
ATOM      8  C   UNL     1       1.868   5.860  19.995  0.00  0.00    +0.000 C 
ATOM      9  O   UNL     1       2.009   3.648  19.131  0.00  0.00    +0.000 OA
ATOM     10  C   UNL     1       2.786   2.981  18.220  0.00  0.00    +0.000 C 
ATOM     11  O   UNL     1       2.688   1.810  17.899  0.00  0.00    +0.000 OA
ENDROOT
BRANCH   1  13
ATOM     12  C   UNL     1       6.219   4.237  14.143  0.00  0.00    +0.000 C 
ATOM     13  O   UNL     1       6.611   4.544  15.478  0.00  0.00    +0.000 OA
ENDBRANCH   1  13
BRANCH   6  14
ATOM     14  O   UNL     1       6.152   7.145  16.773  0.00  0.00    +0.000 OA
ATOM     15  C   UNL     1       7.375   7.334  17.465  0.00  0.00    +0.000 C 
ENDBRANCH   6  14
BRANCH   8  16
ATOM     16  C   UNL     1       2.223   7.311  20.141  0.00  0.00    +0.000 C 
BRANCH  16  17
ATOM     17  C   UNL     1       1.067   8.113  20.742  0.00  0.00    +0.000 C 
BRANCH  17  18
ATOM     18  C   UNL     1       1.482   8.888  22.000  0.00  0.00    +0.000 C 
BRANCH  18  19
ATOM     19  N   UNL     1       0.746  10.147  22.209  0.00  0.00    +0.000 NA
ATOM     20  C   UNL     1       0.559  10.891  20.953  0.00  0.00    +0.000 C 
ATOM     21  C   UNL     1      -0.180  12.209  21.184  0.00  0.00    +0.000 C 
ATOM     22  C   UNL     1      -1.520  11.975  21.865  0.00  0.00    +0.000 C 
ATOM     23  C   UNL     1      -1.327  11.158  23.136  0.00  0.00    +0.000 C 
ATOM     24  C   UNL     1      -0.550   9.872  22.854  0.00  0.00    +0.000 C 
ENDBRANCH  18  19
ENDBRANCH  17  18
ENDBRANCH  16  17
ENDBRANCH   8  16
TORSDOF 6
ENDMDL
MODEL 3
REMARK VINA RESULT:      -7.3      4.639      8.913
REMARK  Name = 
REMARK  8 active torsions:
REMARK  status: ('A' for Active; 'I' for Inactive)
REMARK    1  A    between atoms: C_1  and  O_2
REMARK    2  A    between atoms: O_2  and  C_3
REMARK    3  A    between atoms: C_8  and  O_9
REMARK    4  A    between atoms: O_9  and  C_10
REMARK    5  A    between atoms: C_12  and  C_13
REMARK    6  A    between atoms: C_13  and  C_14
REMARK    7  A    between atoms: C_14  and  C_15
REMARK    8  A    between atoms: C_15  and  N_16
REMARK                            x       y       z     vdW  Elec       q    Type
REMARK                         _______ _______ _______ _____ _____    ______ ____
ROOT
ATOM      1  C   UNL     1       6.271   4.967  16.224  0.00  0.00    +0.000 A 
ATOM      2  C   UNL     1       5.350   3.945  16.483  0.00  0.00    +0.000 A 
ATOM      3  C   UNL     1       4.201   4.250  17.192  0.00  0.00    +0.000 A 
ATOM      4  C   UNL     1       3.927   5.507  17.663  0.00  0.00    +0.000 A 
ATOM      5  C   UNL     1       4.829   6.532  17.430  0.00  0.00    +0.000 A 
ATOM      6  C   UNL     1       6.016   6.270  16.715  0.00  0.00    +0.000 A 
ATOM      7  C   UNL     1       2.660   5.396  18.346  0.00  0.00    +0.000 C 
ATOM      8  C   UNL     1       1.935   6.325  18.980  0.00  0.00    +0.000 C 
ATOM      9  O   UNL     1       2.198   4.068  18.274  0.00  0.00    +0.000 OA
ATOM     10  C   UNL     1       3.125   3.347  17.567  0.00  0.00    +0.000 C 
ATOM     11  O   UNL     1       3.069   2.161  17.293  0.00  0.00    +0.000 OA
ENDROOT
BRANCH   1  13
ATOM     12  C   UNL     1       7.386   4.886  14.129  0.00  0.00    +0.000 C 
ATOM     13  O   UNL     1       7.436   4.728  15.544  0.00  0.00    +0.000 OA
ENDBRANCH   1  13
BRANCH   6  14
ATOM     14  O   UNL     1       6.784   7.398  16.590  0.00  0.00    +0.000 OA
ATOM     15  C   UNL     1       7.718   7.719  17.608  0.00  0.00    +0.000 C 
ENDBRANCH   6  14
BRANCH   8  16
ATOM     16  C   UNL     1       2.281   7.778  19.118  0.00  0.00    +0.000 C 
BRANCH  16  17
ATOM     17  C   UNL     1       1.770   8.593  17.929  0.00  0.00    +0.000 C 
BRANCH  17  18
ATOM     18  C   UNL     1       1.423  10.038  18.312  0.00  0.00    +0.000 C 
BRANCH  18  19
ATOM     19  N   UNL     1       0.022  10.240  18.718  0.00  0.00    +0.000 NA
ATOM     20  C   UNL     1      -0.199  11.581  19.285  0.00  0.00    +0.000 C 
ATOM     21  C   UNL     1      -1.649  11.771  19.730  0.00  0.00    +0.000 C 
ATOM     22  C   UNL     1      -2.614  11.516  18.582  0.00  0.00    +0.000 C 
ATOM     23  C   UNL     1      -2.345  10.150  17.965  0.00  0.00    +0.000 C 
ATOM     24  C   UNL     1      -0.874   9.999  17.574  0.00  0.00    +0.000 C 
ENDBRANCH  18  19
ENDBRANCH  17  18
ENDBRANCH  16  17
ENDBRANCH   8  16
TORSDOF 6
ENDMDL
MODEL 4
REMARK VINA RESULT:      -7.3      6.963     10.342
REMARK  Name = 
REMARK  8 active torsions:
REMARK  status: ('A' for Active; 'I' for Inactive)
REMARK    1  A    between atoms: C_1  and  O_2
REMARK    2  A    between atoms: O_2  and  C_3
REMARK    3  A    between atoms: C_8  and  O_9
REMARK    4  A    between atoms: O_9  and  C_10
REMARK    5  A    between atoms: C_12  and  C_13
REMARK    6  A    between atoms: C_13  and  C_14
REMARK    7  A    between atoms: C_14  and  C_15
REMARK    8  A    between atoms: C_15  and  N_16
REMARK                            x       y       z     vdW  Elec       q    Type
REMARK                         _______ _______ _______ _____ _____    ______ ____
ROOT
ATOM      1  C   UNL     1       3.816   3.897  17.844  0.00  0.00    +0.000 A 
ATOM      2  C   UNL     1       4.566   3.715  16.676  0.00  0.00    +0.000 A 
ATOM      3  C   UNL     1       5.598   4.597  16.404  0.00  0.00    +0.000 A 
ATOM      4  C   UNL     1       5.914   5.650  17.222  0.00  0.00    +0.000 A 
ATOM      5  C   UNL     1       5.178   5.858  18.377  0.00  0.00    +0.000 A 
ATOM      6  C   UNL     1       4.115   4.989  18.696  0.00  0.00    +0.000 A 
ATOM      7  C   UNL     1       7.022   6.318  16.582  0.00  0.00    +0.000 C 
ATOM      8  C   UNL     1       7.717   7.397  16.960  0.00  0.00    +0.000 C 
ATOM      9  O   UNL     1       7.349   5.651  15.386  0.00  0.00    +0.000 OA
ATOM     10  C   UNL     1       6.492   4.590  15.257  0.00  0.00    +0.000 C 
ATOM     11  O   UNL     1       6.471   3.777  14.350  0.00  0.00    +0.000 OA
ENDROOT
BRANCH   1  13
ATOM     12  C   UNL     1       3.110   1.745  18.555  0.00  0.00    +0.000 C 
ATOM     13  O   UNL     1       2.770   3.071  18.162  0.00  0.00    +0.000 OA
ENDBRANCH   1  13
BRANCH   6  14
ATOM     14  O   UNL     1       3.502   5.354  19.866  0.00  0.00    +0.000 OA
ATOM     15  C   UNL     1       2.290   6.089  19.814  0.00  0.00    +0.000 C 
ENDBRANCH   6  14
BRANCH   8  16
ATOM     16  C   UNL     1       7.504   8.194  18.213  0.00  0.00    +0.000 C 
BRANCH  16  17
ATOM     17  C   UNL     1       8.739   9.024  18.567  0.00  0.00    +0.000 C 
BRANCH  17  18
ATOM     18  C   UNL     1       8.710  10.421  17.932  0.00  0.00    +0.000 C 
BRANCH  18  19
ATOM     19  N   UNL     1       9.618  11.395  18.562  0.00  0.00    +0.000 NA
ATOM     20  C   UNL     1       9.987  10.999  19.931  0.00  0.00    +0.000 C 
ATOM     21  C   UNL     1      10.905  12.030  20.586  0.00  0.00    +0.000 C 
ATOM     22  C   UNL     1      12.154  12.263  19.750  0.00  0.00    +0.000 C 
ATOM     23  C   UNL     1      11.768  12.619  18.320  0.00  0.00    +0.000 C 
ATOM     24  C   UNL     1      10.818  11.577  17.728  0.00  0.00    +0.000 C 
ENDBRANCH  18  19
ENDBRANCH  17  18
ENDBRANCH  16  17
ENDBRANCH   8  16
TORSDOF 6
ENDMDL
MODEL 5
REMARK VINA RESULT:      -7.2      0.498      1.108
REMARK  Name = 
REMARK  8 active torsions:
REMARK  status: ('A' for Active; 'I' for Inactive)
REMARK    1  A    between atoms: C_1  and  O_2
REMARK    2  A    between atoms: O_2  and  C_3
REMARK    3  A    between atoms: C_8  and  O_9
REMARK    4  A    between atoms: O_9  and  C_10
REMARK    5  A    between atoms: C_12  and  C_13
REMARK    6  A    between atoms: C_13  and  C_14
REMARK    7  A    between atoms: C_14  and  C_15
REMARK    8  A    between atoms: C_15  and  N_16
REMARK                            x       y       z     vdW  Elec       q    Type
REMARK                         _______ _______ _______ _____ _____    ______ ____
ROOT
ATOM      1  C   UNL     1      -3.348  11.287  17.766  0.00  0.00    +0.000 A 
ATOM      2  C   UNL     1      -2.741  11.832  18.904  0.00  0.00    +0.000 A 
ATOM      3  C   UNL     1      -1.474  11.395  19.254  0.00  0.00    +0.000 A 
ATOM      4  C   UNL     1      -0.789  10.445  18.544  0.00  0.00    +0.000 A 
ATOM      5  C   UNL     1      -1.375   9.883  17.421  0.00  0.00    +0.000 A 
ATOM      6  C   UNL     1      -2.665  10.291  17.026  0.00  0.00    +0.000 A 
ATOM      7  C   UNL     1       0.464  10.271  19.238  0.00  0.00    +0.000 C 
ATOM      8  C   UNL     1       1.500   9.471  18.966  0.00  0.00    +0.000 C 
ATOM      9  O   UNL     1       0.505  11.122  20.359  0.00  0.00    +0.000 OA
ATOM     10  C   UNL     1      -0.671  11.825  20.388  0.00  0.00    +0.000 C 
ATOM     11  O   UNL     1      -0.998  12.664  21.209  0.00  0.00    +0.000 OA
ENDROOT
BRANCH   1  13
ATOM     12  C   UNL     1      -5.523  11.981  18.418  0.00  0.00    +0.000 C 
ATOM     13  O   UNL     1      -4.607  11.661  17.375  0.00  0.00    +0.000 OA
ENDBRANCH   1  13
BRANCH   6  14
ATOM     14  O   UNL     1      -3.080   9.623  15.903  0.00  0.00    +0.000 OA
ATOM     15  C   UNL     1      -2.970  10.255  14.639  0.00  0.00    +0.000 C 
ENDBRANCH   6  14
BRANCH   8  16
ATOM     16  C   UNL     1       1.613   8.532  17.800  0.00  0.00    +0.000 C 
BRANCH  16  17
ATOM     17  C   UNL     1       2.954   7.796  17.800  0.00  0.00    +0.000 C 
BRANCH  17  18
ATOM     18  C   UNL     1       3.098   6.838  18.990  0.00  0.00    +0.000 C 
BRANCH  18  19
ATOM     19  N   UNL     1       2.118   5.738  19.009  0.00  0.00    +0.000 NA
ATOM     20  C   UNL     1       2.447   4.692  18.027  0.00  0.00    +0.000 C 
ATOM     21  C   UNL     1       1.410   3.570  18.033  0.00  0.00    +0.000 C 
ATOM     22  C   UNL     1       1.262   2.965  19.421  0.00  0.00    +0.000 C 
ATOM     23  C   UNL     1       0.975   4.060  20.441  0.00  0.00    +0.000 C 
ATOM     24  C   UNL     1       2.020   5.174  20.365  0.00  0.00    +0.000 C 
ENDBRANCH  18  19
ENDBRANCH  17  18
ENDBRANCH  16  17
ENDBRANCH   8  16
TORSDOF 6
ENDMDL
MODEL 6
REMARK VINA RESULT:      -7.2      4.629      8.885
REMARK  Name = 
REMARK  8 active torsions:
REMARK  status: ('A' for Active; 'I' for Inactive)
REMARK    1  A    between atoms: C_1  and  O_2
REMARK    2  A    between atoms: O_2  and  C_3
REMARK    3  A    between atoms: C_8  and  O_9
REMARK    4  A    between atoms: O_9  and  C_10
REMARK    5  A    between atoms: C_12  and  C_13
REMARK    6  A    between atoms: C_13  and  C_14
REMARK    7  A    between atoms: C_14  and  C_15
REMARK    8  A    between atoms: C_15  and  N_16
REMARK                            x       y       z     vdW  Elec       q    Type
REMARK                         _______ _______ _______ _____ _____    ______ ____
ROOT
ATOM      1  C   UNL     1       6.129   4.881  16.205  0.00  0.00    +0.000 A 
ATOM      2  C   UNL     1       5.163   3.905  16.475  0.00  0.00    +0.000 A 
ATOM      3  C   UNL     1       4.031   4.269  17.184  0.00  0.00    +0.000 A 
ATOM      4  C   UNL     1       3.816   5.541  17.645  0.00  0.00    +0.000 A 
ATOM      5  C   UNL     1       4.764   6.521  17.402  0.00  0.00    +0.000 A 
ATOM      6  C   UNL     1       5.936   6.200  16.686  0.00  0.00    +0.000 A 
ATOM      7  C   UNL     1       2.547   5.494  18.332  0.00  0.00    +0.000 C 
ATOM      8  C   UNL     1       1.867   6.460  18.960  0.00  0.00    +0.000 C 
ATOM      9  O   UNL     1       2.025   4.188  18.272  0.00  0.00    +0.000 OA
ATOM     10  C   UNL     1       2.915   3.419  17.569  0.00  0.00    +0.000 C 
ATOM     11  O   UNL     1       2.804   2.235  17.306  0.00  0.00    +0.000 OA
ENDROOT
BRANCH   1  13
ATOM     12  C   UNL     1       7.248   4.775  14.114  0.00  0.00    +0.000 C 
ATOM     13  O   UNL     1       7.280   4.584  15.525  0.00  0.00    +0.000 OA
ENDBRANCH   1  13
BRANCH   6  14
ATOM     14  O   UNL     1       6.754   7.290  16.550  0.00  0.00    +0.000 OA
ATOM     15  C   UNL     1       7.664   7.610  17.590  0.00  0.00    +0.000 C 
ENDBRANCH   6  14
BRANCH   8  16
ATOM     16  C   UNL     1       2.280   7.897  19.085  0.00  0.00    +0.000 C 
BRANCH  16  17
ATOM     17  C   UNL     1       1.898   8.702  17.842  0.00  0.00    +0.000 C 
BRANCH  17  18
ATOM     18  C   UNL     1       0.760   9.696  18.113  0.00  0.00    +0.000 C 
BRANCH  18  19
ATOM     19  N   UNL     1       0.806  10.325  19.444  0.00  0.00    +0.000 NA
ATOM     20  C   UNL     1       1.069  11.771  19.361  0.00  0.00    +0.000 C 
ATOM     21  C   UNL     1       1.144  12.409  20.748  0.00  0.00    +0.000 C 
ATOM     22  C   UNL     1      -0.127  12.148  21.542  0.00  0.00    +0.000 C 
ATOM     23  C   UNL     1      -0.424  10.655  21.578  0.00  0.00    +0.000 C 
ATOM     24  C   UNL     1      -0.448  10.061  20.170  0.00  0.00    +0.000 C 
ENDBRANCH  18  19
ENDBRANCH  17  18
ENDBRANCH  16  17
ENDBRANCH   8  16
TORSDOF 6
ENDMDL
MODEL 7
REMARK VINA RESULT:      -7.2      6.863     10.290
REMARK  Name = 
REMARK  8 active torsions:
REMARK  status: ('A' for Active; 'I' for Inactive)
REMARK    1  A    between atoms: C_1  and  O_2
REMARK    2  A    between atoms: O_2  and  C_3
REMARK    3  A    between atoms: C_8  and  O_9
REMARK    4  A    between atoms: O_9  and  C_10
REMARK    5  A    between atoms: C_12  and  C_13
REMARK    6  A    between atoms: C_13  and  C_14
REMARK    7  A    between atoms: C_14  and  C_15
REMARK    8  A    between atoms: C_15  and  N_16
REMARK                            x       y       z     vdW  Elec       q    Type
REMARK                         _______ _______ _______ _____ _____    ______ ____
ROOT
ATOM      1  C   UNL     1       3.617   4.067  17.768  0.00  0.00    +0.000 A 
ATOM      2  C   UNL     1       4.371   3.779  16.625  0.00  0.00    +0.000 A 
ATOM      3  C   UNL     1       5.478   4.562  16.344  0.00  0.00    +0.000 A 
ATOM      4  C   UNL     1       5.865   5.616  17.129  0.00  0.00    +0.000 A 
ATOM      5  C   UNL     1       5.127   5.929  18.258  0.00  0.00    +0.000 A 
ATOM      6  C   UNL     1       3.989   5.163  18.585  0.00  0.00    +0.000 A 
ATOM      7  C   UNL     1       7.037   6.165  16.489  0.00  0.00    +0.000 C 
ATOM      8  C   UNL     1       7.811   7.197  16.842  0.00  0.00    +0.000 C 
ATOM      9  O   UNL     1       7.330   5.427  15.326  0.00  0.00    +0.000 OA
ATOM     10  C   UNL     1       6.390   4.436  15.218  0.00  0.00    +0.000 C 
ATOM     11  O   UNL     1       6.319   3.593  14.342  0.00  0.00    +0.000 OA
ENDROOT
BRANCH   1  13
ATOM     12  C   UNL     1       2.657   2.365  19.116  0.00  0.00    +0.000 C 
ATOM     13  O   UNL     1       2.500   3.344  18.093  0.00  0.00    +0.000 OA
ENDBRANCH   1  13
BRANCH   6  14
ATOM     14  O   UNL     1       3.386   5.624  19.727  0.00  0.00    +0.000 OA
ATOM     15  C   UNL     1       2.449   6.684  19.638  0.00  0.00    +0.000 C 
ENDBRANCH   6  14
BRANCH   8  16
ATOM     16  C   UNL     1       7.642   8.057  18.060  0.00  0.00    +0.000 C 
BRANCH  16  17
ATOM     17  C   UNL     1       8.391   9.383  17.919  0.00  0.00    +0.000 C 
BRANCH  17  18
ATOM     18  C   UNL     1       9.107   9.794  19.212  0.00  0.00    +0.000 C 
BRANCH  18  19
ATOM     19  N   UNL     1      10.025  10.937  19.063  0.00  0.00    +0.000 NA
ATOM     20  C   UNL     1       9.601  11.846  17.985  0.00  0.00    +0.000 C 
ATOM     21  C   UNL     1      10.575  13.012  17.818  0.00  0.00    +0.000 C 
ATOM     22  C   UNL     1      10.742  13.779  19.121  0.00  0.00    +0.000 C 
ATOM     23  C   UNL     1      11.126  12.825  20.245  0.00  0.00    +0.000 C 
ATOM     24  C   UNL     1      10.143  11.658  20.341  0.00  0.00    +0.000 C 
ENDBRANCH  18  19
ENDBRANCH  17  18
ENDBRANCH  16  17
ENDBRANCH   8  16
TORSDOF 6
ENDMDL
MODEL 8
REMARK VINA RESULT:      -7.2      4.017      8.463
REMARK  Name = 
REMARK  8 active torsions:
REMARK  status: ('A' for Active; 'I' for Inactive)
REMARK    1  A    between atoms: C_1  and  O_2
REMARK    2  A    between atoms: O_2  and  C_3
REMARK    3  A    between atoms: C_8  and  O_9
REMARK    4  A    between atoms: O_9  and  C_10
REMARK    5  A    between atoms: C_12  and  C_13
REMARK    6  A    between atoms: C_13  and  C_14
REMARK    7  A    between atoms: C_14  and  C_15
REMARK    8  A    between atoms: C_15  and  N_16
REMARK                            x       y       z     vdW  Elec       q    Type
REMARK                         _______ _______ _______ _____ _____    ______ ____
ROOT
ATOM      1  C   UNL     1       3.127   3.009  17.884  0.00  0.00    +0.000 A 
ATOM      2  C   UNL     1       4.168   3.619  17.176  0.00  0.00    +0.000 A 
ATOM      3  C   UNL     1       4.215   5.002  17.123  0.00  0.00    +0.000 A 
ATOM      4  C   UNL     1       3.281   5.804  17.724  0.00  0.00    +0.000 A 
ATOM      5  C   UNL     1       2.234   5.223  18.420  0.00  0.00    +0.000 A 
ATOM      6  C   UNL     1       2.140   3.818  18.500  0.00  0.00    +0.000 A 
ATOM      7  C   UNL     1       3.682   7.157  17.423  0.00  0.00    +0.000 C 
ATOM      8  C   UNL     1       3.125   8.322  17.772  0.00  0.00    +0.000 C 
ATOM      9  O   UNL     1       4.852   7.141  16.641  0.00  0.00    +0.000 OA
ATOM     10  C   UNL     1       5.201   5.830  16.447  0.00  0.00    +0.000 C 
ATOM     11  O   UNL     1       6.163   5.417  15.824  0.00  0.00    +0.000 OA
ENDROOT
BRANCH   1  13
ATOM     12  C   UNL     1       3.889   0.987  18.868  0.00  0.00    +0.000 C 
ATOM     13  O   UNL     1       3.011   1.646  17.960  0.00  0.00    +0.000 OA
ENDBRANCH   1  13
BRANCH   6  14
ATOM     14  O   UNL     1       1.041   3.429  19.220  0.00  0.00    +0.000 OA
ATOM     15  C   UNL     1       1.142   3.302  20.628  0.00  0.00    +0.000 C 
ENDBRANCH   6  14
BRANCH   8  16
ATOM     16  C   UNL     1       1.898   8.501  18.619  0.00  0.00    +0.000 C 
BRANCH  16  17
ATOM     17  C   UNL     1       0.881   9.423  17.945  0.00  0.00    +0.000 C 
BRANCH  17  18
ATOM     18  C   UNL     1       0.151  10.325  18.950  0.00  0.00    +0.000 C 
BRANCH  18  19
ATOM     19  N   UNL     1      -1.308  10.394  18.757  0.00  0.00    +0.000 NA
ATOM     20  C   UNL     1      -1.832  11.749  18.994  0.00  0.00    +0.000 C 
ATOM     21  C   UNL     1      -3.349  11.804  18.820  0.00  0.00    +0.000 C 
ATOM     22  C   UNL     1      -3.763  11.311  17.442  0.00  0.00    +0.000 C 
ATOM     23  C   UNL     1      -3.173   9.931  17.181  0.00  0.00    +0.000 C 
ATOM     24  C   UNL     1      -1.661   9.923  17.407  0.00  0.00    +0.000 C 
ENDBRANCH  18  19
ENDBRANCH  17  18
ENDBRANCH  16  17
ENDBRANCH   8  16
TORSDOF 6
ENDMDL
MODEL 9
REMARK VINA RESULT:      -7.1      3.630      8.260
REMARK  Name = 
REMARK  8 active torsions:
REMARK  status: ('A' for Active; 'I' for Inactive)
REMARK    1  A    between atoms: C_1  and  O_2
REMARK    2  A    between atoms: O_2  and  C_3
REMARK    3  A    between atoms: C_8  and  O_9
REMARK    4  A    between atoms: O_9  and  C_10
REMARK    5  A    between atoms: C_12  and  C_13
REMARK    6  A    between atoms: C_13  and  C_14
REMARK    7  A    between atoms: C_14  and  C_15
REMARK    8  A    between atoms: C_15  and  N_16
REMARK                            x       y       z     vdW  Elec       q    Type
REMARK                         _______ _______ _______ _____ _____    ______ ____
ROOT
ATOM      1  C   UNL     1       3.743   3.761  19.285  0.00  0.00    +0.000 A 
ATOM      2  C   UNL     1       4.156   4.585  18.231  0.00  0.00    +0.000 A 
ATOM      3  C   UNL     1       3.678   5.883  18.176  0.00  0.00    +0.000 A 
ATOM      4  C   UNL     1       2.808   6.398  19.101  0.00  0.00    +0.000 A 
ATOM      5  C   UNL     1       2.375   5.598  20.146  0.00  0.00    +0.000 A 
ATOM      6  C   UNL     1       2.831   4.267  20.244  0.00  0.00    +0.000 A 
ATOM      7  C   UNL     1       2.553   7.755  18.679  0.00  0.00    +0.000 C 
ATOM      8  C   UNL     1       1.783   8.701  19.228  0.00  0.00    +0.000 C 
ATOM      9  O   UNL     1       3.275   8.027  17.502  0.00  0.00    +0.000 OA
ATOM     10  C   UNL     1       3.976   6.896  17.176  0.00  0.00    +0.000 C 
ATOM     11  O   UNL     1       4.721   6.750  16.223  0.00  0.00    +0.000 OA
ENDROOT
BRANCH   1  13
ATOM     12  C   UNL     1       3.497   1.515  18.559  0.00  0.00    +0.000 C 
ATOM     13  O   UNL     1       4.163   2.462  19.388  0.00  0.00    +0.000 OA
ENDBRANCH   1  13
BRANCH   6  14
ATOM     14  O   UNL     1       2.292   3.632  21.332  0.00  0.00    +0.000 OA
ATOM     15  C   UNL     1       1.126   2.843  21.169  0.00  0.00    +0.000 C 
ENDBRANCH   6  14
BRANCH   8  16
ATOM     16  C   UNL     1       0.977   8.569  20.487  0.00  0.00    +0.000 C 
BRANCH  16  17
ATOM     17  C   UNL     1      -0.143   9.608  20.549  0.00  0.00    +0.000 C 
BRANCH  17  18
ATOM     18  C   UNL     1      -0.309  10.372  19.228  0.00  0.00    +0.000 C 
BRANCH  18  19
ATOM     19  N   UNL     1      -1.674  10.340  18.674  0.00  0.00    +0.000 NA
ATOM     20  C   UNL     1      -2.389  11.608  18.896  0.00  0.00    +0.000 C 
ATOM     21  C   UNL     1      -3.813  11.554  18.345  0.00  0.00    +0.000 C 
ATOM     22  C   UNL     1      -3.816  11.198  16.866  0.00  0.00    +0.000 C 
ATOM     23  C   UNL     1      -3.029   9.915  16.635  0.00  0.00    +0.000 C 
ATOM     24  C   UNL     1      -1.628  10.008  17.240  0.00  0.00    +0.000 C 
ENDBRANCH  18  19
ENDBRANCH  17  18
ENDBRANCH  16  17
ENDBRANCH   8  16
TORSDOF 6
ENDMDL
