MODEL 1
REMARK VINA RESULT:      -7.3      0.000      0.000
REMARK  Name = 
REMARK  12 active torsions:
REMARK  status: ('A' for Active; 'I' for Inactive)
REMARK    1  A    between atoms: C_1  and  C_2
REMARK    2  A    between atoms: C_4  and  C_5
REMARK    3  A    between atoms: C_6  and  C_7
REMARK    4  A    between atoms: C_8  and  S_9
REMARK    5  A    between atoms: S_9  and  N_12
REMARK    6  A    between atoms: N_12  and  C_13
REMARK    7  A    between atoms: C_13  and  C_14
REMARK    8  A    between atoms: C_13  and  C_15
REMARK    9  A    between atoms: C_15  and  O_17
REMARK   10  A    between atoms: O_17  and  C_18
REMARK   11  A    between atoms: C_18  and  C_19
REMARK   12  A    between atoms: C_22  and  C_23
REMARK                            x       y       z     vdW  Elec       q    Type
REMARK                         _______ _______ _______ _____ _____    ______ ____
ROOT
ATOM      1  S   UNL     1       3.527   3.612  17.118  0.00  0.00    +0.000 S 
ATOM      2  O   UNL     1       4.484   2.567  17.401  0.00  0.00    +0.000 OA
ATOM      3  O   UNL     1       2.459   3.368  16.171  0.00  0.00    +0.000 OA
ENDROOT
BRANCH   1  11
ATOM      4  C   UNL     1       1.883   7.525  20.485  0.00  0.00    +0.000 C 
ATOM      5  C   UNL     1       2.054   6.059  20.143  0.00  0.00    +0.000 A 
ATOM      6  C   UNL     1       1.620   5.122  21.080  0.00  0.00    +0.000 A 
ATOM      7  C   UNL     1       1.734   3.750  20.848  0.00  0.00    +0.000 A 
ATOM      8  C   UNL     1       1.261   2.827  21.945  0.00  0.00    +0.000 C 
ATOM      9  C   UNL     1       2.290   3.284  19.626  0.00  0.00    +0.000 A 
ATOM     10  C   UNL     1       2.370   1.785  19.419  0.00  0.00    +0.000 C 
ATOM     11  C   UNL     1       2.740   4.236  18.643  0.00  0.00    +0.000 A 
ATOM     12  C   UNL     1       2.641   5.636  18.916  0.00  0.00    +0.000 A 
ATOM     13  C   UNL     1       3.125   6.765  18.043  0.00  0.00    +0.000 C 
ENDBRANCH   1  11
BRANCH   1  14
ATOM     14  N   UNL     1       4.461   4.892  16.492  0.00  0.00    +0.000 NA
ATOM     15  H   UNL     1       4.622   5.606  17.198  0.00  0.00    +0.000 HD
BRANCH  14  16
ATOM     16  C   UNL     1       5.753   4.513  15.844  0.00  0.00    +0.000 C 
ATOM     17  C   UNL     1       5.501   4.270  14.360  0.00  0.00    +0.000 C 
BRANCH  16  18
ATOM     18  C   UNL     1       6.769   5.626  15.990  0.00  0.00    +0.000 C 
ATOM     19  O   UNL     1       7.728   5.761  15.238  0.00  0.00    +0.000 OA
BRANCH  18  20
ATOM     20  O   UNL     1       6.478   6.417  17.051  0.00  0.00    +0.000 OA
BRANCH  20  21
ATOM     21  C   UNL     1       7.500   6.529  18.049  0.00  0.00    +0.000 C 
BRANCH  21  22
ATOM     22  C   UNL     1       7.231   5.584  19.215  0.00  0.00    +0.000 C 
ATOM     23  N   UNL     1       8.236   5.453  20.131  0.00  0.00    +0.000 N 
ATOM     24  O   UNL     1       6.180   4.965  19.345  0.00  0.00    +0.000 OA
ATOM     25  H   UNL     1       9.166   5.806  19.946  0.00  0.00    +0.000 HD
ATOM     26  H   UNL     1       8.125   4.753  20.853  0.00  0.00    +0.000 HD
ENDBRANCH  21  22
ENDBRANCH  20  21
ENDBRANCH  18  20
ENDBRANCH  16  18
ENDBRANCH  14  16
ENDBRANCH   1  14
TORSDOF 7
ENDMDL
MODEL 2
REMARK VINA RESULT:      -7.1      0.536      2.415
REMARK  Name = 
REMARK  12 active torsions:
REMARK  status: ('A' for Active; 'I' for Inactive)
REMARK    1  A    between atoms: C_1  and  C_2
REMARK    2  A    between atoms: C_4  and  C_5
REMARK    3  A    between atoms: C_6  and  C_7
REMARK    4  A    between atoms: C_8  and  S_9
REMARK    5  A    between atoms: S_9  and  N_12
REMARK    6  A    between atoms: N_12  and  C_13
REMARK    7  A    between atoms: C_13  and  C_14
REMARK    8  A    between atoms: C_13  and  C_15
REMARK    9  A    between atoms: C_15  and  O_17
REMARK   10  A    between atoms: O_17  and  C_18
REMARK   11  A    between atoms: C_18  and  C_19
REMARK   12  A    between atoms: C_22  and  C_23
REMARK                            x       y       z     vdW  Elec       q    Type
REMARK                         _______ _______ _______ _____ _____    ______ ____
ROOT
ATOM      1  S   UNL     1       3.628   3.480  17.104  0.00  0.00    +0.000 S 
ATOM      2  O   UNL     1       4.378   2.263  17.311  0.00  0.00    +0.000 OA
ATOM      3  O   UNL     1       2.565   3.508  16.120  0.00  0.00    +0.000 OA
ENDROOT
BRANCH   1  11
ATOM      4  C   UNL     1       1.297   2.891  21.959  0.00  0.00    +0.000 C 
ATOM      5  C   UNL     1       1.823   3.767  20.841  0.00  0.00    +0.000 A 
ATOM      6  C   UNL     1       1.710   5.149  20.997  0.00  0.00    +0.000 A 
ATOM      7  C   UNL     1       2.170   6.034  20.019  0.00  0.00    +0.000 A 
ATOM      8  C   UNL     1       1.968   7.507  20.279  0.00  0.00    +0.000 C 
ATOM      9  C   UNL     1       2.783   5.529  18.841  0.00  0.00    +0.000 A 
ATOM     10  C   UNL     1       3.282   6.534  17.824  0.00  0.00    +0.000 C 
ATOM     11  C   UNL     1       2.913   4.105  18.664  0.00  0.00    +0.000 A 
ATOM     12  C   UNL     1       2.407   3.218  19.664  0.00  0.00    +0.000 A 
ATOM     13  C   UNL     1       2.389   1.712  19.615  0.00  0.00    +0.000 C 
ENDBRANCH   1  11
BRANCH   1  14
ATOM     14  N   UNL     1       4.790   4.623  16.608  0.00  0.00    +0.000 NA
ATOM     15  H   UNL     1       5.192   5.106  17.408  0.00  0.00    +0.000 HD
BRANCH  14  16
ATOM     16  C   UNL     1       5.878   4.115  15.718  0.00  0.00    +0.000 C 
ATOM     17  C   UNL     1       5.415   4.227  14.271  0.00  0.00    +0.000 C 
BRANCH  16  18
ATOM     18  C   UNL     1       7.137   4.940  15.893  0.00  0.00    +0.000 C 
ATOM     19  O   UNL     1       7.588   5.667  15.015  0.00  0.00    +0.000 OA
BRANCH  18  20
ATOM     20  O   UNL     1       7.681   4.747  17.119  0.00  0.00    +0.000 OA
BRANCH  20  21
ATOM     21  C   UNL     1       7.642   5.872  18.005  0.00  0.00    +0.000 C 
BRANCH  21  22
ATOM     22  C   UNL     1       7.248   5.443  19.415  0.00  0.00    +0.000 C 
ATOM     23  N   UNL     1       8.239   5.469  20.355  0.00  0.00    +0.000 N 
ATOM     24  O   UNL     1       6.112   5.089  19.713  0.00  0.00    +0.000 OA
ATOM     25  H   UNL     1       9.211   5.578  20.091  0.00  0.00    +0.000 HD
ATOM     26  H   UNL     1       8.030   5.087  21.268  0.00  0.00    +0.000 HD
ENDBRANCH  21  22
ENDBRANCH  20  21
ENDBRANCH  18  20
ENDBRANCH  16  18
ENDBRANCH  14  16
ENDBRANCH   1  14
TORSDOF 7
ENDMDL
MODEL 3
REMARK VINA RESULT:      -6.9      2.351      2.949
REMARK  Name = 
REMARK  12 active torsions:
REMARK  status: ('A' for Active; 'I' for Inactive)
REMARK    1  A    between atoms: C_1  and  C_2
REMARK    2  A    between atoms: C_4  and  C_5
REMARK    3  A    between atoms: C_6  and  C_7
REMARK    4  A    between atoms: C_8  and  S_9
REMARK    5  A    between atoms: S_9  and  N_12
REMARK    6  A    between atoms: N_12  and  C_13
REMARK    7  A    between atoms: C_13  and  C_14
REMARK    8  A    between atoms: C_13  and  C_15
REMARK    9  A    between atoms: C_15  and  O_17
REMARK   10  A    between atoms: O_17  and  C_18
REMARK   11  A    between atoms: C_18  and  C_19
REMARK   12  A    between atoms: C_22  and  C_23
REMARK                            x       y       z     vdW  Elec       q    Type
REMARK                         _______ _______ _______ _____ _____    ______ ____
ROOT
ATOM      1  S   UNL     1       4.738   4.889  17.104  0.00  0.00    +0.000 S 
ATOM      2  O   UNL     1       4.572   3.593  16.488  0.00  0.00    +0.000 OA
ATOM      3  O   UNL     1       4.616   6.086  16.298  0.00  0.00    +0.000 OA
ENDROOT
BRANCH   1  11
ATOM      4  C   UNL     1       1.549   7.793  20.382  0.00  0.00    +0.000 C 
ATOM      5  C   UNL     1       2.218   6.489  20.001  0.00  0.00    +0.000 A 
ATOM      6  C   UNL     1       1.999   5.386  20.828  0.00  0.00    +0.000 A 
ATOM      7  C   UNL     1       2.573   4.143  20.553  0.00  0.00    +0.000 A 
ATOM      8  C   UNL     1       2.294   3.028  21.533  0.00  0.00    +0.000 C 
ATOM      9  C   UNL     1       3.386   3.979  19.401  0.00  0.00    +0.000 A 
ATOM     10  C   UNL     1       3.965   2.604  19.140  0.00  0.00    +0.000 C 
ATOM     11  C   UNL     1       3.621   5.105  18.532  0.00  0.00    +0.000 A 
ATOM     12  C   UNL     1       3.048   6.375  18.850  0.00  0.00    +0.000 A 
ATOM     13  C   UNL     1       3.244   7.670  18.103  0.00  0.00    +0.000 C 
ENDBRANCH   1  11
BRANCH   1  14
ATOM     14  N   UNL     1       6.325   4.870  17.724  0.00  0.00    +0.000 NA
ATOM     15  H   UNL     1       6.999   4.647  16.997  0.00  0.00    +0.000 HD
BRANCH  14  16
ATOM     16  C   UNL     1       6.758   6.094  18.465  0.00  0.00    +0.000 C 
ATOM     17  C   UNL     1       7.550   5.663  19.695  0.00  0.00    +0.000 C 
BRANCH  16  18
ATOM     18  C   UNL     1       7.645   6.959  17.593  0.00  0.00    +0.000 C 
ATOM     19  O   UNL     1       7.740   6.810  16.380  0.00  0.00    +0.000 OA
BRANCH  18  20
ATOM     20  O   UNL     1       8.306   7.882  18.332  0.00  0.00    +0.000 OA
BRANCH  20  21
ATOM     21  C   UNL     1       8.076   9.251  17.978  0.00  0.00    +0.000 C 
BRANCH  21  22
ATOM     22  C   UNL     1       9.063  10.172  18.687  0.00  0.00    +0.000 C 
ATOM     23  N   UNL     1       9.815  10.984  17.885  0.00  0.00    +0.000 N 
ATOM     24  O   UNL     1       9.194  10.200  19.906  0.00  0.00    +0.000 OA
ATOM     25  H   UNL     1       9.853  10.845  16.883  0.00  0.00    +0.000 HD
ATOM     26  H   UNL     1      10.551  11.524  18.323  0.00  0.00    +0.000 HD
ENDBRANCH  21  22
ENDBRANCH  20  21
ENDBRANCH  18  20
ENDBRANCH  16  18
ENDBRANCH  14  16
ENDBRANCH   1  14
TORSDOF 7
ENDMDL
MODEL 4
REMARK VINA RESULT:      -6.9      2.212      3.741
REMARK  Name = 
REMARK  12 active torsions:
REMARK  status: ('A' for Active; 'I' for Inactive)
REMARK    1  A    between atoms: C_1  and  C_2
REMARK    2  A    between atoms: C_4  and  C_5
REMARK    3  A    between atoms: C_6  and  C_7
REMARK    4  A    between atoms: C_8  and  S_9
REMARK    5  A    between atoms: S_9  and  N_12
REMARK    6  A    between atoms: N_12  and  C_13
REMARK    7  A    between atoms: C_13  and  C_14
REMARK    8  A    between atoms: C_13  and  C_15
REMARK    9  A    between atoms: C_15  and  O_17
REMARK   10  A    between atoms: O_17  and  C_18
REMARK   11  A    between atoms: C_18  and  C_19
REMARK   12  A    between atoms: C_22  and  C_23
REMARK                            x       y       z     vdW  Elec       q    Type
REMARK                         _______ _______ _______ _____ _____    ______ ____
ROOT
ATOM      1  S   UNL     1       4.900   4.637  17.120  0.00  0.00    +0.000 S 
ATOM      2  O   UNL     1       4.757   3.283  16.638  0.00  0.00    +0.000 OA
ATOM      3  O   UNL     1       4.727   5.746  16.204  0.00  0.00    +0.000 OA
ENDROOT
BRANCH   1  11
ATOM      4  C   UNL     1       2.142   3.197  21.555  0.00  0.00    +0.000 C 
ATOM      5  C   UNL     1       2.550   4.234  20.530  0.00  0.00    +0.000 A 
ATOM      6  C   UNL     1       2.018   5.517  20.661  0.00  0.00    +0.000 A 
ATOM      7  C   UNL     1       2.342   6.537  19.764  0.00  0.00    +0.000 A 
ATOM      8  C   UNL     1       1.682   7.878  19.984  0.00  0.00    +0.000 C 
ATOM      9  C   UNL     1       3.244   6.281  18.698  0.00  0.00    +0.000 A 
ATOM     10  C   UNL     1       3.576   7.429  17.768  0.00  0.00    +0.000 C 
ATOM     11  C   UNL     1       3.808   4.963  18.547  0.00  0.00    +0.000 A 
ATOM     12  C   UNL     1       3.439   3.926  19.460  0.00  0.00    +0.000 A 
ATOM     13  C   UNL     1       3.868   2.483  19.413  0.00  0.00    +0.000 C 
ENDBRANCH   1  11
BRANCH   1  14
ATOM     14  N   UNL     1       6.499   4.721  17.700  0.00  0.00    +0.000 NA
ATOM     15  H   UNL     1       7.169   4.577  16.949  0.00  0.00    +0.000 HD
BRANCH  14  16
ATOM     16  C   UNL     1       6.858   5.948  18.475  0.00  0.00    +0.000 C 
ATOM     17  C   UNL     1       7.767   5.547  19.630  0.00  0.00    +0.000 C 
BRANCH  16  18
ATOM     18  C   UNL     1       7.594   6.937  17.596  0.00  0.00    +0.000 C 
ATOM     19  O   UNL     1       7.713   6.797  16.384  0.00  0.00    +0.000 OA
BRANCH  18  20
ATOM     20  O   UNL     1       8.100   7.959  18.328  0.00  0.00    +0.000 OA
BRANCH  20  21
ATOM     21  C   UNL     1       8.036   9.256  17.721  0.00  0.00    +0.000 C 
BRANCH  21  22
ATOM     22  C   UNL     1       8.988  10.228  18.410  0.00  0.00    +0.000 C 
ATOM     23  N   UNL     1       9.391   9.889  19.671  0.00  0.00    +0.000 N 
ATOM     24  O   UNL     1       9.383  11.263  17.884  0.00  0.00    +0.000 OA
ATOM     25  H   UNL     1       8.937   9.145  20.186  0.00  0.00    +0.000 HD
ATOM     26  H   UNL     1       9.934  10.568  20.189  0.00  0.00    +0.000 HD
ENDBRANCH  21  22
ENDBRANCH  20  21
ENDBRANCH  18  20
ENDBRANCH  16  18
ENDBRANCH  14  16
ENDBRANCH   1  14
TORSDOF 7
ENDMDL
MODEL 5
REMARK VINA RESULT:      -6.6      1.595      2.945
REMARK  Name = 
REMARK  12 active torsions:
REMARK  status: ('A' for Active; 'I' for Inactive)
REMARK    1  A    between atoms: C_1  and  C_2
REMARK    2  A    between atoms: C_4  and  C_5
REMARK    3  A    between atoms: C_6  and  C_7
REMARK    4  A    between atoms: C_8  and  S_9
REMARK    5  A    between atoms: S_9  and  N_12
REMARK    6  A    between atoms: N_12  and  C_13
REMARK    7  A    between atoms: C_13  and  C_14
REMARK    8  A    between atoms: C_13  and  C_15
REMARK    9  A    between atoms: C_15  and  O_17
REMARK   10  A    between atoms: O_17  and  C_18
REMARK   11  A    between atoms: C_18  and  C_19
REMARK   12  A    between atoms: C_22  and  C_23
REMARK                            x       y       z     vdW  Elec       q    Type
REMARK                         _______ _______ _______ _____ _____    ______ ____
ROOT
ATOM      1  S   UNL     1       4.234   4.401  17.368  0.00  0.00    +0.000 S 
ATOM      2  O   UNL     1       3.974   3.122  16.749  0.00  0.00    +0.000 OA
ATOM      3  O   UNL     1       4.178   5.609  16.571  0.00  0.00    +0.000 OA
ENDROOT
BRANCH   1  11
ATOM      4  C   UNL     1       1.372   7.501  20.767  0.00  0.00    +0.000 C 
ATOM      5  C   UNL     1       1.909   6.150  20.342  0.00  0.00    +0.000 A 
ATOM      6  C   UNL     1       1.594   5.050  21.141  0.00  0.00    +0.000 A 
ATOM      7  C   UNL     1       2.043   3.766  20.824  0.00  0.00    +0.000 A 
ATOM      8  C   UNL     1       1.669   2.655  21.775  0.00  0.00    +0.000 C 
ATOM      9  C   UNL     1       2.825   3.559  19.656  0.00  0.00    +0.000 A 
ATOM     10  C   UNL     1       3.266   2.142  19.350  0.00  0.00    +0.000 C 
ATOM     11  C   UNL     1       3.157   4.681  18.817  0.00  0.00    +0.000 A 
ATOM     12  C   UNL     1       2.712   5.991  19.177  0.00  0.00    +0.000 A 
ATOM     13  C   UNL     1       3.024   7.282  18.464  0.00  0.00    +0.000 C 
ENDBRANCH   1  11
BRANCH   1  14
ATOM     14  N   UNL     1       5.826   4.275  17.962  0.00  0.00    +0.000 NA
ATOM     15  H   UNL     1       6.349   3.562  17.459  0.00  0.00    +0.000 HD
BRANCH  14  16
ATOM     16  C   UNL     1       6.614   5.544  18.015  0.00  0.00    +0.000 C 
ATOM     17  C   UNL     1       7.663   5.421  19.114  0.00  0.00    +0.000 C 
BRANCH  16  18
ATOM     18  C   UNL     1       7.318   5.789  16.695  0.00  0.00    +0.000 C 
ATOM     19  O   UNL     1       7.814   6.867  16.392  0.00  0.00    +0.000 OA
BRANCH  18  20
ATOM     20  O   UNL     1       7.302   4.677  15.920  0.00  0.00    +0.000 OA
BRANCH  20  21
ATOM     21  C   UNL     1       7.357   4.899  14.506  0.00  0.00    +0.000 C 
BRANCH  21  22
ATOM     22  C   UNL     1       6.263   4.115  13.788  0.00  0.00    +0.000 C 
ATOM     23  N   UNL     1       6.683   3.159  12.907  0.00  0.00    +0.000 N 
ATOM     24  O   UNL     1       5.067   4.315  13.972  0.00  0.00    +0.000 OA
ATOM     25  H   UNL     1       7.649   3.107  12.608  0.00  0.00    +0.000 HD
ATOM     26  H   UNL     1       5.981   2.702  12.340  0.00  0.00    +0.000 HD
ENDBRANCH  21  22
ENDBRANCH  20  21
ENDBRANCH  18  20
ENDBRANCH  16  18
ENDBRANCH  14  16
ENDBRANCH   1  14
TORSDOF 7
ENDMDL
MODEL 6
REMARK VINA RESULT:      -6.5      1.777      2.993
REMARK  Name = 
REMARK  12 active torsions:
REMARK  status: ('A' for Active; 'I' for Inactive)
REMARK    1  A    between atoms: C_1  and  C_2
REMARK    2  A    between atoms: C_4  and  C_5
REMARK    3  A    between atoms: C_6  and  C_7
REMARK    4  A    between atoms: C_8  and  S_9
REMARK    5  A    between atoms: S_9  and  N_12
REMARK    6  A    between atoms: N_12  and  C_13
REMARK    7  A    between atoms: C_13  and  C_14
REMARK    8  A    between atoms: C_13  and  C_15
REMARK    9  A    between atoms: C_15  and  O_17
REMARK   10  A    between atoms: O_17  and  C_18
REMARK   11  A    between atoms: C_18  and  C_19
REMARK   12  A    between atoms: C_22  and  C_23
REMARK                            x       y       z     vdW  Elec       q    Type
REMARK                         _______ _______ _______ _____ _____    ______ ____
ROOT
ATOM      1  S   UNL     1       3.827   4.395  17.290  0.00  0.00    +0.000 S 
ATOM      2  O   UNL     1       3.384   3.202  16.609  0.00  0.00    +0.000 OA
ATOM      3  O   UNL     1       3.901   5.648  16.567  0.00  0.00    +0.000 OA
ENDROOT
BRANCH   1  11
ATOM      4  C   UNL     1       1.380   7.613  20.898  0.00  0.00    +0.000 C 
ATOM      5  C   UNL     1       1.787   6.236  20.414  0.00  0.00    +0.000 A 
ATOM      6  C   UNL     1       1.424   5.142  21.200  0.00  0.00    +0.000 A 
ATOM      7  C   UNL     1       1.754   3.836  20.830  0.00  0.00    +0.000 A 
ATOM      8  C   UNL     1       1.337   2.732  21.772  0.00  0.00    +0.000 C 
ATOM      9  C   UNL     1       2.463   3.601  19.622  0.00  0.00    +0.000 A 
ATOM     10  C   UNL     1       2.776   2.164  19.260  0.00  0.00    +0.000 C 
ATOM     11  C   UNL     1       2.844   4.718  18.795  0.00  0.00    +0.000 A 
ATOM     12  C   UNL     1       2.521   6.048  19.208  0.00  0.00    +0.000 A 
ATOM     13  C   UNL     1       2.901   7.330  18.513  0.00  0.00    +0.000 C 
ENDBRANCH   1  11
BRANCH   1  14
ATOM     14  N   UNL     1       5.408   4.031  17.810  0.00  0.00    +0.000 NA
ATOM     15  H   UNL     1       5.789   3.241  17.296  0.00  0.00    +0.000 HD
BRANCH  14  16
ATOM     16  C   UNL     1       6.384   5.164  17.802  0.00  0.00    +0.000 C 
ATOM     17  C   UNL     1       6.947   5.332  19.208  0.00  0.00    +0.000 C 
BRANCH  16  18
ATOM     18  C   UNL     1       7.526   4.876  16.850  0.00  0.00    +0.000 C 
ATOM     19  O   UNL     1       8.441   4.106  17.116  0.00  0.00    +0.000 OA
BRANCH  18  20
ATOM     20  O   UNL     1       7.397   5.586  15.703  0.00  0.00    +0.000 OA
BRANCH  20  21
ATOM     21  C   UNL     1       6.676   4.942  14.645  0.00  0.00    +0.000 C 
BRANCH  21  22
ATOM     22  C   UNL     1       7.481   4.956  13.349  0.00  0.00    +0.000 C 
ATOM     23  N   UNL     1       8.533   5.827  13.299  0.00  0.00    +0.000 N 
ATOM     24  O   UNL     1       7.217   4.237  12.391  0.00  0.00    +0.000 OA
ATOM     25  H   UNL     1       8.651   6.549  13.999  0.00  0.00    +0.000 HD
ATOM     26  H   UNL     1       9.013   5.932  12.415  0.00  0.00    +0.000 HD
ENDBRANCH  21  22
ENDBRANCH  20  21
ENDBRANCH  18  20
ENDBRANCH  16  18
ENDBRANCH  14  16
ENDBRANCH   1  14
TORSDOF 7
ENDMDL
MODEL 7
REMARK VINA RESULT:      -6.5      1.149      2.769
REMARK  Name = 
REMARK  12 active torsions:
REMARK  status: ('A' for Active; 'I' for Inactive)
REMARK    1  A    between atoms: C_1  and  C_2
REMARK    2  A    between atoms: C_4  and  C_5
REMARK    3  A    between atoms: C_6  and  C_7
REMARK    4  A    between atoms: C_8  and  S_9
REMARK    5  A    between atoms: S_9  and  N_12
REMARK    6  A    between atoms: N_12  and  C_13
REMARK    7  A    between atoms: C_13  and  C_14
REMARK    8  A    between atoms: C_13  and  C_15
REMARK    9  A    between atoms: C_15  and  O_17
REMARK   10  A    between atoms: O_17  and  C_18
REMARK   11  A    between atoms: C_18  and  C_19
REMARK   12  A    between atoms: C_22  and  C_23
REMARK                            x       y       z     vdW  Elec       q    Type
REMARK                         _______ _______ _______ _____ _____    ______ ____
ROOT
ATOM      1  S   UNL     1       3.367   3.409  17.109  0.00  0.00    +0.000 S 
ATOM      2  O   UNL     1       4.091   2.168  17.260  0.00  0.00    +0.000 OA
ATOM      3  O   UNL     1       2.266   3.487  16.172  0.00  0.00    +0.000 OA
ENDROOT
BRANCH   1  11
ATOM      4  C   UNL     1       1.282   2.774  22.069  0.00  0.00    +0.000 C 
ATOM      5  C   UNL     1       1.755   3.661  20.937  0.00  0.00    +0.000 A 
ATOM      6  C   UNL     1       1.658   5.041  21.113  0.00  0.00    +0.000 A 
ATOM      7  C   UNL     1       2.072   5.935  20.124  0.00  0.00    +0.000 A 
ATOM      8  C   UNL     1       1.891   7.407  20.410  0.00  0.00    +0.000 C 
ATOM      9  C   UNL     1       2.622   5.441  18.911  0.00  0.00    +0.000 A 
ATOM     10  C   UNL     1       3.075   6.456  17.881  0.00  0.00    +0.000 C 
ATOM     11  C   UNL     1       2.735   4.019  18.711  0.00  0.00    +0.000 A 
ATOM     12  C   UNL     1       2.276   3.122  19.725  0.00  0.00    +0.000 A 
ATOM     13  C   UNL     1       2.248   1.617  19.659  0.00  0.00    +0.000 C 
ENDBRANCH   1  11
BRANCH   1  14
ATOM     14  N   UNL     1       4.539   4.530  16.589  0.00  0.00    +0.000 NA
ATOM     15  H   UNL     1       4.685   5.257  17.285  0.00  0.00    +0.000 HD
BRANCH  14  16
ATOM     16  C   UNL     1       5.854   3.962  16.161  0.00  0.00    +0.000 C 
ATOM     17  C   UNL     1       6.161   4.453  14.751  0.00  0.00    +0.000 C 
BRANCH  16  18
ATOM     18  C   UNL     1       6.960   4.421  17.088  0.00  0.00    +0.000 C 
ATOM     19  O   UNL     1       8.145   4.180  16.888  0.00  0.00    +0.000 OA
BRANCH  18  20
ATOM     20  O   UNL     1       6.458   5.102  18.147  0.00  0.00    +0.000 OA
BRANCH  20  21
ATOM     21  C   UNL     1       7.161   6.294  18.516  0.00  0.00    +0.000 C 
BRANCH  21  22
ATOM     22  C   UNL     1       7.035   7.360  17.432  0.00  0.00    +0.000 C 
ATOM     23  N   UNL     1       8.052   8.269  17.356  0.00  0.00    +0.000 N 
ATOM     24  O   UNL     1       6.084   7.419  16.660  0.00  0.00    +0.000 OA
ATOM     25  H   UNL     1       8.744   8.347  18.092  0.00  0.00    +0.000 HD
ATOM     26  H   UNL     1       7.940   9.047  16.719  0.00  0.00    +0.000 HD
ENDBRANCH  21  22
ENDBRANCH  20  21
ENDBRANCH  18  20
ENDBRANCH  16  18
ENDBRANCH  14  16
ENDBRANCH   1  14
TORSDOF 7
ENDMDL
MODEL 8
REMARK VINA RESULT:      -6.3      1.593      2.234
REMARK  Name = 
REMARK  12 active torsions:
REMARK  status: ('A' for Active; 'I' for Inactive)
REMARK    1  A    between atoms: C_1  and  C_2
REMARK    2  A    between atoms: C_4  and  C_5
REMARK    3  A    between atoms: C_6  and  C_7
REMARK    4  A    between atoms: C_8  and  S_9
REMARK    5  A    between atoms: S_9  and  N_12
REMARK    6  A    between atoms: N_12  and  C_13
REMARK    7  A    between atoms: C_13  and  C_14
REMARK    8  A    between atoms: C_13  and  C_15
REMARK    9  A    between atoms: C_15  and  O_17
REMARK   10  A    between atoms: O_17  and  C_18
REMARK   11  A    between atoms: C_18  and  C_19
REMARK   12  A    between atoms: C_22  and  C_23
REMARK                            x       y       z     vdW  Elec       q    Type
REMARK                         _______ _______ _______ _____ _____    ______ ____
ROOT
ATOM      1  S   UNL     1       4.417   4.171  17.396  0.00  0.00    +0.000 S 
ATOM      2  O   UNL     1       4.130   2.852  16.883  0.00  0.00    +0.000 OA
ATOM      3  O   UNL     1       4.463   5.299  16.489  0.00  0.00    +0.000 OA
ENDROOT
BRANCH   1  11
ATOM      4  C   UNL     1       1.605   7.709  20.385  0.00  0.00    +0.000 C 
ATOM      5  C   UNL     1       2.056   6.294  20.085  0.00  0.00    +0.000 A 
ATOM      6  C   UNL     1       1.602   5.279  20.928  0.00  0.00    +0.000 A 
ATOM      7  C   UNL     1       1.964   3.946  20.725  0.00  0.00    +0.000 A 
ATOM      8  C   UNL     1       1.441   2.935  21.717  0.00  0.00    +0.000 C 
ATOM      9  C   UNL     1       2.800   3.599  19.630  0.00  0.00    +0.000 A 
ATOM     10  C   UNL     1       3.143   2.135  19.446  0.00  0.00    +0.000 C 
ATOM     11  C   UNL     1       3.276   4.632  18.746  0.00  0.00    +0.000 A 
ATOM     12  C   UNL     1       2.917   5.994  18.990  0.00  0.00    +0.000 A 
ATOM     13  C   UNL     1       3.377   7.205  18.220  0.00  0.00    +0.000 C 
ENDBRANCH   1  11
BRANCH   1  14
ATOM     14  N   UNL     1       5.965   4.034  18.093  0.00  0.00    +0.000 NA
ATOM     15  H   UNL     1       6.493   3.277  17.665  0.00  0.00    +0.000 HD
BRANCH  14  16
ATOM     16  C   UNL     1       6.790   5.280  18.121  0.00  0.00    +0.000 C 
ATOM     17  C   UNL     1       7.856   5.135  19.200  0.00  0.00    +0.000 C 
BRANCH  16  18
ATOM     18  C   UNL     1       7.474   5.496  16.786  0.00  0.00    +0.000 C 
ATOM     19  O   UNL     1       7.857   4.575  16.074  0.00  0.00    +0.000 OA
BRANCH  18  20
ATOM     20  O   UNL     1       7.606   6.817  16.514  0.00  0.00    +0.000 OA
BRANCH  20  21
ATOM     21  C   UNL     1       6.975   7.713  17.436  0.00  0.00    +0.000 C 
BRANCH  21  22
ATOM     22  C   UNL     1       7.962   8.759  17.943  0.00  0.00    +0.000 C 
ATOM     23  N   UNL     1       8.782   8.371  18.965  0.00  0.00    +0.000 N 
ATOM     24  O   UNL     1       8.033   9.892  17.479  0.00  0.00    +0.000 OA
ATOM     25  H   UNL     1       8.615   7.514  19.478  0.00  0.00    +0.000 HD
ATOM     26  H   UNL     1       9.369   9.077  19.390  0.00  0.00    +0.000 HD
ENDBRANCH  21  22
ENDBRANCH  20  21
ENDBRANCH  18  20
ENDBRANCH  16  18
ENDBRANCH  14  16
ENDBRANCH   1  14
TORSDOF 7
ENDMDL
MODEL 9
REMARK VINA RESULT:      -6.3      1.951      3.270
REMARK  Name = 
REMARK  12 active torsions:
REMARK  status: ('A' for Active; 'I' for Inactive)
REMARK    1  A    between atoms: C_1  and  C_2
REMARK    2  A    between atoms: C_4  and  C_5
REMARK    3  A    between atoms: C_6  and  C_7
REMARK    4  A    between atoms: C_8  and  S_9
REMARK    5  A    between atoms: S_9  and  N_12
REMARK    6  A    between atoms: N_12  and  C_13
REMARK    7  A    between atoms: C_13  and  C_14
REMARK    8  A    between atoms: C_13  and  C_15
REMARK    9  A    between atoms: C_15  and  O_17
REMARK   10  A    between atoms: O_17  and  C_18
REMARK   11  A    between atoms: C_18  and  C_19
REMARK   12  A    between atoms: C_22  and  C_23
REMARK                            x       y       z     vdW  Elec       q    Type
REMARK                         _______ _______ _______ _____ _____    ______ ____
ROOT
ATOM      1  S   UNL     1       4.131   6.237  17.526  0.00  0.00    +0.000 S 
ATOM      2  O   UNL     1       4.177   5.014  16.760  0.00  0.00    +0.000 OA
ATOM      3  O   UNL     1       3.808   7.485  16.864  0.00  0.00    +0.000 OA
ENDROOT
BRANCH   1  11
ATOM      4  C   UNL     1       0.529   8.172  21.081  0.00  0.00    +0.000 C 
ATOM      5  C   UNL     1       1.400   7.048  20.558  0.00  0.00    +0.000 A 
ATOM      6  C   UNL     1       1.369   5.835  21.245  0.00  0.00    +0.000 A 
ATOM      7  C   UNL     1       2.137   4.743  20.833  0.00  0.00    +0.000 A 
ATOM      8  C   UNL     1       2.050   3.489  21.669  0.00  0.00    +0.000 C 
ATOM      9  C   UNL     1       2.959   4.852  19.680  0.00  0.00    +0.000 A 
ATOM     10  C   UNL     1       3.753   3.631  19.266  0.00  0.00    +0.000 C 
ATOM     11  C   UNL     1       3.001   6.096  18.954  0.00  0.00    +0.000 A 
ATOM     12  C   UNL     1       2.231   7.210  19.412  0.00  0.00    +0.000 A 
ATOM     13  C   UNL     1       2.208   8.598  18.827  0.00  0.00    +0.000 C 
ENDBRANCH   1  11
BRANCH   1  14
ATOM     14  N   UNL     1       5.702   6.407  18.162  0.00  0.00    +0.000 NA
ATOM     15  H   UNL     1       5.852   5.770  18.941  0.00  0.00    +0.000 HD
BRANCH  14  16
ATOM     16  C   UNL     1       6.827   6.291  17.184  0.00  0.00    +0.000 C 
ATOM     17  C   UNL     1       7.807   7.431  17.432  0.00  0.00    +0.000 C 
BRANCH  16  18
ATOM     18  C   UNL     1       7.554   4.975  17.362  0.00  0.00    +0.000 C 
ATOM     19  O   UNL     1       7.821   4.501  18.461  0.00  0.00    +0.000 OA
BRANCH  18  20
ATOM     20  O   UNL     1       7.870   4.425  16.165  0.00  0.00    +0.000 OA
BRANCH  20  21
ATOM     21  C   UNL     1       6.762   4.032  15.345  0.00  0.00    +0.000 C 
BRANCH  21  22
ATOM     22  C   UNL     1       6.966   4.478  13.901  0.00  0.00    +0.000 C 
ATOM     23  N   UNL     1       7.811   5.534  13.708  0.00  0.00    +0.000 N 
ATOM     24  O   UNL     1       6.413   3.936  12.949  0.00  0.00    +0.000 OA
ATOM     25  H   UNL     1       8.127   6.104  14.483  0.00  0.00    +0.000 HD
ATOM     26  H   UNL     1       7.879   5.917  12.774  0.00  0.00    +0.000 HD
ENDBRANCH  21  22
ENDBRANCH  20  21
ENDBRANCH  18  20
ENDBRANCH  16  18
ENDBRANCH  14  16
ENDBRANCH   1  14
TORSDOF 7
ENDMDL
