MODEL 1
REMARK VINA RESULT:      -8.6      0.000      0.000
REMARK  Name = 
REMARK  5 active torsions:
REMARK  status: ('A' for Active; 'I' for Inactive)
REMARK    1  A    between atoms: C_2  and  C_11
REMARK    2  A    between atoms: N_3  and  N_4
REMARK    3  A    between atoms: C_5  and  C_6
REMARK    4  A    between atoms: C_15  and  S_16
REMARK    5  A    between atoms: S_16  and  N_19
REMARK                            x       y       z     vdW  Elec       q    Type
REMARK                         _______ _______ _______ _____ _____    ______ ____
ROOT
ATOM      1  C   UNL     1       6.614   5.635  17.539  0.00  0.00    +0.000 A 
ATOM      2  C   UNL     1       6.557   5.618  16.139  0.00  0.00    +0.000 A 
ATOM      3  C   UNL     1       5.644   4.780  15.489  0.00  0.00    +0.000 A 
ATOM      4  C   UNL     1       4.800   3.948  16.230  0.00  0.00    +0.000 A 
ATOM      5  C   UNL     1       4.865   3.954  17.629  0.00  0.00    +0.000 A 
ATOM      6  C   UNL     1       5.758   4.805  18.282  0.00  0.00    +0.000 A 
ENDROOT
BRANCH   1   8
ATOM      7  O   UNL     1       8.141   5.959  19.277  0.00  0.00    +0.000 OA
ATOM      8  C   UNL     1       7.596   6.461  18.298  0.00  0.00    +0.000 C 
ATOM      9  N   UNL     1       7.797   7.759  17.850  0.00  0.00    +0.000 N 
ATOM     10  H   UNL     1       7.236   8.154  17.106  0.00  0.00    +0.000 HD
BRANCH   9  11
ATOM     11  N   UNL     1       8.661   8.566  18.544  0.00  0.00    +0.000 NA
ATOM     12  C   UNL     1       8.628   9.830  18.263  0.00  0.00    +0.000 C 
BRANCH  12  13
ATOM     13  C   UNL     1       9.492  10.760  18.951  0.00  0.00    +0.000 A 
ATOM     14  C   UNL     1       9.647  10.967  20.308  0.00  0.00    +0.000 A 
ATOM     15  C   UNL     1      10.604  11.984  20.596  0.00  0.00    +0.000 A 
ATOM     16  C   UNL     1      11.147  12.518  19.448  0.00  0.00    +0.000 A 
ATOM     17  S   UNL     1      10.501  11.797  18.038  0.00  0.00    +0.000 S 
ENDBRANCH  12  13
ENDBRANCH   9  11
ENDBRANCH   1   8
BRANCH   5  18
ATOM     18  S   UNL     1       3.743   2.893  18.522  0.00  0.00    +0.000 S 
ATOM     19  O   UNL     1       3.605   1.704  17.705  0.00  0.00    +0.000 OA
ATOM     20  O   UNL     1       4.214   2.823  19.885  0.00  0.00    +0.000 OA
BRANCH  18  21
ATOM     21  N   UNL     1       2.255   3.707  18.519  0.00  0.00    +0.000 NA
ATOM     22  C   UNL     1       2.283   5.201  18.428  0.00  0.00    +0.000 C 
ATOM     23  C   UNL     1       2.373   5.862  19.812  0.00  0.00    +0.000 C 
ATOM     24  O   UNL     1       1.352   5.390  20.703  0.00  0.00    +0.000 OA
ATOM     25  C   UNL     1       1.425   3.966  20.861  0.00  0.00    +0.000 C 
ATOM     26  C   UNL     1       1.237   3.262  19.517  0.00  0.00    +0.000 C 
ENDBRANCH  18  21
ENDBRANCH   5  18
TORSDOF 5
ENDMDL
MODEL 2
REMARK VINA RESULT:      -8.5      1.246      1.708
REMARK  Name = 
REMARK  5 active torsions:
REMARK  status: ('A' for Active; 'I' for Inactive)
REMARK    1  A    between atoms: C_2  and  C_11
REMARK    2  A    between atoms: N_3  and  N_4
REMARK    3  A    between atoms: C_5  and  C_6
REMARK    4  A    between atoms: C_15  and  S_16
REMARK    5  A    between atoms: S_16  and  N_19
REMARK                            x       y       z     vdW  Elec       q    Type
REMARK                         _______ _______ _______ _____ _____    ______ ____
ROOT
ATOM      1  C   UNL     1       6.708   5.834  17.250  0.00  0.00    +0.000 A 
ATOM      2  C   UNL     1       7.118   5.279  16.030  0.00  0.00    +0.000 A 
ATOM      3  C   UNL     1       6.250   4.446  15.316  0.00  0.00    +0.000 A 
ATOM      4  C   UNL     1       4.981   4.153  15.823  0.00  0.00    +0.000 A 
ATOM      5  C   UNL     1       4.574   4.695  17.048  0.00  0.00    +0.000 A 
ATOM      6  C   UNL     1       5.428   5.545  17.752  0.00  0.00    +0.000 A 
ENDROOT
BRANCH   1   8
ATOM      7  O   UNL     1       8.098   6.188  19.094  0.00  0.00    +0.000 OA
ATOM      8  C   UNL     1       7.597   6.687  18.090  0.00  0.00    +0.000 C 
ATOM      9  N   UNL     1       7.767   8.002  17.682  0.00  0.00    +0.000 N 
ATOM     10  H   UNL     1       7.240   8.388  16.909  0.00  0.00    +0.000 HD
BRANCH   9  11
ATOM     11  N   UNL     1       8.544   8.832  18.449  0.00  0.00    +0.000 NA
ATOM     12  C   UNL     1       8.690  10.047  18.026  0.00  0.00    +0.000 C 
BRANCH  12  13
ATOM     13  C   UNL     1       9.479  10.998  18.773  0.00  0.00    +0.000 A 
ATOM     14  C   UNL     1       9.839  10.977  20.107  0.00  0.00    +0.000 A 
ATOM     15  C   UNL     1      10.629  12.105  20.473  0.00  0.00    +0.000 A 
ATOM     16  C   UNL     1      10.846  12.949  19.406  0.00  0.00    +0.000 A 
ATOM     17  S   UNL     1      10.097  12.380  17.977  0.00  0.00    +0.000 S 
ENDBRANCH  12  13
ENDBRANCH   9  11
ENDBRANCH   1   8
BRANCH   5  18
ATOM     18  S   UNL     1       2.932   4.308  17.629  0.00  0.00    +0.000 S 
ATOM     19  O   UNL     1       2.253   5.583  17.742  0.00  0.00    +0.000 OA
ATOM     20  O   UNL     1       2.421   3.251  16.789  0.00  0.00    +0.000 OA
BRANCH  18  21
ATOM     21  N   UNL     1       3.142   3.685  19.192  0.00  0.00    +0.000 NA
ATOM     22  C   UNL     1       2.602   2.316  19.471  0.00  0.00    +0.000 C 
ATOM     23  C   UNL     1       1.140   2.358  19.939  0.00  0.00    +0.000 C 
ATOM     24  O   UNL     1       0.953   3.252  21.045  0.00  0.00    +0.000 OA
ATOM     25  C   UNL     1       1.371   4.581  20.708  0.00  0.00    +0.000 C 
ATOM     26  C   UNL     1       2.853   4.604  20.333  0.00  0.00    +0.000 C 
ENDBRANCH  18  21
ENDBRANCH   5  18
TORSDOF 5
ENDMDL
MODEL 3
REMARK VINA RESULT:      -8.4      0.925      1.139
REMARK  Name = 
REMARK  5 active torsions:
REMARK  status: ('A' for Active; 'I' for Inactive)
REMARK    1  A    between atoms: C_2  and  C_11
REMARK    2  A    between atoms: N_3  and  N_4
REMARK    3  A    between atoms: C_5  and  C_6
REMARK    4  A    between atoms: C_15  and  S_16
REMARK    5  A    between atoms: S_16  and  N_19
REMARK                            x       y       z     vdW  Elec       q    Type
REMARK                         _______ _______ _______ _____ _____    ______ ____
ROOT
ATOM      1  C   UNL     1       6.718   6.141  17.542  0.00  0.00    +0.000 A 
ATOM      2  C   UNL     1       6.525   6.203  16.155  0.00  0.00    +0.000 A 
ATOM      3  C   UNL     1       5.593   5.359  15.543  0.00  0.00    +0.000 A 
ATOM      4  C   UNL     1       4.863   4.443  16.307  0.00  0.00    +0.000 A 
ATOM      5  C   UNL     1       5.065   4.370  17.691  0.00  0.00    +0.000 A 
ATOM      6  C   UNL     1       5.977   5.226  18.309  0.00  0.00    +0.000 A 
ENDROOT
BRANCH   1   8
ATOM      7  O   UNL     1       8.366   6.451  19.168  0.00  0.00    +0.000 OA
ATOM      8  C   UNL     1       7.731   6.971  18.255  0.00  0.00    +0.000 C 
ATOM      9  N   UNL     1       7.857   8.291  17.845  0.00  0.00    +0.000 N 
ATOM     10  H   UNL     1       7.229   8.694  17.162  0.00  0.00    +0.000 HD
BRANCH   9  11
ATOM     11  N   UNL     1       8.748   9.099  18.501  0.00  0.00    +0.000 NA
ATOM     12  C   UNL     1       8.837  10.323  18.086  0.00  0.00    +0.000 C 
BRANCH  12  13
ATOM     13  C   UNL     1       9.738  11.254  18.724  0.00  0.00    +0.000 A 
ATOM     14  C   UNL     1      10.142  11.313  20.044  0.00  0.00    +0.000 A 
ATOM     15  C   UNL     1      11.048  12.387  20.287  0.00  0.00    +0.000 A 
ATOM     16  C   UNL     1      11.304  13.111  19.143  0.00  0.00    +0.000 A 
ATOM     17  S   UNL     1      10.455  12.496  17.791  0.00  0.00    +0.000 S 
ENDBRANCH  12  13
ENDBRANCH   9  11
ENDBRANCH   1   8
BRANCH   5  18
ATOM     18  S   UNL     1       4.085   3.202  18.617  0.00  0.00    +0.000 S 
ATOM     19  O   UNL     1       3.605   2.244  17.642  0.00  0.00    +0.000 OA
ATOM     20  O   UNL     1       4.872   2.793  19.756  0.00  0.00    +0.000 OA
BRANCH  18  21
ATOM     21  N   UNL     1       2.752   4.084  19.186  0.00  0.00    +0.000 NA
ATOM     22  C   UNL     1       2.745   4.471  20.633  0.00  0.00    +0.000 C 
ATOM     23  C   UNL     1       2.107   3.389  21.516  0.00  0.00    +0.000 C 
ATOM     24  O   UNL     1       0.805   3.009  21.048  0.00  0.00    +0.000 OA
ATOM     25  C   UNL     1       0.864   2.531  19.698  0.00  0.00    +0.000 C 
ATOM     26  C   UNL     1       1.398   3.616  18.763  0.00  0.00    +0.000 C 
ENDBRANCH  18  21
ENDBRANCH   5  18
TORSDOF 5
ENDMDL
MODEL 4
REMARK VINA RESULT:      -8.4      1.245      1.701
REMARK  Name = 
REMARK  5 active torsions:
REMARK  status: ('A' for Active; 'I' for Inactive)
REMARK    1  A    between atoms: C_2  and  C_11
REMARK    2  A    between atoms: N_3  and  N_4
REMARK    3  A    between atoms: C_5  and  C_6
REMARK    4  A    between atoms: C_15  and  S_16
REMARK    5  A    between atoms: S_16  and  N_19
REMARK                            x       y       z     vdW  Elec       q    Type
REMARK                         _______ _______ _______ _____ _____    ______ ____
ROOT
ATOM      1  C   UNL     1       6.716   5.853  17.313  0.00  0.00    +0.000 A 
ATOM      2  C   UNL     1       6.943   5.668  15.942  0.00  0.00    +0.000 A 
ATOM      3  C   UNL     1       6.086   4.851  15.198  0.00  0.00    +0.000 A 
ATOM      4  C   UNL     1       5.013   4.205  15.819  0.00  0.00    +0.000 A 
ATOM      5  C   UNL     1       4.793   4.377  17.191  0.00  0.00    +0.000 A 
ATOM      6  C   UNL     1       5.631   5.210  17.932  0.00  0.00    +0.000 A 
ENDROOT
BRANCH   1   8
ATOM      7  O   UNL     1       8.056   6.149  19.204  0.00  0.00    +0.000 OA
ATOM      8  C   UNL     1       7.617   6.665  18.180  0.00  0.00    +0.000 C 
ATOM      9  N   UNL     1       7.869   7.967  17.771  0.00  0.00    +0.000 N 
ATOM     10  H   UNL     1       7.390   8.373  16.977  0.00  0.00    +0.000 HD
BRANCH   9  11
ATOM     11  N   UNL     1       8.659   8.762  18.560  0.00  0.00    +0.000 NA
ATOM     12  C   UNL     1       8.828   9.985  18.168  0.00  0.00    +0.000 C 
BRANCH  12  13
ATOM     13  C   UNL     1       9.633  10.901  18.942  0.00  0.00    +0.000 A 
ATOM     14  C   UNL     1      10.685  11.698  18.533  0.00  0.00    +0.000 A 
ATOM     15  C   UNL     1      11.227  12.470  19.602  0.00  0.00    +0.000 A 
ATOM     16  C   UNL     1      10.570  12.236  20.790  0.00  0.00    +0.000 A 
ATOM     17  S   UNL     1       9.311  11.091  20.611  0.00  0.00    +0.000 S 
ENDBRANCH  12  13
ENDBRANCH   9  11
ENDBRANCH   1   8
BRANCH   5  18
ATOM     18  S   UNL     1       3.391   3.551  17.921  0.00  0.00    +0.000 S 
ATOM     19  O   UNL     1       2.225   4.242  17.408  0.00  0.00    +0.000 OA
ATOM     20  O   UNL     1       3.579   2.133  17.720  0.00  0.00    +0.000 OA
BRANCH  18  21
ATOM     21  N   UNL     1       3.498   3.866  19.584  0.00  0.00    +0.000 NA
ATOM     22  C   UNL     1       3.434   2.695  20.517  0.00  0.00    +0.000 C 
ATOM     23  C   UNL     1       1.991   2.353  20.915  0.00  0.00    +0.000 C 
ATOM     24  O   UNL     1       1.287   3.494  21.425  0.00  0.00    +0.000 OA
ATOM     25  C   UNL     1       1.264   4.556  20.463  0.00  0.00    +0.000 C 
ATOM     26  C   UNL     1       2.684   5.001  20.113  0.00  0.00    +0.000 C 
ENDBRANCH  18  21
ENDBRANCH   5  18
TORSDOF 5
ENDMDL
MODEL 5
REMARK VINA RESULT:      -8.3      1.513      2.139
REMARK  Name = 
REMARK  5 active torsions:
REMARK  status: ('A' for Active; 'I' for Inactive)
REMARK    1  A    between atoms: C_2  and  C_11
REMARK    2  A    between atoms: N_3  and  N_4
REMARK    3  A    between atoms: C_5  and  C_6
REMARK    4  A    between atoms: C_15  and  S_16
REMARK    5  A    between atoms: S_16  and  N_19
REMARK                            x       y       z     vdW  Elec       q    Type
REMARK                         _______ _______ _______ _____ _____    ______ ____
ROOT
ATOM      1  C   UNL     1       6.280   5.590  17.646  0.00  0.00    +0.000 A 
ATOM      2  C   UNL     1       6.493   4.855  16.472  0.00  0.00    +0.000 A 
ATOM      3  C   UNL     1       5.460   4.075  15.941  0.00  0.00    +0.000 A 
ATOM      4  C   UNL     1       4.221   4.014  16.586  0.00  0.00    +0.000 A 
ATOM      5  C   UNL     1       4.011   4.736  17.767  0.00  0.00    +0.000 A 
ATOM      6  C   UNL     1       5.031   5.533  18.287  0.00  0.00    +0.000 A 
ENDROOT
BRANCH   1   8
ATOM      7  O   UNL     1       7.909   5.932  19.285  0.00  0.00    +0.000 OA
ATOM      8  C   UNL     1       7.348   6.400  18.298  0.00  0.00    +0.000 C 
ATOM      9  N   UNL     1       7.609   7.647  17.749  0.00  0.00    +0.000 N 
ATOM     10  H   UNL     1       7.038   8.026  17.004  0.00  0.00    +0.000 HD
BRANCH   9  11
ATOM     11  N   UNL     1       8.555   8.441  18.342  0.00  0.00    +0.000 NA
ATOM     12  C   UNL     1       8.414   9.721  18.199  0.00  0.00    +0.000 C 
BRANCH  12  13
ATOM     13  C   UNL     1       9.354  10.638  18.800  0.00  0.00    +0.000 A 
ATOM     14  C   UNL     1      10.358  11.375  18.203  0.00  0.00    +0.000 A 
ATOM     15  C   UNL     1      11.078  12.171  19.141  0.00  0.00    +0.000 A 
ATOM     16  C   UNL     1      10.597  12.015  20.423  0.00  0.00    +0.000 A 
ATOM     17  S   UNL     1       9.290  10.913  20.488  0.00  0.00    +0.000 S 
ENDBRANCH  12  13
ENDBRANCH   9  11
ENDBRANCH   1   8
BRANCH   5  18
ATOM     18  S   UNL     1       2.401   4.641  18.528  0.00  0.00    +0.000 S 
ATOM     19  O   UNL     1       2.456   5.545  19.660  0.00  0.00    +0.000 OA
ATOM     20  O   UNL     1       1.422   4.802  17.479  0.00  0.00    +0.000 OA
BRANCH  18  21
ATOM     21  N   UNL     1       2.277   3.059  19.126  0.00  0.00    +0.000 NA
ATOM     22  C   UNL     1       1.236   2.791  20.169  0.00  0.00    +0.000 C 
ATOM     23  C   UNL     1       1.766   3.034  21.589  0.00  0.00    +0.000 C 
ATOM     24  O   UNL     1       2.984   2.317  21.840  0.00  0.00    +0.000 OA
ATOM     25  C   UNL     1       3.999   2.682  20.896  0.00  0.00    +0.000 C 
ATOM     26  C   UNL     1       3.552   2.361  19.469  0.00  0.00    +0.000 C 
ENDBRANCH  18  21
ENDBRANCH   5  18
TORSDOF 5
ENDMDL
MODEL 6
REMARK VINA RESULT:      -8.3      1.583      2.066
REMARK  Name = 
REMARK  5 active torsions:
REMARK  status: ('A' for Active; 'I' for Inactive)
REMARK    1  A    between atoms: C_2  and  C_11
REMARK    2  A    between atoms: N_3  and  N_4
REMARK    3  A    between atoms: C_5  and  C_6
REMARK    4  A    between atoms: C_15  and  S_16
REMARK    5  A    between atoms: S_16  and  N_19
REMARK                            x       y       z     vdW  Elec       q    Type
REMARK                         _______ _______ _______ _____ _____    ______ ____
ROOT
ATOM      1  C   UNL     1       6.583   6.022  17.463  0.00  0.00    +0.000 A 
ATOM      2  C   UNL     1       6.836   5.295  16.291  0.00  0.00    +0.000 A 
ATOM      3  C   UNL     1       5.804   4.575  15.682  0.00  0.00    +0.000 A 
ATOM      4  C   UNL     1       4.524   4.564  16.245  0.00  0.00    +0.000 A 
ATOM      5  C   UNL     1       4.273   5.279  17.424  0.00  0.00    +0.000 A 
ATOM      6  C   UNL     1       5.295   6.017  18.022  0.00  0.00    +0.000 A 
ENDROOT
BRANCH   1   8
ATOM      7  O   UNL     1       8.259   6.182  19.083  0.00  0.00    +0.000 OA
ATOM      8  C   UNL     1       7.645   6.769  18.196  0.00  0.00    +0.000 C 
ATOM      9  N   UNL     1       7.840   8.094  17.833  0.00  0.00    +0.000 N 
ATOM     10  H   UNL     1       7.229   8.556  17.171  0.00  0.00    +0.000 HD
BRANCH   9  11
ATOM     11  N   UNL     1       8.779   8.829  18.509  0.00  0.00    +0.000 NA
ATOM     12  C   UNL     1       8.766  10.109  18.315  0.00  0.00    +0.000 C 
BRANCH  12  13
ATOM     13  C   UNL     1       9.707  10.967  18.994  0.00  0.00    +0.000 A 
ATOM     14  C   UNL     1      10.868  11.543  18.515  0.00  0.00    +0.000 A 
ATOM     15  C   UNL     1      11.530  12.332  19.501  0.00  0.00    +0.000 A 
ATOM     16  C   UNL     1      10.850  12.333  20.699  0.00  0.00    +0.000 A 
ATOM     17  S   UNL     1       9.428  11.385  20.630  0.00  0.00    +0.000 S 
ENDBRANCH  12  13
ENDBRANCH   9  11
ENDBRANCH   1   8
BRANCH   5  18
ATOM     18  S   UNL     1       2.615   5.252  18.079  0.00  0.00    +0.000 S 
ATOM     19  O   UNL     1       2.191   6.637  18.112  0.00  0.00    +0.000 OA
ATOM     20  O   UNL     1       1.879   4.253  17.338  0.00  0.00    +0.000 OA
BRANCH  18  21
ATOM     21  N   UNL     1       2.771   4.712  19.679  0.00  0.00    +0.000 NA
ATOM     22  C   UNL     1       3.550   3.454  19.913  0.00  0.00    +0.000 C 
ATOM     23  C   UNL     1       2.664   2.203  19.827  0.00  0.00    +0.000 C 
ATOM     24  O   UNL     1       1.513   2.297  20.679  0.00  0.00    +0.000 OA
ATOM     25  C   UNL     1       0.724   3.449  20.353  0.00  0.00    +0.000 C 
ATOM     26  C   UNL     1       1.540   4.730  20.525  0.00  0.00    +0.000 C 
ENDBRANCH  18  21
ENDBRANCH   5  18
TORSDOF 5
ENDMDL
MODEL 7
REMARK VINA RESULT:      -7.9      1.126      1.626
REMARK  Name = 
REMARK  5 active torsions:
REMARK  status: ('A' for Active; 'I' for Inactive)
REMARK    1  A    between atoms: C_2  and  C_11
REMARK    2  A    between atoms: N_3  and  N_4
REMARK    3  A    between atoms: C_5  and  C_6
REMARK    4  A    between atoms: C_15  and  S_16
REMARK    5  A    between atoms: S_16  and  N_19
REMARK                            x       y       z     vdW  Elec       q    Type
REMARK                         _______ _______ _______ _____ _____    ______ ____
ROOT
ATOM      1  C   UNL     1       6.529   5.755  17.949  0.00  0.00    +0.000 A 
ATOM      2  C   UNL     1       6.094   5.816  16.618  0.00  0.00    +0.000 A 
ATOM      3  C   UNL     1       5.081   4.960  16.176  0.00  0.00    +0.000 A 
ATOM      4  C   UNL     1       4.510   4.033  17.053  0.00  0.00    +0.000 A 
ATOM      5  C   UNL     1       4.953   3.960  18.379  0.00  0.00    +0.000 A 
ATOM      6  C   UNL     1       5.947   4.828  18.830  0.00  0.00    +0.000 A 
ENDROOT
BRANCH   1   8
ATOM      7  O   UNL     1       8.275   6.182  19.441  0.00  0.00    +0.000 OA
ATOM      8  C   UNL     1       7.640   6.598  18.477  0.00  0.00    +0.000 C 
ATOM      9  N   UNL     1       7.852   7.816  17.847  0.00  0.00    +0.000 N 
ATOM     10  H   UNL     1       7.224   8.156  17.129  0.00  0.00    +0.000 HD
BRANCH   9  11
ATOM     11  N   UNL     1       8.836   8.641  18.326  0.00  0.00    +0.000 NA
ATOM     12  C   UNL     1       8.530   9.891  18.469  0.00  0.00    +0.000 C 
BRANCH  12  13
ATOM     13  C   UNL     1       9.497  10.833  18.980  0.00  0.00    +0.000 A 
ATOM     14  C   UNL     1      10.558  11.435  18.332  0.00  0.00    +0.000 A 
ATOM     15  C   UNL     1      11.289  12.312  19.185  0.00  0.00    +0.000 A 
ATOM     16  C   UNL     1      10.759  12.352  20.456  0.00  0.00    +0.000 A 
ATOM     17  S   UNL     1       9.394  11.333  20.614  0.00  0.00    +0.000 S 
ENDBRANCH  12  13
ENDBRANCH   9  11
ENDBRANCH   1   8
BRANCH   5  18
ATOM     18  S   UNL     1       4.167   2.777  19.458  0.00  0.00    +0.000 S 
ATOM     19  O   UNL     1       3.191   2.092  18.634  0.00  0.00    +0.000 OA
ATOM     20  O   UNL     1       5.217   2.058  20.140  0.00  0.00    +0.000 OA
BRANCH  18  21
ATOM     21  N   UNL     1       3.328   3.701  20.607  0.00  0.00    +0.000 NA
ATOM     22  C   UNL     1       2.345   2.989  21.484  0.00  0.00    +0.000 C 
ATOM     23  C   UNL     1       0.946   2.933  20.855  0.00  0.00    +0.000 C 
ATOM     24  O   UNL     1       0.480   4.231  20.458  0.00  0.00    +0.000 OA
ATOM     25  C   UNL     1       1.385   4.838  19.526  0.00  0.00    +0.000 C 
ATOM     26  C   UNL     1       2.771   5.008  20.149  0.00  0.00    +0.000 C 
ENDBRANCH  18  21
ENDBRANCH   5  18
TORSDOF 5
ENDMDL
MODEL 8
REMARK VINA RESULT:      -7.8      1.429      2.191
REMARK  Name = 
REMARK  5 active torsions:
REMARK  status: ('A' for Active; 'I' for Inactive)
REMARK    1  A    between atoms: C_2  and  C_11
REMARK    2  A    between atoms: N_3  and  N_4
REMARK    3  A    between atoms: C_5  and  C_6
REMARK    4  A    between atoms: C_15  and  S_16
REMARK    5  A    between atoms: S_16  and  N_19
REMARK                            x       y       z     vdW  Elec       q    Type
REMARK                         _______ _______ _______ _____ _____    ______ ____
ROOT
ATOM      1  C   UNL     1       6.322   5.646  17.645  0.00  0.00    +0.000 A 
ATOM      2  C   UNL     1       6.547   4.820  16.535  0.00  0.00    +0.000 A 
ATOM      3  C   UNL     1       5.495   4.068  16.002  0.00  0.00    +0.000 A 
ATOM      4  C   UNL     1       4.224   4.125  16.582  0.00  0.00    +0.000 A 
ATOM      5  C   UNL     1       4.001   4.938  17.701  0.00  0.00    +0.000 A 
ATOM      6  C   UNL     1       5.042   5.707  18.221  0.00  0.00    +0.000 A 
ENDROOT
BRANCH   1   8
ATOM      7  O   UNL     1       8.014   5.919  19.232  0.00  0.00    +0.000 OA
ATOM      8  C   UNL     1       7.406   6.434  18.299  0.00  0.00    +0.000 C 
ATOM      9  N   UNL     1       7.625   7.716  17.813  0.00  0.00    +0.000 N 
ATOM     10  H   UNL     1       7.018   8.127  17.116  0.00  0.00    +0.000 HD
BRANCH   9  11
ATOM     11  N   UNL     1       8.585   8.489  18.412  0.00  0.00    +0.000 NA
ATOM     12  C   UNL     1       8.479   9.771  18.256  0.00  0.00    +0.000 C 
BRANCH  12  13
ATOM     13  C   UNL     1       9.435  10.668  18.862  0.00  0.00    +0.000 A 
ATOM     14  C   UNL     1       9.662  10.929  20.199  0.00  0.00    +0.000 A 
ATOM     15  C   UNL     1      10.701  11.886  20.397  0.00  0.00    +0.000 A 
ATOM     16  C   UNL     1      11.232  12.321  19.203  0.00  0.00    +0.000 A 
ATOM     17  S   UNL     1      10.477  11.580  17.857  0.00  0.00    +0.000 S 
ENDBRANCH  12  13
ENDBRANCH   9  11
ENDBRANCH   1   8
BRANCH   5  18
ATOM     18  S   UNL     1       2.353   4.991  18.379  0.00  0.00    +0.000 S 
ATOM     19  O   UNL     1       2.295   6.212  19.158  0.00  0.00    +0.000 OA
ATOM     20  O   UNL     1       1.435   4.743  17.292  0.00  0.00    +0.000 OA
BRANCH  18  21
ATOM     21  N   UNL     1       2.264   3.680  19.452  0.00  0.00    +0.000 NA
ATOM     22  C   UNL     1       3.414   3.472  20.389  0.00  0.00    +0.000 C 
ATOM     23  C   UNL     1       4.508   2.589  19.772  0.00  0.00    +0.000 C 
ATOM     24  O   UNL     1       3.984   1.351  19.272  0.00  0.00    +0.000 OA
ATOM     25  C   UNL     1       2.965   1.583  18.290  0.00  0.00    +0.000 C 
ATOM     26  C   UNL     1       1.804   2.374  18.892  0.00  0.00    +0.000 C 
ENDBRANCH  18  21
ENDBRANCH   5  18
TORSDOF 5
ENDMDL
MODEL 9
REMARK VINA RESULT:      -7.5      6.162      8.387
REMARK  Name = 
REMARK  5 active torsions:
REMARK  status: ('A' for Active; 'I' for Inactive)
REMARK    1  A    between atoms: C_2  and  C_11
REMARK    2  A    between atoms: N_3  and  N_4
REMARK    3  A    between atoms: C_5  and  C_6
REMARK    4  A    between atoms: C_15  and  S_16
REMARK    5  A    between atoms: S_16  and  N_19
REMARK                            x       y       z     vdW  Elec       q    Type
REMARK                         _______ _______ _______ _____ _____    ______ ____
ROOT
ATOM      1  C   UNL     1       1.090   9.026  20.272  0.00  0.00    +0.000 A 
ATOM      2  C   UNL     1       1.240   9.643  19.022  0.00  0.00    +0.000 A 
ATOM      3  C   UNL     1       1.892   8.967  17.986  0.00  0.00    +0.000 A 
ATOM      4  C   UNL     1       2.408   7.685  18.195  0.00  0.00    +0.000 A 
ATOM      5  C   UNL     1       2.271   7.073  19.447  0.00  0.00    +0.000 A 
ATOM      6  C   UNL     1       1.601   7.733  20.477  0.00  0.00    +0.000 A 
ENDROOT
BRANCH   1   8
ATOM      7  O   UNL     1       0.075   9.009  22.376  0.00  0.00    +0.000 OA
ATOM      8  C   UNL     1       0.454   9.704  21.438  0.00  0.00    +0.000 C 
ATOM      9  N   UNL     1       0.313  11.082  21.357  0.00  0.00    +0.000 N 
ATOM     10  H   UNL     1       0.543  11.588  20.511  0.00  0.00    +0.000 HD
BRANCH   9  11
ATOM     11  N   UNL     1      -0.303  11.741  22.389  0.00  0.00    +0.000 NA
ATOM     12  C   UNL     1      -1.385  12.392  22.100  0.00  0.00    +0.000 C 
BRANCH  12  13
ATOM     13  C   UNL     1      -2.111  13.105  23.125  0.00  0.00    +0.000 A 
ATOM     14  C   UNL     1      -3.339  12.814  23.688  0.00  0.00    +0.000 A 
ATOM     15  C   UNL     1      -3.721  13.766  24.677  0.00  0.00    +0.000 A 
ATOM     16  C   UNL     1      -2.772  14.752  24.836  0.00  0.00    +0.000 A 
ATOM     17  S   UNL     1      -1.433  14.526  23.795  0.00  0.00    +0.000 S 
ENDBRANCH  12  13
ENDBRANCH   9  11
ENDBRANCH   1   8
BRANCH   5  18
ATOM     18  S   UNL     1       2.924   5.425  19.646  0.00  0.00    +0.000 S 
ATOM     19  O   UNL     1       4.364   5.568  19.567  0.00  0.00    +0.000 OA
ATOM     20  O   UNL     1       2.284   4.849  20.805  0.00  0.00    +0.000 OA
BRANCH  18  21
ATOM     21  N   UNL     1       2.406   4.567  18.278  0.00  0.00    +0.000 NA
ATOM     22  C   UNL     1       1.307   3.566  18.462  0.00  0.00    +0.000 C 
ATOM     23  C   UNL     1       1.847   2.178  18.836  0.00  0.00    +0.000 C 
ATOM     24  O   UNL     1       2.848   1.723  17.915  0.00  0.00    +0.000 OA
ATOM     25  C   UNL     1       3.944   2.645  17.848  0.00  0.00    +0.000 C 
ATOM     26  C   UNL     1       3.466   4.020  17.379  0.00  0.00    +0.000 C 
ENDBRANCH  18  21
ENDBRANCH   5  18
TORSDOF 5
ENDMDL
