MODEL 1
REMARK VINA RESULT:      -8.6      0.000      0.000
REMARK  Name = 
REMARK  7 active torsions:
REMARK  status: ('A' for Active; 'I' for Inactive)
REMARK    1  A    between atoms: O_1  and  C_2
REMARK    2  A    between atoms: C_5  and  C_6
REMARK    3  A    between atoms: C_6  and  C_7
REMARK    4  A    between atoms: C_15  and  C_16
REMARK    5  A    between atoms: C_16  and  C_17
REMARK    6  A    between atoms: C_25  and  C_26
REMARK    7  A    between atoms: C_26  and  C_27
REMARK                            x       y       z     vdW  Elec       q    Type
REMARK                         _______ _______ _______ _____ _____    ______ ____
ROOT
ATOM      1  C   UNL     1       2.266   8.128  18.936  0.00  0.00    +0.000 C 
ATOM      2  C   UNL     1       1.740   9.391  18.206  0.00  0.00    +0.000 C 
ATOM      3  N   UNL     1       0.668   9.857  19.083  0.00  0.00    +0.000 N 
ATOM      4  C   UNL     1       0.764   9.281  20.331  0.00  0.00    +0.000 C 
ATOM      5  C   UNL     1       0.405   9.832  21.500  0.00  0.00    +0.000 C 
ATOM      6  C   UNL     1      -0.201  11.190  21.622  0.00  0.00    +0.000 C 
ATOM      7  N   UNL     1      -0.048  11.883  22.736  0.00  0.00    +0.000 NA
ATOM      8  C   UNL     1      -0.699  13.198  22.434  0.00  0.00    +0.000 C 
ATOM      9  C   UNL     1      -1.670  12.922  21.284  0.00  0.00    +0.000 C 
ATOM     10  N   UNL     1      -0.980  11.806  20.659  0.00  0.00    +0.000 N 
ATOM     11  C   UNL     1      -0.432  12.017  19.327  0.00  0.00    +0.000 C 
ATOM     12  C   UNL     1      -0.389  10.697  18.544  0.00  0.00    +0.000 C 
ATOM     13  N   UNL     1       1.461   8.094  20.183  0.00  0.00    +0.000 N 
ATOM     14  H   UNL     1       1.916   7.745  21.021  0.00  0.00    +0.000 HD
ENDROOT
BRANCH   1  15
ATOM     15  C   UNL     1       2.070   6.931  18.005  0.00  0.00    +0.000 C 
BRANCH  15  19
ATOM     16  C   UNL     1       4.442   3.577  19.182  0.00  0.00    +0.000 A 
ATOM     17  C   UNL     1       3.143   3.372  18.730  0.00  0.00    +0.000 A 
ATOM     18  C   UNL     1       2.387   4.466  18.317  0.00  0.00    +0.000 A 
ATOM     19  C   UNL     1       2.929   5.757  18.369  0.00  0.00    +0.000 A 
ATOM     20  C   UNL     1       4.258   5.940  18.776  0.00  0.00    +0.000 A 
ATOM     21  C   UNL     1       5.012   4.845  19.192  0.00  0.00    +0.000 A 
BRANCH  16  22
ATOM     22  O   UNL     1       5.194   2.542  19.652  0.00  0.00    +0.000 OA
ATOM     23  H   UNL     1       6.041   2.902  19.959  0.00  0.00    +0.000 HD
ENDBRANCH  16  22
ENDBRANCH  15  19
ENDBRANCH   1  15
BRANCH   9  24
ATOM     24  C   UNL     1      -3.057  12.432  21.745  0.00  0.00    +0.000 C 
BRANCH  24  25
ATOM     25  C   UNL     1      -4.192  13.141  21.059  0.00  0.00    +0.000 A 
ATOM     26  C   UNL     1      -5.110  12.432  20.276  0.00  0.00    +0.000 A 
ATOM     27  C   UNL     1      -6.101  13.107  19.569  0.00  0.00    +0.000 A 
ATOM     28  C   UNL     1      -6.195  14.495  19.654  0.00  0.00    +0.000 A 
ATOM     29  C   UNL     1      -5.310  15.206  20.463  0.00  0.00    +0.000 A 
ATOM     30  C   UNL     1      -4.315  14.532  21.167  0.00  0.00    +0.000 A 
ENDBRANCH  24  25
ENDBRANCH   9  24
BRANCH  12  31
ATOM     31  C   UNL     1      -1.755   9.958  18.520  0.00  0.00    +0.000 C 
BRANCH  31  32
ATOM     32  C   UNL     1      -2.611  10.246  17.299  0.00  0.00    +0.000 A 
ATOM     33  C   UNL     1      -2.334   9.678  16.047  0.00  0.00    +0.000 A 
ATOM     34  C   UNL     1      -3.055  10.051  14.915  0.00  0.00    +0.000 A 
ATOM     35  C   UNL     1      -4.105  10.957  15.027  0.00  0.00    +0.000 A 
ATOM     36  C   UNL     1      -4.447  11.473  16.275  0.00  0.00    +0.000 A 
ATOM     37  C   UNL     1      -3.708  11.117  17.407  0.00  0.00    +0.000 A 
ENDBRANCH  31  32
ENDBRANCH  12  31
TORSDOF 7
ENDMDL
MODEL 2
REMARK VINA RESULT:      -8.5      0.861      1.598
REMARK  Name = 
REMARK  7 active torsions:
REMARK  status: ('A' for Active; 'I' for Inactive)
REMARK    1  A    between atoms: O_1  and  C_2
REMARK    2  A    between atoms: C_5  and  C_6
REMARK    3  A    between atoms: C_6  and  C_7
REMARK    4  A    between atoms: C_15  and  C_16
REMARK    5  A    between atoms: C_16  and  C_17
REMARK    6  A    between atoms: C_25  and  C_26
REMARK    7  A    between atoms: C_26  and  C_27
REMARK                            x       y       z     vdW  Elec       q    Type
REMARK                         _______ _______ _______ _____ _____    ______ ____
ROOT
ATOM      1  C   UNL     1       2.138   8.358  19.530  0.00  0.00    +0.000 C 
ATOM      2  C   UNL     1       1.657   9.625  18.778  0.00  0.00    +0.000 C 
ATOM      3  N   UNL     1       0.494  10.049  19.554  0.00  0.00    +0.000 N 
ATOM      4  C   UNL     1       0.481   9.448  20.794  0.00  0.00    +0.000 C 
ATOM      5  C   UNL     1      -0.002   9.965  21.934  0.00  0.00    +0.000 C 
ATOM      6  C   UNL     1      -0.647  11.307  22.023  0.00  0.00    +0.000 C 
ATOM      7  N   UNL     1      -0.619  11.978  23.160  0.00  0.00    +0.000 NA
ATOM      8  C   UNL     1      -1.268  13.285  22.823  0.00  0.00    +0.000 C 
ATOM      9  C   UNL     1      -2.116  13.015  21.579  0.00  0.00    +0.000 C 
ATOM     10  N   UNL     1      -1.343  11.928  21.001  0.00  0.00    +0.000 N 
ATOM     11  C   UNL     1      -0.674  12.180  19.734  0.00  0.00    +0.000 C 
ATOM     12  C   UNL     1      -0.524  10.880  18.933  0.00  0.00    +0.000 C 
ATOM     13  N   UNL     1       1.217   8.279  20.691  0.00  0.00    +0.000 N 
ATOM     14  H   UNL     1       1.596   7.921  21.562  0.00  0.00    +0.000 HD
ENDROOT
BRANCH   1  15
ATOM     15  C   UNL     1       2.061   7.178  18.560  0.00  0.00    +0.000 C 
BRANCH  15  19
ATOM     16  C   UNL     1       5.654   4.898  18.177  0.00  0.00    +0.000 A 
ATOM     17  C   UNL     1       5.391   5.918  17.268  0.00  0.00    +0.000 A 
ATOM     18  C   UNL     1       4.234   6.678  17.419  0.00  0.00    +0.000 A 
ATOM     19  C   UNL     1       3.344   6.409  18.467  0.00  0.00    +0.000 A 
ATOM     20  C   UNL     1       3.651   5.413  19.404  0.00  0.00    +0.000 A 
ATOM     21  C   UNL     1       4.808   4.651  19.251  0.00  0.00    +0.000 A 
BRANCH  16  22
ATOM     22  O   UNL     1       6.744   4.091  18.030  0.00  0.00    +0.000 OA
ATOM     23  H   UNL     1       7.506   4.653  17.818  0.00  0.00    +0.000 HD
ENDBRANCH  16  22
ENDBRANCH  15  19
ENDBRANCH   1  15
BRANCH   9  24
ATOM     24  C   UNL     1      -3.529  12.486  21.892  0.00  0.00    +0.000 C 
BRANCH  24  25
ATOM     25  C   UNL     1      -4.593  13.083  21.011  0.00  0.00    +0.000 A 
ATOM     26  C   UNL     1      -4.695  14.468  20.852  0.00  0.00    +0.000 A 
ATOM     27  C   UNL     1      -5.739  15.016  20.112  0.00  0.00    +0.000 A 
ATOM     28  C   UNL     1      -6.677  14.181  19.507  0.00  0.00    +0.000 A 
ATOM     29  C   UNL     1      -6.560  12.798  19.627  0.00  0.00    +0.000 A 
ATOM     30  C   UNL     1      -5.520  12.249  20.372  0.00  0.00    +0.000 A 
ENDBRANCH  24  25
ENDBRANCH   9  24
BRANCH  12  31
ATOM     31  C   UNL     1      -1.865  10.113  18.760  0.00  0.00    +0.000 C 
BRANCH  31  32
ATOM     32  C   UNL     1      -2.604  10.410  17.467  0.00  0.00    +0.000 A 
ATOM     33  C   UNL     1      -3.741  11.230  17.434  0.00  0.00    +0.000 A 
ATOM     34  C   UNL     1      -4.477  11.389  16.261  0.00  0.00    +0.000 A 
ATOM     35  C   UNL     1      -4.053  10.775  15.086  0.00  0.00    +0.000 A 
ATOM     36  C   UNL     1      -2.883  10.019  15.081  0.00  0.00    +0.000 A 
ATOM     37  C   UNL     1      -2.159   9.840  16.263  0.00  0.00    +0.000 A 
ENDBRANCH  31  32
ENDBRANCH  12  31
TORSDOF 7
ENDMDL
MODEL 3
REMARK VINA RESULT:      -8.3      1.204      1.813
REMARK  Name = 
REMARK  7 active torsions:
REMARK  status: ('A' for Active; 'I' for Inactive)
REMARK    1  A    between atoms: O_1  and  C_2
REMARK    2  A    between atoms: C_5  and  C_6
REMARK    3  A    between atoms: C_6  and  C_7
REMARK    4  A    between atoms: C_15  and  C_16
REMARK    5  A    between atoms: C_16  and  C_17
REMARK    6  A    between atoms: C_25  and  C_26
REMARK    7  A    between atoms: C_26  and  C_27
REMARK                            x       y       z     vdW  Elec       q    Type
REMARK                         _______ _______ _______ _____ _____    ______ ____
ROOT
ATOM      1  C   UNL     1       2.462   7.731  18.909  0.00  0.00    +0.000 C 
ATOM      2  C   UNL     1       1.963   8.893  18.011  0.00  0.00    +0.000 C 
ATOM      3  N   UNL     1       0.921   9.516  18.824  0.00  0.00    +0.000 N 
ATOM      4  C   UNL     1       1.020   9.122  20.141  0.00  0.00    +0.000 C 
ATOM      5  C   UNL     1       0.698   9.846  21.223  0.00  0.00    +0.000 C 
ATOM      6  C   UNL     1       0.138  11.227  21.156  0.00  0.00    +0.000 C 
ATOM      7  N   UNL     1       0.331  12.068  22.156  0.00  0.00    +0.000 NA
ATOM      8  C   UNL     1      -0.284  13.346  21.676  0.00  0.00    +0.000 C 
ATOM      9  C   UNL     1      -1.282  12.942  20.590  0.00  0.00    +0.000 C 
ATOM     10  N   UNL     1      -0.638  11.725  20.123  0.00  0.00    +0.000 N 
ATOM     11  C   UNL     1      -0.107  11.725  18.769  0.00  0.00    +0.000 C 
ATOM     12  C   UNL     1      -0.117  10.305  18.184  0.00  0.00    +0.000 C 
ATOM     13  N   UNL     1       1.677   7.903  20.157  0.00  0.00    +0.000 N 
ATOM     14  H   UNL     1       2.134   7.663  21.031  0.00  0.00    +0.000 HD
ENDROOT
BRANCH   1  15
ATOM     15  C   UNL     1       2.213   6.420  18.162  0.00  0.00    +0.000 C 
BRANCH  15  19
ATOM     16  C   UNL     1       4.469   3.087  19.595  0.00  0.00    +0.000 A 
ATOM     17  C   UNL     1       5.136   4.188  19.066  0.00  0.00    +0.000 A 
ATOM     18  C   UNL     1       4.394   5.284  18.631  0.00  0.00    +0.000 A 
ATOM     19  C   UNL     1       2.997   5.270  18.717  0.00  0.00    +0.000 A 
ATOM     20  C   UNL     1       2.345   4.175  19.302  0.00  0.00    +0.000 A 
ATOM     21  C   UNL     1       3.086   3.077  19.734  0.00  0.00    +0.000 A 
BRANCH  16  22
ATOM     22  O   UNL     1       5.152   1.970  19.976  0.00  0.00    +0.000 OA
ATOM     23  H   UNL     1       5.827   2.237  20.619  0.00  0.00    +0.000 HD
ENDBRANCH  16  22
ENDBRANCH  15  19
ENDBRANCH   1  15
BRANCH   9  24
ATOM     24  C   UNL     1      -2.676  12.569  21.133  0.00  0.00    +0.000 C 
BRANCH  24  25
ATOM     25  C   UNL     1      -3.152  13.492  22.222  0.00  0.00    +0.000 A 
ATOM     26  C   UNL     1      -3.196  13.065  23.553  0.00  0.00    +0.000 A 
ATOM     27  C   UNL     1      -3.726  13.892  24.540  0.00  0.00    +0.000 A 
ATOM     28  C   UNL     1      -4.198  15.160  24.206  0.00  0.00    +0.000 A 
ATOM     29  C   UNL     1      -4.121  15.609  22.889  0.00  0.00    +0.000 A 
ATOM     30  C   UNL     1      -3.596  14.781  21.900  0.00  0.00    +0.000 A 
ENDBRANCH  24  25
ENDBRANCH   9  24
BRANCH  12  31
ATOM     31  C   UNL     1      -1.507   9.616  18.282  0.00  0.00    +0.000 C 
BRANCH  31  32
ATOM     32  C   UNL     1      -2.565  10.183  17.351  0.00  0.00    +0.000 A 
ATOM     33  C   UNL     1      -2.477  10.046  15.958  0.00  0.00    +0.000 A 
ATOM     34  C   UNL     1      -3.390  10.679  15.117  0.00  0.00    +0.000 A 
ATOM     35  C   UNL     1      -4.442  11.412  15.658  0.00  0.00    +0.000 A 
ATOM     36  C   UNL     1      -4.591  11.494  17.041  0.00  0.00    +0.000 A 
ATOM     37  C   UNL     1      -3.661  10.880  17.884  0.00  0.00    +0.000 A 
ENDBRANCH  31  32
ENDBRANCH  12  31
TORSDOF 7
ENDMDL
MODEL 4
REMARK VINA RESULT:      -8.3      0.431      1.169
REMARK  Name = 
REMARK  7 active torsions:
REMARK  status: ('A' for Active; 'I' for Inactive)
REMARK    1  A    between atoms: O_1  and  C_2
REMARK    2  A    between atoms: C_5  and  C_6
REMARK    3  A    between atoms: C_6  and  C_7
REMARK    4  A    between atoms: C_15  and  C_16
REMARK    5  A    between atoms: C_16  and  C_17
REMARK    6  A    between atoms: C_25  and  C_26
REMARK    7  A    between atoms: C_26  and  C_27
REMARK                            x       y       z     vdW  Elec       q    Type
REMARK                         _______ _______ _______ _____ _____    ______ ____
ROOT
ATOM      1  C   UNL     1       2.313   8.249  18.900  0.00  0.00    +0.000 C 
ATOM      2  C   UNL     1       1.755   9.512  18.195  0.00  0.00    +0.000 C 
ATOM      3  N   UNL     1       0.676   9.937  19.083  0.00  0.00    +0.000 N 
ATOM      4  C   UNL     1       0.789   9.341  20.320  0.00  0.00    +0.000 C 
ATOM      5  C   UNL     1       0.422   9.863  21.500  0.00  0.00    +0.000 C 
ATOM      6  C   UNL     1      -0.215  11.204  21.648  0.00  0.00    +0.000 C 
ATOM      7  N   UNL     1      -0.074  11.880  22.774  0.00  0.00    +0.000 NA
ATOM      8  C   UNL     1      -0.758  13.184  22.498  0.00  0.00    +0.000 C 
ATOM      9  C   UNL     1      -1.726  12.907  21.346  0.00  0.00    +0.000 C 
ATOM     10  N   UNL     1      -1.012  11.818  20.699  0.00  0.00    +0.000 N 
ATOM     11  C   UNL     1      -0.475  12.066  19.370  0.00  0.00    +0.000 C 
ATOM     12  C   UNL     1      -0.403  10.762  18.563  0.00  0.00    +0.000 C 
ATOM     13  N   UNL     1       1.514   8.174  20.149  0.00  0.00    +0.000 N 
ATOM     14  H   UNL     1       1.980   7.821  20.978  0.00  0.00    +0.000 HD
ENDROOT
BRANCH   1  15
ATOM     15  C   UNL     1       2.142   7.065  17.948  0.00  0.00    +0.000 C 
BRANCH  15  19
ATOM     16  C   UNL     1       4.325   3.576  19.099  0.00  0.00    +0.000 A 
ATOM     17  C   UNL     1       4.890   4.833  19.294  0.00  0.00    +0.000 A 
ATOM     18  C   UNL     1       4.159   5.966  18.946  0.00  0.00    +0.000 A 
ATOM     19  C   UNL     1       2.876   5.838  18.398  0.00  0.00    +0.000 A 
ATOM     20  C   UNL     1       2.301   4.568  18.259  0.00  0.00    +0.000 A 
ATOM     21  C   UNL     1       3.034   3.433  18.604  0.00  0.00    +0.000 A 
BRANCH  16  22
ATOM     22  O   UNL     1       5.029   2.440  19.368  0.00  0.00    +0.000 OA
ATOM     23  H   UNL     1       5.644   2.635  20.093  0.00  0.00    +0.000 HD
ENDBRANCH  16  22
ENDBRANCH  15  19
ENDBRANCH   1  15
BRANCH   9  24
ATOM     24  C   UNL     1      -3.099  12.375  21.803  0.00  0.00    +0.000 C 
BRANCH  24  25
ATOM     25  C   UNL     1      -4.243  13.259  21.386  0.00  0.00    +0.000 A 
ATOM     26  C   UNL     1      -4.729  14.251  22.242  0.00  0.00    +0.000 A 
ATOM     27  C   UNL     1      -5.848  15.001  21.888  0.00  0.00    +0.000 A 
ATOM     28  C   UNL     1      -6.477  14.776  20.664  0.00  0.00    +0.000 A 
ATOM     29  C   UNL     1      -5.975  13.817  19.787  0.00  0.00    +0.000 A 
ATOM     30  C   UNL     1      -4.860  13.063  20.143  0.00  0.00    +0.000 A 
ENDBRANCH  24  25
ENDBRANCH   9  24
BRANCH  12  31
ATOM     31  C   UNL     1      -1.752   9.991  18.530  0.00  0.00    +0.000 C 
BRANCH  31  32
ATOM     32  C   UNL     1      -2.591  10.233  17.288  0.00  0.00    +0.000 A 
ATOM     33  C   UNL     1      -2.255   9.676  16.045  0.00  0.00    +0.000 A 
ATOM     34  C   UNL     1      -2.966  10.011  14.894  0.00  0.00    +0.000 A 
ATOM     35  C   UNL     1      -4.063  10.863  14.977  0.00  0.00    +0.000 A 
ATOM     36  C   UNL     1      -4.460  11.364  16.215  0.00  0.00    +0.000 A 
ATOM     37  C   UNL     1      -3.732  11.049  17.366  0.00  0.00    +0.000 A 
ENDBRANCH  31  32
ENDBRANCH  12  31
TORSDOF 7
ENDMDL
MODEL 5
REMARK VINA RESULT:      -8.3      0.927      1.291
REMARK  Name = 
REMARK  7 active torsions:
REMARK  status: ('A' for Active; 'I' for Inactive)
REMARK    1  A    between atoms: O_1  and  C_2
REMARK    2  A    between atoms: C_5  and  C_6
REMARK    3  A    between atoms: C_6  and  C_7
REMARK    4  A    between atoms: C_15  and  C_16
REMARK    5  A    between atoms: C_16  and  C_17
REMARK    6  A    between atoms: C_25  and  C_26
REMARK    7  A    between atoms: C_26  and  C_27
REMARK                            x       y       z     vdW  Elec       q    Type
REMARK                         _______ _______ _______ _____ _____    ______ ____
ROOT
ATOM      1  C   UNL     1       2.001   8.964  19.136  0.00  0.00    +0.000 C 
ATOM      2  C   UNL     1       1.409  10.240  18.482  0.00  0.00    +0.000 C 
ATOM      3  N   UNL     1       0.304  10.585  19.373  0.00  0.00    +0.000 N 
ATOM      4  C   UNL     1       0.421   9.935  20.582  0.00  0.00    +0.000 C 
ATOM      5  C   UNL     1       0.020  10.387  21.780  0.00  0.00    +0.000 C 
ATOM      6  C   UNL     1      -0.665  11.697  21.982  0.00  0.00    +0.000 C 
ATOM      7  N   UNL     1      -0.563  12.323  23.140  0.00  0.00    +0.000 NA
ATOM      8  C   UNL     1      -1.287  13.615  22.915  0.00  0.00    +0.000 C 
ATOM      9  C   UNL     1      -2.229  13.361  21.737  0.00  0.00    +0.000 C 
ATOM     10  N   UNL     1      -1.469  12.329  21.050  0.00  0.00    +0.000 N 
ATOM     11  C   UNL     1      -0.923  12.658  19.742  0.00  0.00    +0.000 C 
ATOM     12  C   UNL     1      -0.795  11.397  18.876  0.00  0.00    +0.000 C 
ATOM     13  N   UNL     1       1.188   8.802  20.367  0.00  0.00    +0.000 N 
ATOM     14  H   UNL     1       1.654   8.426  21.186  0.00  0.00    +0.000 HD
ENDROOT
BRANCH   1  15
ATOM     15  C   UNL     1       1.884   7.822  18.126  0.00  0.00    +0.000 C 
BRANCH  15  19
ATOM     16  C   UNL     1       4.986   4.942  18.712  0.00  0.00    +0.000 A 
ATOM     17  C   UNL     1       3.850   4.898  19.515  0.00  0.00    +0.000 A 
ATOM     18  C   UNL     1       2.830   5.819  19.296  0.00  0.00    +0.000 A 
ATOM     19  C   UNL     1       2.953   6.783  18.287  0.00  0.00    +0.000 A 
ATOM     20  C   UNL     1       4.079   6.780  17.453  0.00  0.00    +0.000 A 
ATOM     21  C   UNL     1       5.103   5.859  17.674  0.00  0.00    +0.000 A 
BRANCH  16  22
ATOM     22  O   UNL     1       6.034   4.099  18.932  0.00  0.00    +0.000 OA
ATOM     23  H   UNL     1       6.745   4.339  18.317  0.00  0.00    +0.000 HD
ENDBRANCH  16  22
ENDBRANCH  15  19
ENDBRANCH   1  15
BRANCH   9  24
ATOM     24  C   UNL     1      -3.589  12.762  22.147  0.00  0.00    +0.000 C 
BRANCH  24  25
ATOM     25  C   UNL     1      -4.683  13.046  21.154  0.00  0.00    +0.000 A 
ATOM     26  C   UNL     1      -5.053  14.361  20.853  0.00  0.00    +0.000 A 
ATOM     27  C   UNL     1      -6.128  14.613  20.006  0.00  0.00    +0.000 A 
ATOM     28  C   UNL     1      -6.829  13.552  19.436  0.00  0.00    +0.000 A 
ATOM     29  C   UNL     1      -6.443  12.239  19.697  0.00  0.00    +0.000 A 
ATOM     30  C   UNL     1      -5.371  11.985  20.550  0.00  0.00    +0.000 A 
ENDBRANCH  24  25
ENDBRANCH   9  24
BRANCH  12  31
ATOM     31  C   UNL     1      -2.116  10.584  18.786  0.00  0.00    +0.000 C 
BRANCH  31  32
ATOM     32  C   UNL     1      -2.739  10.536  17.402  0.00  0.00    +0.000 A 
ATOM     33  C   UNL     1      -2.186   9.771  16.364  0.00  0.00    +0.000 A 
ATOM     34  C   UNL     1      -2.700   9.839  15.071  0.00  0.00    +0.000 A 
ATOM     35  C   UNL     1      -3.814  10.630  14.806  0.00  0.00    +0.000 A 
ATOM     36  C   UNL     1      -4.425  11.336  15.840  0.00  0.00    +0.000 A 
ATOM     37  C   UNL     1      -3.895  11.288  17.132  0.00  0.00    +0.000 A 
ENDBRANCH  31  32
ENDBRANCH  12  31
TORSDOF 7
ENDMDL
MODEL 6
REMARK VINA RESULT:      -8.2      0.998      1.648
REMARK  Name = 
REMARK  7 active torsions:
REMARK  status: ('A' for Active; 'I' for Inactive)
REMARK    1  A    between atoms: O_1  and  C_2
REMARK    2  A    between atoms: C_5  and  C_6
REMARK    3  A    between atoms: C_6  and  C_7
REMARK    4  A    between atoms: C_15  and  C_16
REMARK    5  A    between atoms: C_16  and  C_17
REMARK    6  A    between atoms: C_25  and  C_26
REMARK    7  A    between atoms: C_26  and  C_27
REMARK                            x       y       z     vdW  Elec       q    Type
REMARK                         _______ _______ _______ _____ _____    ______ ____
ROOT
ATOM      1  C   UNL     1       2.250   8.171  19.208  0.00  0.00    +0.000 C 
ATOM      2  C   UNL     1       1.756   9.462  18.505  0.00  0.00    +0.000 C 
ATOM      3  N   UNL     1       0.630   9.881  19.336  0.00  0.00    +0.000 N 
ATOM      4  C   UNL     1       0.656   9.250  20.560  0.00  0.00    +0.000 C 
ATOM      5  C   UNL     1       0.223   9.745  21.729  0.00  0.00    +0.000 C 
ATOM      6  C   UNL     1      -0.401  11.092  21.875  0.00  0.00    +0.000 C 
ATOM      7  N   UNL     1      -0.321  11.736  23.026  0.00  0.00    +0.000 NA
ATOM      8  C   UNL     1      -0.965  13.058  22.745  0.00  0.00    +0.000 C 
ATOM      9  C   UNL     1      -1.863  12.829  21.527  0.00  0.00    +0.000 C 
ATOM     10  N   UNL     1      -1.127  11.746  20.896  0.00  0.00    +0.000 N 
ATOM     11  C   UNL     1      -0.503  12.021  19.610  0.00  0.00    +0.000 C 
ATOM     12  C   UNL     1      -0.401  10.738  18.773  0.00  0.00    +0.000 C 
ATOM     13  N   UNL     1       1.373   8.075  20.402  0.00  0.00    +0.000 N 
ATOM     14  H   UNL     1       1.779   7.692  21.249  0.00  0.00    +0.000 HD
ENDROOT
BRANCH   1  15
ATOM     15  C   UNL     1       2.121   7.016  18.215  0.00  0.00    +0.000 C 
BRANCH  15  19
ATOM     16  C   UNL     1       4.312   3.504  19.276  0.00  0.00    +0.000 A 
ATOM     17  C   UNL     1       4.976   4.724  19.182  0.00  0.00    +0.000 A 
ATOM     18  C   UNL     1       4.249   5.869  18.868  0.00  0.00    +0.000 A 
ATOM     19  C   UNL     1       2.869   5.789  18.639  0.00  0.00    +0.000 A 
ATOM     20  C   UNL     1       2.207   4.562  18.791  0.00  0.00    +0.000 A 
ATOM     21  C   UNL     1       2.936   3.415  19.103  0.00  0.00    +0.000 A 
BRANCH  16  22
ATOM     22  O   UNL     1       4.995   2.350  19.521  0.00  0.00    +0.000 OA
ATOM     23  H   UNL     1       4.760   1.711  18.830  0.00  0.00    +0.000 HD
ENDBRANCH  16  22
ENDBRANCH  15  19
ENDBRANCH   1  15
BRANCH   9  24
ATOM     24  C   UNL     1      -3.270  12.309  21.882  0.00  0.00    +0.000 C 
BRANCH  24  25
ATOM     25  C   UNL     1      -4.193  13.390  22.373  0.00  0.00    +0.000 A 
ATOM     26  C   UNL     1      -5.186  13.109  23.318  0.00  0.00    +0.000 A 
ATOM     27  C   UNL     1      -6.096  14.092  23.696  0.00  0.00    +0.000 A 
ATOM     28  C   UNL     1      -6.008  15.371  23.148  0.00  0.00    +0.000 A 
ATOM     29  C   UNL     1      -4.997  15.672  22.237  0.00  0.00    +0.000 A 
ATOM     30  C   UNL     1      -4.090  14.687  21.853  0.00  0.00    +0.000 A 
ENDBRANCH  24  25
ENDBRANCH   9  24
BRANCH  12  31
ATOM     31  C   UNL     1      -1.756   9.992  18.634  0.00  0.00    +0.000 C 
BRANCH  31  32
ATOM     32  C   UNL     1      -2.544  10.334  17.382  0.00  0.00    +0.000 A 
ATOM     33  C   UNL     1      -3.664  11.178  17.416  0.00  0.00    +0.000 A 
ATOM     34  C   UNL     1      -4.445  11.380  16.281  0.00  0.00    +0.000 A 
ATOM     35  C   UNL     1      -4.086  10.785  15.075  0.00  0.00    +0.000 A 
ATOM     36  C   UNL     1      -2.934  10.006  15.002  0.00  0.00    +0.000 A 
ATOM     37  C   UNL     1      -2.163   9.784  16.147  0.00  0.00    +0.000 A 
ENDBRANCH  31  32
ENDBRANCH  12  31
TORSDOF 7
ENDMDL
MODEL 7
REMARK VINA RESULT:      -8.2      0.929      1.503
REMARK  Name = 
REMARK  7 active torsions:
REMARK  status: ('A' for Active; 'I' for Inactive)
REMARK    1  A    between atoms: O_1  and  C_2
REMARK    2  A    between atoms: C_5  and  C_6
REMARK    3  A    between atoms: C_6  and  C_7
REMARK    4  A    between atoms: C_15  and  C_16
REMARK    5  A    between atoms: C_16  and  C_17
REMARK    6  A    between atoms: C_25  and  C_26
REMARK    7  A    between atoms: C_26  and  C_27
REMARK                            x       y       z     vdW  Elec       q    Type
REMARK                         _______ _______ _______ _____ _____    ______ ____
ROOT
ATOM      1  C   UNL     1       2.365   8.284  18.907  0.00  0.00    +0.000 C 
ATOM      2  C   UNL     1       1.794   9.550  18.217  0.00  0.00    +0.000 C 
ATOM      3  N   UNL     1       0.689   9.934  19.091  0.00  0.00    +0.000 N 
ATOM      4  C   UNL     1       0.789   9.315  20.317  0.00  0.00    +0.000 C 
ATOM      5  C   UNL     1       0.387   9.803  21.500  0.00  0.00    +0.000 C 
ATOM      6  C   UNL     1      -0.280  11.128  21.663  0.00  0.00    +0.000 C 
ATOM      7  N   UNL     1      -0.177  11.783  22.805  0.00  0.00    +0.000 NA
ATOM      8  C   UNL     1      -0.881  13.078  22.542  0.00  0.00    +0.000 C 
ATOM      9  C   UNL     1      -1.820  12.806  21.365  0.00  0.00    +0.000 C 
ATOM     10  N   UNL     1      -1.070  11.746  20.710  0.00  0.00    +0.000 N 
ATOM     11  C   UNL     1      -0.511  12.033  19.398  0.00  0.00    +0.000 C 
ATOM     12  C   UNL     1      -0.396  10.748  18.566  0.00  0.00    +0.000 C 
ATOM     13  N   UNL     1       1.542   8.166  20.137  0.00  0.00    +0.000 N 
ATOM     14  H   UNL     1       1.997   7.805  20.969  0.00  0.00    +0.000 HD
ENDROOT
BRANCH   1  15
ATOM     15  C   UNL     1       2.237   7.117  17.927  0.00  0.00    +0.000 C 
BRANCH  15  19
ATOM     16  C   UNL     1       5.771   4.714  17.895  0.00  0.00    +0.000 A 
ATOM     17  C   UNL     1       4.560   4.147  18.280  0.00  0.00    +0.000 A 
ATOM     18  C   UNL     1       3.408   4.928  18.257  0.00  0.00    +0.000 A 
ATOM     19  C   UNL     1       3.471   6.269  17.860  0.00  0.00    +0.000 A 
ATOM     20  C   UNL     1       4.689   6.810  17.424  0.00  0.00    +0.000 A 
ATOM     21  C   UNL     1       5.843   6.029  17.450  0.00  0.00    +0.000 A 
BRANCH  16  22
ATOM     22  O   UNL     1       6.932   4.003  17.961  0.00  0.00    +0.000 OA
ATOM     23  H   UNL     1       6.769   3.214  18.501  0.00  0.00    +0.000 HD
ENDBRANCH  16  22
ENDBRANCH  15  19
ENDBRANCH   1  15
BRANCH   9  24
ATOM     24  C   UNL     1      -3.191  12.237  21.782  0.00  0.00    +0.000 C 
BRANCH  24  25
ATOM     25  C   UNL     1      -4.348  13.056  21.279  0.00  0.00    +0.000 A 
ATOM     26  C   UNL     1      -4.155  14.368  20.833  0.00  0.00    +0.000 A 
ATOM     27  C   UNL     1      -5.244  15.151  20.460  0.00  0.00    +0.000 A 
ATOM     28  C   UNL     1      -6.532  14.621  20.510  0.00  0.00    +0.000 A 
ATOM     29  C   UNL     1      -6.730  13.303  20.914  0.00  0.00    +0.000 A 
ATOM     30  C   UNL     1      -5.642  12.520  21.294  0.00  0.00    +0.000 A 
ENDBRANCH  24  25
ENDBRANCH   9  24
BRANCH  12  31
ATOM     31  C   UNL     1      -1.728   9.951  18.488  0.00  0.00    +0.000 C 
BRANCH  31  32
ATOM     32  C   UNL     1      -2.825  10.623  17.682  0.00  0.00    +0.000 A 
ATOM     33  C   UNL     1      -3.915  11.258  18.296  0.00  0.00    +0.000 A 
ATOM     34  C   UNL     1      -4.972  11.759  17.540  0.00  0.00    +0.000 A 
ATOM     35  C   UNL     1      -4.929  11.686  16.151  0.00  0.00    +0.000 A 
ATOM     36  C   UNL     1      -3.819  11.130  15.520  0.00  0.00    +0.000 A 
ATOM     37  C   UNL     1      -2.769  10.605  16.279  0.00  0.00    +0.000 A 
ENDBRANCH  31  32
ENDBRANCH  12  31
TORSDOF 7
ENDMDL
MODEL 8
REMARK VINA RESULT:      -8.2      0.833      1.413
REMARK  Name = 
REMARK  7 active torsions:
REMARK  status: ('A' for Active; 'I' for Inactive)
REMARK    1  A    between atoms: O_1  and  C_2
REMARK    2  A    between atoms: C_5  and  C_6
REMARK    3  A    between atoms: C_6  and  C_7
REMARK    4  A    between atoms: C_15  and  C_16
REMARK    5  A    between atoms: C_16  and  C_17
REMARK    6  A    between atoms: C_25  and  C_26
REMARK    7  A    between atoms: C_26  and  C_27
REMARK                            x       y       z     vdW  Elec       q    Type
REMARK                         _______ _______ _______ _____ _____    ______ ____
ROOT
ATOM      1  C   UNL     1       2.379   7.753  19.095  0.00  0.00    +0.000 C 
ATOM      2  C   UNL     1       1.934   9.029  18.336  0.00  0.00    +0.000 C 
ATOM      3  N   UNL     1       0.829   9.530  19.150  0.00  0.00    +0.000 N 
ATOM      4  C   UNL     1       0.836   8.954  20.402  0.00  0.00    +0.000 C 
ATOM      5  C   UNL     1       0.428   9.518  21.549  0.00  0.00    +0.000 C 
ATOM      6  C   UNL     1      -0.141  10.894  21.636  0.00  0.00    +0.000 C 
ATOM      7  N   UNL     1      -0.031  11.584  22.756  0.00  0.00    +0.000 NA
ATOM      8  C   UNL     1      -0.624  12.918  22.417  0.00  0.00    +0.000 C 
ATOM      9  C   UNL     1      -1.536  12.669  21.214  0.00  0.00    +0.000 C 
ATOM     10  N   UNL     1      -0.846  11.531  20.630  0.00  0.00    +0.000 N 
ATOM     11  C   UNL     1      -0.218  11.723  19.331  0.00  0.00    +0.000 C 
ATOM     12  C   UNL     1      -0.170  10.401  18.553  0.00  0.00    +0.000 C 
ATOM     13  N   UNL     1       1.504   7.745  20.295  0.00  0.00    +0.000 N 
ATOM     14  H   UNL     1       1.900   7.385  21.157  0.00  0.00    +0.000 HD
ENDROOT
BRANCH   1  15
ATOM     15  C   UNL     1       2.200   6.560  18.155  0.00  0.00    +0.000 C 
BRANCH  15  19
ATOM     16  C   UNL     1       4.479   3.182  19.440  0.00  0.00    +0.000 A 
ATOM     17  C   UNL     1       3.116   3.038  19.204  0.00  0.00    +0.000 A 
ATOM     18  C   UNL     1       2.386   4.136  18.754  0.00  0.00    +0.000 A 
ATOM     19  C   UNL     1       3.018   5.369  18.553  0.00  0.00    +0.000 A 
ATOM     20  C   UNL     1       4.402   5.483  18.744  0.00  0.00    +0.000 A 
ATOM     21  C   UNL     1       5.132   4.385  19.198  0.00  0.00    +0.000 A 
BRANCH  16  22
ATOM     22  O   UNL     1       5.218   2.151  19.940  0.00  0.00    +0.000 OA
ATOM     23  H   UNL     1       5.865   1.893  19.264  0.00  0.00    +0.000 HD
ENDBRANCH  16  22
ENDBRANCH  15  19
ENDBRANCH   1  15
BRANCH   9  24
ATOM     24  C   UNL     1      -2.961  12.222  21.596  0.00  0.00    +0.000 C 
BRANCH  24  25
ATOM     25  C   UNL     1      -3.865  13.370  21.952  0.00  0.00    +0.000 A 
ATOM     26  C   UNL     1      -4.387  14.204  20.958  0.00  0.00    +0.000 A 
ATOM     27  C   UNL     1      -5.145  15.320  21.302  0.00  0.00    +0.000 A 
ATOM     28  C   UNL     1      -5.405  15.599  22.643  0.00  0.00    +0.000 A 
ATOM     29  C   UNL     1      -4.923  14.751  23.638  0.00  0.00    +0.000 A 
ATOM     30  C   UNL     1      -4.159  13.638  23.296  0.00  0.00    +0.000 A 
ENDBRANCH  24  25
ENDBRANCH   9  24
BRANCH  12  31
ATOM     31  C   UNL     1      -1.555   9.703  18.451  0.00  0.00    +0.000 C 
BRANCH  31  32
ATOM     32  C   UNL     1      -2.552  10.400  17.542  0.00  0.00    +0.000 A 
ATOM     33  C   UNL     1      -3.621  11.153  18.051  0.00  0.00    +0.000 A 
ATOM     34  C   UNL     1      -4.594  11.679  17.204  0.00  0.00    +0.000 A 
ATOM     35  C   UNL     1      -4.483  11.511  15.827  0.00  0.00    +0.000 A 
ATOM     36  C   UNL     1      -3.387  10.834  15.297  0.00  0.00    +0.000 A 
ATOM     37  C   UNL     1      -2.423  10.284  16.148  0.00  0.00    +0.000 A 
ENDBRANCH  31  32
ENDBRANCH  12  31
TORSDOF 7
ENDMDL
MODEL 9
REMARK VINA RESULT:      -8.2      1.482      2.247
REMARK  Name = 
REMARK  7 active torsions:
REMARK  status: ('A' for Active; 'I' for Inactive)
REMARK    1  A    between atoms: O_1  and  C_2
REMARK    2  A    between atoms: C_5  and  C_6
REMARK    3  A    between atoms: C_6  and  C_7
REMARK    4  A    between atoms: C_15  and  C_16
REMARK    5  A    between atoms: C_16  and  C_17
REMARK    6  A    between atoms: C_25  and  C_26
REMARK    7  A    between atoms: C_26  and  C_27
REMARK                            x       y       z     vdW  Elec       q    Type
REMARK                         _______ _______ _______ _____ _____    ______ ____
ROOT
ATOM      1  C   UNL     1       2.337   7.469  19.811  0.00  0.00    +0.000 C 
ATOM      2  C   UNL     1       2.027   8.593  18.788  0.00  0.00    +0.000 C 
ATOM      3  N   UNL     1       0.932   9.324  19.421  0.00  0.00    +0.000 N 
ATOM      4  C   UNL     1       0.841   9.015  20.761  0.00  0.00    +0.000 C 
ATOM      5  C   UNL     1       0.432   9.827  21.747  0.00  0.00    +0.000 C 
ATOM      6  C   UNL     1      -0.029  11.228  21.525  0.00  0.00    +0.000 C 
ATOM      7  N   UNL     1       0.089  12.123  22.490  0.00  0.00    +0.000 NA
ATOM      8  C   UNL     1      -0.381  13.397  21.859  0.00  0.00    +0.000 C 
ATOM      9  C   UNL     1      -1.259  12.974  20.679  0.00  0.00    +0.000 C 
ATOM     10  N   UNL     1      -0.638  11.695  20.374  0.00  0.00    +0.000 N 
ATOM     11  C   UNL     1       0.057  11.575  19.101  0.00  0.00    +0.000 C 
ATOM     12  C   UNL     1       0.032  10.122  18.606  0.00  0.00    +0.000 C 
ATOM     13  N   UNL     1       1.415   7.767  20.936  0.00  0.00    +0.000 N 
ATOM     14  H   UNL     1       1.744   7.562  21.873  0.00  0.00    +0.000 HD
ENDROOT
BRANCH   1  15
ATOM     15  C   UNL     1       2.103   6.126  19.118  0.00  0.00    +0.000 C 
BRANCH  15  19
ATOM     16  C   UNL     1       5.757   4.467  17.649  0.00  0.00    +0.000 A 
ATOM     17  C   UNL     1       5.748   5.126  18.875  0.00  0.00    +0.000 A 
ATOM     18  C   UNL     1       4.547   5.635  19.361  0.00  0.00    +0.000 A 
ATOM     19  C   UNL     1       3.367   5.493  18.620  0.00  0.00    +0.000 A 
ATOM     20  C   UNL     1       3.384   4.780  17.413  0.00  0.00    +0.000 A 
ATOM     21  C   UNL     1       4.587   4.273  16.924  0.00  0.00    +0.000 A 
BRANCH  16  22
ATOM     22  O   UNL     1       6.920   4.007  17.107  0.00  0.00    +0.000 OA
ATOM     23  H   UNL     1       7.547   4.747  17.073  0.00  0.00    +0.000 HD
ENDBRANCH  16  22
ENDBRANCH  15  19
ENDBRANCH   1  15
BRANCH   9  24
ATOM     24  C   UNL     1      -2.730  12.713  21.061  0.00  0.00    +0.000 C 
BRANCH  24  25
ATOM     25  C   UNL     1      -3.190  13.535  22.235  0.00  0.00    +0.000 A 
ATOM     26  C   UNL     1      -3.391  14.913  22.108  0.00  0.00    +0.000 A 
ATOM     27  C   UNL     1      -3.725  15.680  23.221  0.00  0.00    +0.000 A 
ATOM     28  C   UNL     1      -3.880  15.072  24.465  0.00  0.00    +0.000 A 
ATOM     29  C   UNL     1      -3.721  13.693  24.593  0.00  0.00    +0.000 A 
ATOM     30  C   UNL     1      -3.381  12.925  23.482  0.00  0.00    +0.000 A 
ENDBRANCH  24  25
ENDBRANCH   9  24
BRANCH  12  31
ATOM     31  C   UNL     1      -1.398   9.517  18.567  0.00  0.00    +0.000 C 
BRANCH  31  32
ATOM     32  C   UNL     1      -2.316  10.121  17.519  0.00  0.00    +0.000 A 
ATOM     33  C   UNL     1      -3.357  10.998  17.859  0.00  0.00    +0.000 A 
ATOM     34  C   UNL     1      -4.263  11.442  16.899  0.00  0.00    +0.000 A 
ATOM     35  C   UNL     1      -4.108  11.064  15.569  0.00  0.00    +0.000 A 
ATOM     36  C   UNL     1      -3.035  10.258  15.198  0.00  0.00    +0.000 A 
ATOM     37  C   UNL     1      -2.140   9.791  16.165  0.00  0.00    +0.000 A 
ENDBRANCH  31  32
ENDBRANCH  12  31
TORSDOF 7
ENDMDL
