MODEL 1
REMARK VINA RESULT:      -7.4      0.000      0.000
REMARK  Name = 
REMARK  9 active torsions:
REMARK  status: ('A' for Active; 'I' for Inactive)
REMARK    1  A    between atoms: S_2  and  C_4
REMARK    2  A    between atoms: S_2  and  C_16
REMARK    3  A    between atoms: C_4  and  C_5
REMARK    4  A    between atoms: C_5  and  C_6
REMARK    5  A    between atoms: C_6  and  C_7
REMARK    6  A    between atoms: C_7  and  C_8
REMARK    7  A    between atoms: C_8  and  C_9
REMARK    8  A    between atoms: C_9  and  C_10
REMARK    9  A    between atoms: C_19  and  C_20
REMARK                            x       y       z     vdW  Elec       q    Type
REMARK                         _______ _______ _______ _____ _____    ______ ____
ROOT
ATOM      1  O   UNL     1       8.432   5.047  19.211  0.00  0.00    +0.000 OA
ATOM      2  S   UNL     1       7.520   5.552  18.203  0.00  0.00    +0.000 S 
ATOM      3  O   UNL     1       7.543   5.067  16.834  0.00  0.00    +0.000 OA
ENDROOT
BRANCH   2   4
ATOM      4  C   UNL     1       7.847   7.304  18.099  0.00  0.00    +0.000 A 
ATOM      5  N   UNL     1       7.363   8.107  17.159  0.00  0.00    +0.000 NA
ATOM      6  C   UNL     1       7.883   9.337  17.475  0.00  0.00    +0.000 A 
ATOM      7  C   UNL     1       8.673   9.266  18.604  0.00  0.00    +0.000 A 
ATOM      8  O   UNL     1       8.649   7.957  19.011  0.00  0.00    +0.000 OA
BRANCH   7   9
ATOM      9  C   UNL     1       9.397  10.301  19.266  0.00  0.00    +0.000 A 
ATOM     10  C   UNL     1      10.348  11.164  18.744  0.00  0.00    +0.000 A 
ATOM     11  C   UNL     1      10.776  12.005  19.799  0.00  0.00    +0.000 A 
ATOM     12  C   UNL     1      10.063  11.616  20.907  0.00  0.00    +0.000 A 
ATOM     13  O   UNL     1       9.229  10.591  20.596  0.00  0.00    +0.000 OA
ENDBRANCH   7   9
ENDBRANCH   2   4
BRANCH   2  14
ATOM     14  C   UNL     1       5.848   5.457  18.824  0.00  0.00    +0.000 C 
BRANCH  14  15
ATOM     15  C   UNL     1       4.850   5.625  17.681  0.00  0.00    +0.000 C 
BRANCH  15  16
ATOM     16  C   UNL     1       4.010   6.894  17.819  0.00  0.00    +0.000 C 
BRANCH  16  17
ATOM     17  C   UNL     1       2.559   6.555  18.177  0.00  0.00    +0.000 C 
BRANCH  17  18
ATOM     18  C   UNL     1       2.388   6.361  19.684  0.00  0.00    +0.000 C 
BRANCH  18  19
ATOM     19  C   UNL     1       1.612   5.081  20.011  0.00  0.00    +0.000 C 
BRANCH  19  20
ATOM     20  C   UNL     1       2.301   3.865  19.442  0.00  0.00    +0.000 A 
ATOM     21  C   UNL     1       1.873   3.308  18.229  0.00  0.00    +0.000 A 
ATOM     22  C   UNL     1       2.472   2.151  17.730  0.00  0.00    +0.000 A 
ATOM     23  C   UNL     1       3.504   1.538  18.439  0.00  0.00    +0.000 A 
ATOM     24  C   UNL     1       3.942   2.087  19.642  0.00  0.00    +0.000 A 
ATOM     25  C   UNL     1       3.345   3.245  20.143  0.00  0.00    +0.000 A 
ENDBRANCH  19  20
ENDBRANCH  18  19
ENDBRANCH  17  18
ENDBRANCH  16  17
ENDBRANCH  15  16
ENDBRANCH  14  15
ENDBRANCH   2  14
TORSDOF 9
ENDMDL
MODEL 2
REMARK VINA RESULT:      -7.4      0.938      2.544
REMARK  Name = 
REMARK  9 active torsions:
REMARK  status: ('A' for Active; 'I' for Inactive)
REMARK    1  A    between atoms: S_2  and  C_4
REMARK    2  A    between atoms: S_2  and  C_16
REMARK    3  A    between atoms: C_4  and  C_5
REMARK    4  A    between atoms: C_5  and  C_6
REMARK    5  A    between atoms: C_6  and  C_7
REMARK    6  A    between atoms: C_7  and  C_8
REMARK    7  A    between atoms: C_8  and  C_9
REMARK    8  A    between atoms: C_9  and  C_10
REMARK    9  A    between atoms: C_19  and  C_20
REMARK                            x       y       z     vdW  Elec       q    Type
REMARK                         _______ _______ _______ _____ _____    ______ ____
ROOT
ATOM      1  O   UNL     1       8.369   5.149  19.573  0.00  0.00    +0.000 OA
ATOM      2  S   UNL     1       7.563   5.541  18.432  0.00  0.00    +0.000 S 
ATOM      3  O   UNL     1       7.740   4.936  17.123  0.00  0.00    +0.000 OA
ENDROOT
BRANCH   2   4
ATOM      4  C   UNL     1       7.877   7.283  18.203  0.00  0.00    +0.000 A 
ATOM      5  N   UNL     1       7.371   8.018  17.220  0.00  0.00    +0.000 NA
ATOM      6  C   UNL     1       7.889   9.270  17.442  0.00  0.00    +0.000 A 
ATOM      7  C   UNL     1       8.699   9.280  18.559  0.00  0.00    +0.000 A 
ATOM      8  O   UNL     1       8.691   8.001  19.054  0.00  0.00    +0.000 OA
BRANCH   7   9
ATOM      9  C   UNL     1       9.427  10.362  19.136  0.00  0.00    +0.000 A 
ATOM     10  C   UNL     1       9.533  10.720  20.472  0.00  0.00    +0.000 A 
ATOM     11  C   UNL     1      10.363  11.865  20.534  0.00  0.00    +0.000 A 
ATOM     12  C   UNL     1      10.722  12.143  19.237  0.00  0.00    +0.000 A 
ATOM     13  O   UNL     1      10.165  11.243  18.389  0.00  0.00    +0.000 OA
ENDBRANCH   7   9
ENDBRANCH   2   4
BRANCH   2  14
ATOM     14  C   UNL     1       5.836   5.464  18.879  0.00  0.00    +0.000 C 
BRANCH  14  15
ATOM     15  C   UNL     1       5.431   4.023  19.175  0.00  0.00    +0.000 C 
BRANCH  15  16
ATOM     16  C   UNL     1       4.705   3.366  18.002  0.00  0.00    +0.000 C 
BRANCH  16  17
ATOM     17  C   UNL     1       3.761   2.261  18.491  0.00  0.00    +0.000 C 
BRANCH  17  18
ATOM     18  C   UNL     1       2.462   2.242  17.684  0.00  0.00    +0.000 C 
BRANCH  18  19
ATOM     19  C   UNL     1       1.299   2.869  18.460  0.00  0.00    +0.000 C 
BRANCH  19  20
ATOM     20  C   UNL     1       1.622   4.281  18.880  0.00  0.00    +0.000 A 
ATOM     21  C   UNL     1       2.028   5.230  17.930  0.00  0.00    +0.000 A 
ATOM     22  C   UNL     1       2.381   6.521  18.325  0.00  0.00    +0.000 A 
ATOM     23  C   UNL     1       2.335   6.877  19.672  0.00  0.00    +0.000 A 
ATOM     24  C   UNL     1       1.926   5.944  20.623  0.00  0.00    +0.000 A 
ATOM     25  C   UNL     1       1.571   4.652  20.231  0.00  0.00    +0.000 A 
ENDBRANCH  19  20
ENDBRANCH  18  19
ENDBRANCH  17  18
ENDBRANCH  16  17
ENDBRANCH  15  16
ENDBRANCH  14  15
ENDBRANCH   2  14
TORSDOF 9
ENDMDL
MODEL 3
REMARK VINA RESULT:      -7.2      2.320      9.802
REMARK  Name = 
REMARK  9 active torsions:
REMARK  status: ('A' for Active; 'I' for Inactive)
REMARK    1  A    between atoms: S_2  and  C_4
REMARK    2  A    between atoms: S_2  and  C_16
REMARK    3  A    between atoms: C_4  and  C_5
REMARK    4  A    between atoms: C_5  and  C_6
REMARK    5  A    between atoms: C_6  and  C_7
REMARK    6  A    between atoms: C_7  and  C_8
REMARK    7  A    between atoms: C_8  and  C_9
REMARK    8  A    between atoms: C_9  and  C_10
REMARK    9  A    between atoms: C_19  and  C_20
REMARK                            x       y       z     vdW  Elec       q    Type
REMARK                         _______ _______ _______ _____ _____    ______ ____
ROOT
ATOM      1  O   UNL     1       8.189   4.401  17.772  0.00  0.00    +0.000 OA
ATOM      2  S   UNL     1       7.309   5.300  18.494  0.00  0.00    +0.000 S 
ATOM      3  O   UNL     1       7.359   5.424  19.940  0.00  0.00    +0.000 OA
ENDROOT
BRANCH   2   4
ATOM      4  C   UNL     1       5.653   4.754  18.115  0.00  0.00    +0.000 A 
ATOM      5  N   UNL     1       5.108   4.782  16.904  0.00  0.00    +0.000 NA
ATOM      6  C   UNL     1       3.844   4.284  17.099  0.00  0.00    +0.000 A 
ATOM      7  C   UNL     1       3.639   3.957  18.423  0.00  0.00    +0.000 A 
ATOM      8  O   UNL     1       4.805   4.254  19.081  0.00  0.00    +0.000 OA
BRANCH   7   9
ATOM      9  C   UNL     1       2.477   3.415  19.050  0.00  0.00    +0.000 A 
ATOM     10  C   UNL     1       1.388   2.789  18.464  0.00  0.00    +0.000 A 
ATOM     11  C   UNL     1       0.497   2.436  19.505  0.00  0.00    +0.000 A 
ATOM     12  C   UNL     1       1.089   2.860  20.670  0.00  0.00    +0.000 A 
ATOM     13  O   UNL     1       2.282   3.449  20.407  0.00  0.00    +0.000 OA
ENDBRANCH   7   9
ENDBRANCH   2   4
BRANCH   2  14
ATOM     14  C   UNL     1       7.408   6.929  17.767  0.00  0.00    +0.000 C 
BRANCH  14  15
ATOM     15  C   UNL     1       8.409   7.789  18.534  0.00  0.00    +0.000 C 
BRANCH  15  16
ATOM     16  C   UNL     1       8.395   9.248  18.079  0.00  0.00    +0.000 C 
BRANCH  16  17
ATOM     17  C   UNL     1       9.100  10.147  19.101  0.00  0.00    +0.000 C 
BRANCH  17  18
ATOM     18  C   UNL     1       9.967  11.201  18.411  0.00  0.00    +0.000 C 
BRANCH  18  19
ATOM     19  C   UNL     1      11.184  11.585  19.260  0.00  0.00    +0.000 C 
BRANCH  19  20
ATOM     20  C   UNL     1      10.984  12.925  19.924  0.00  0.00    +0.000 A 
ATOM     21  C   UNL     1      11.719  14.043  19.503  0.00  0.00    +0.000 A 
ATOM     22  C   UNL     1      11.577  15.269  20.152  0.00  0.00    +0.000 A 
ATOM     23  C   UNL     1      10.701  15.392  21.230  0.00  0.00    +0.000 A 
ATOM     24  C   UNL     1       9.960  14.289  21.652  0.00  0.00    +0.000 A 
ATOM     25  C   UNL     1      10.100  13.061  21.002  0.00  0.00    +0.000 A 
ENDBRANCH  19  20
ENDBRANCH  18  19
ENDBRANCH  17  18
ENDBRANCH  16  17
ENDBRANCH  15  16
ENDBRANCH  14  15
ENDBRANCH   2  14
TORSDOF 9
ENDMDL
MODEL 4
REMARK VINA RESULT:      -7.1      1.539      2.089
REMARK  Name = 
REMARK  9 active torsions:
REMARK  status: ('A' for Active; 'I' for Inactive)
REMARK    1  A    between atoms: S_2  and  C_4
REMARK    2  A    between atoms: S_2  and  C_16
REMARK    3  A    between atoms: C_4  and  C_5
REMARK    4  A    between atoms: C_5  and  C_6
REMARK    5  A    between atoms: C_6  and  C_7
REMARK    6  A    between atoms: C_7  and  C_8
REMARK    7  A    between atoms: C_8  and  C_9
REMARK    8  A    between atoms: C_9  and  C_10
REMARK    9  A    between atoms: C_19  and  C_20
REMARK                            x       y       z     vdW  Elec       q    Type
REMARK                         _______ _______ _______ _____ _____    ______ ____
ROOT
ATOM      1  O   UNL     1       6.776   4.827  15.943  0.00  0.00    +0.000 OA
ATOM      2  S   UNL     1       5.960   5.891  16.497  0.00  0.00    +0.000 S 
ATOM      3  O   UNL     1       5.229   6.817  15.650  0.00  0.00    +0.000 OA
ENDROOT
BRANCH   2   4
ATOM      4  C   UNL     1       7.077   6.897  17.459  0.00  0.00    +0.000 A 
ATOM      5  N   UNL     1       7.784   6.460  18.494  0.00  0.00    +0.000 NA
ATOM      6  C   UNL     1       8.475   7.569  18.914  0.00  0.00    +0.000 A 
ATOM      7  C   UNL     1       8.181   8.664  18.128  0.00  0.00    +0.000 A 
ATOM      8  O   UNL     1       7.283   8.233  17.186  0.00  0.00    +0.000 OA
BRANCH   7   9
ATOM      9  C   UNL     1       8.674  10.000  18.219  0.00  0.00    +0.000 A 
ATOM     10  C   UNL     1       9.755  10.477  18.943  0.00  0.00    +0.000 A 
ATOM     11  C   UNL     1       9.832  11.872  18.710  0.00  0.00    +0.000 A 
ATOM     12  C   UNL     1       8.800  12.171  17.855  0.00  0.00    +0.000 A 
ATOM     13  O   UNL     1       8.097  11.050  17.552  0.00  0.00    +0.000 OA
ENDBRANCH   7   9
ENDBRANCH   2   4
BRANCH   2  14
ATOM     14  C   UNL     1       4.841   5.203  17.707  0.00  0.00    +0.000 C 
BRANCH  14  15
ATOM     15  C   UNL     1       3.423   5.713  17.464  0.00  0.00    +0.000 C 
BRANCH  15  16
ATOM     16  C   UNL     1       2.994   6.761  18.491  0.00  0.00    +0.000 C 
BRANCH  16  17
ATOM     17  C   UNL     1       3.074   6.197  19.915  0.00  0.00    +0.000 C 
BRANCH  17  18
ATOM     18  C   UNL     1       1.697   5.763  20.419  0.00  0.00    +0.000 C 
BRANCH  18  19
ATOM     19  C   UNL     1       1.723   4.344  20.997  0.00  0.00    +0.000 C 
BRANCH  19  20
ATOM     20  C   UNL     1       2.299   3.362  20.007  0.00  0.00    +0.000 A 
ATOM     21  C   UNL     1       3.551   2.774  20.237  0.00  0.00    +0.000 A 
ATOM     22  C   UNL     1       4.110   1.909  19.295  0.00  0.00    +0.000 A 
ATOM     23  C   UNL     1       3.426   1.624  18.115  0.00  0.00    +0.000 A 
ATOM     24  C   UNL     1       2.177   2.197  17.880  0.00  0.00    +0.000 A 
ATOM     25  C   UNL     1       1.615   3.062  18.821  0.00  0.00    +0.000 A 
ENDBRANCH  19  20
ENDBRANCH  18  19
ENDBRANCH  17  18
ENDBRANCH  16  17
ENDBRANCH  15  16
ENDBRANCH  14  15
ENDBRANCH   2  14
TORSDOF 9
ENDMDL
MODEL 5
REMARK VINA RESULT:      -7.0      4.814      7.453
REMARK  Name = 
REMARK  9 active torsions:
REMARK  status: ('A' for Active; 'I' for Inactive)
REMARK    1  A    between atoms: S_2  and  C_4
REMARK    2  A    between atoms: S_2  and  C_16
REMARK    3  A    between atoms: C_4  and  C_5
REMARK    4  A    between atoms: C_5  and  C_6
REMARK    5  A    between atoms: C_6  and  C_7
REMARK    6  A    between atoms: C_7  and  C_8
REMARK    7  A    between atoms: C_8  and  C_9
REMARK    8  A    between atoms: C_9  and  C_10
REMARK    9  A    between atoms: C_19  and  C_20
REMARK                            x       y       z     vdW  Elec       q    Type
REMARK                         _______ _______ _______ _____ _____    ______ ____
ROOT
ATOM      1  O   UNL     1       2.729   4.891  20.758  0.00  0.00    +0.000 OA
ATOM      2  S   UNL     1       2.547   5.415  19.417  0.00  0.00    +0.000 S 
ATOM      3  O   UNL     1       1.546   4.877  18.513  0.00  0.00    +0.000 OA
ENDROOT
BRANCH   2   4
ATOM      4  C   UNL     1       4.115   5.179  18.596  0.00  0.00    +0.000 A 
ATOM      5  N   UNL     1       5.287   5.101  19.216  0.00  0.00    +0.000 NA
ATOM      6  C   UNL     1       6.189   4.933  18.196  0.00  0.00    +0.000 A 
ATOM      7  C   UNL     1       5.554   4.907  16.972  0.00  0.00    +0.000 A 
ATOM      8  O   UNL     1       4.216   5.062  17.226  0.00  0.00    +0.000 OA
BRANCH   7   9
ATOM      9  C   UNL     1       6.113   4.755  15.667  0.00  0.00    +0.000 A 
ATOM     10  C   UNL     1       5.733   3.884  14.658  0.00  0.00    +0.000 A 
ATOM     11  C   UNL     1       6.596   4.113  13.560  0.00  0.00    +0.000 A 
ATOM     12  C   UNL     1       7.453   5.112  13.953  0.00  0.00    +0.000 A 
ATOM     13  O   UNL     1       7.169   5.506  15.220  0.00  0.00    +0.000 OA
ENDBRANCH   7   9
ENDBRANCH   2   4
BRANCH   2  14
ATOM     14  C   UNL     1       2.362   7.189  19.501  0.00  0.00    +0.000 C 
BRANCH  14  15
ATOM     15  C   UNL     1       2.546   7.805  18.116  0.00  0.00    +0.000 C 
BRANCH  15  16
ATOM     16  C   UNL     1       1.552   8.932  17.841  0.00  0.00    +0.000 C 
BRANCH  16  17
ATOM     17  C   UNL     1       1.212   9.690  19.130  0.00  0.00    +0.000 C 
BRANCH  17  18
ATOM     18  C   UNL     1       0.188  10.797  18.872  0.00  0.00    +0.000 C 
BRANCH  18  19
ATOM     19  C   UNL     1      -1.242  10.330  19.162  0.00  0.00    +0.000 C 
BRANCH  19  20
ATOM     20  C   UNL     1      -2.128  10.502  17.952  0.00  0.00    +0.000 A 
ATOM     21  C   UNL     1      -3.217  11.384  17.989  0.00  0.00    +0.000 A 
ATOM     22  C   UNL     1      -4.070  11.503  16.891  0.00  0.00    +0.000 A 
ATOM     23  C   UNL     1      -3.845  10.740  15.747  0.00  0.00    +0.000 A 
ATOM     24  C   UNL     1      -2.761   9.865  15.697  0.00  0.00    +0.000 A 
ATOM     25  C   UNL     1      -1.906   9.746  16.793  0.00  0.00    +0.000 A 
ENDBRANCH  19  20
ENDBRANCH  18  19
ENDBRANCH  17  18
ENDBRANCH  16  17
ENDBRANCH  15  16
ENDBRANCH  14  15
ENDBRANCH   2  14
TORSDOF 9
ENDMDL
MODEL 6
REMARK VINA RESULT:      -6.8      3.762      6.305
REMARK  Name = 
REMARK  9 active torsions:
REMARK  status: ('A' for Active; 'I' for Inactive)
REMARK    1  A    between atoms: S_2  and  C_4
REMARK    2  A    between atoms: S_2  and  C_16
REMARK    3  A    between atoms: C_4  and  C_5
REMARK    4  A    between atoms: C_5  and  C_6
REMARK    5  A    between atoms: C_6  and  C_7
REMARK    6  A    between atoms: C_7  and  C_8
REMARK    7  A    between atoms: C_8  and  C_9
REMARK    8  A    between atoms: C_9  and  C_10
REMARK    9  A    between atoms: C_19  and  C_20
REMARK                            x       y       z     vdW  Elec       q    Type
REMARK                         _______ _______ _______ _____ _____    ______ ____
ROOT
ATOM      1  O   UNL     1       7.367   7.103  17.242  0.00  0.00    +0.000 OA
ATOM      2  S   UNL     1       6.410   6.025  17.080  0.00  0.00    +0.000 S 
ATOM      3  O   UNL     1       6.392   4.875  17.966  0.00  0.00    +0.000 OA
ENDROOT
BRANCH   2   4
ATOM      4  C   UNL     1       6.704   5.369  15.446  0.00  0.00    +0.000 A 
ATOM      5  N   UNL     1       7.798   5.593  14.728  0.00  0.00    +0.000 NA
ATOM      6  C   UNL     1       7.575   4.908  13.561  0.00  0.00    +0.000 A 
ATOM      7  C   UNL     1       6.350   4.274  13.585  0.00  0.00    +0.000 A 
ATOM      8  O   UNL     1       5.787   4.566  14.801  0.00  0.00    +0.000 OA
BRANCH   7   9
ATOM      9  C   UNL     1       5.731   3.465  12.585  0.00  0.00    +0.000 A 
ATOM     10  C   UNL     1       4.532   3.674  11.922  0.00  0.00    +0.000 A 
ATOM     11  C   UNL     1       4.353   2.589  11.030  0.00  0.00    +0.000 A 
ATOM     12  C   UNL     1       5.451   1.780  11.192  0.00  0.00    +0.000 A 
ATOM     13  O   UNL     1       6.288   2.300  12.125  0.00  0.00    +0.000 OA
ENDBRANCH   7   9
ENDBRANCH   2   4
BRANCH   2  14
ATOM     14  C   UNL     1       4.764   6.712  16.984  0.00  0.00    +0.000 C 
BRANCH  14  15
ATOM     15  C   UNL     1       3.773   5.808  17.713  0.00  0.00    +0.000 C 
BRANCH  15  16
ATOM     16  C   UNL     1       3.272   6.424  19.019  0.00  0.00    +0.000 C 
BRANCH  16  17
ATOM     17  C   UNL     1       1.822   6.010  19.300  0.00  0.00    +0.000 C 
BRANCH  17  18
ATOM     18  C   UNL     1       1.641   5.565  20.752  0.00  0.00    +0.000 C 
BRANCH  18  19
ATOM     19  C   UNL     1       1.341   4.067  20.856  0.00  0.00    +0.000 C 
BRANCH  19  20
ATOM     20  C   UNL     1       2.150   3.277  19.856  0.00  0.00    +0.000 A 
ATOM     21  C   UNL     1       1.639   3.018  18.577  0.00  0.00    +0.000 A 
ATOM     22  C   UNL     1       2.362   2.241  17.670  0.00  0.00    +0.000 A 
ATOM     23  C   UNL     1       3.600   1.714  18.033  0.00  0.00    +0.000 A 
ATOM     24  C   UNL     1       4.120   1.972  19.300  0.00  0.00    +0.000 A 
ATOM     25  C   UNL     1       3.400   2.750  20.208  0.00  0.00    +0.000 A 
ENDBRANCH  19  20
ENDBRANCH  18  19
ENDBRANCH  17  18
ENDBRANCH  16  17
ENDBRANCH  15  16
ENDBRANCH  14  15
ENDBRANCH   2  14
TORSDOF 9
ENDMDL
MODEL 7
REMARK VINA RESULT:      -6.8      2.542      9.568
REMARK  Name = 
REMARK  9 active torsions:
REMARK  status: ('A' for Active; 'I' for Inactive)
REMARK    1  A    between atoms: S_2  and  C_4
REMARK    2  A    between atoms: S_2  and  C_16
REMARK    3  A    between atoms: C_4  and  C_5
REMARK    4  A    between atoms: C_5  and  C_6
REMARK    5  A    between atoms: C_6  and  C_7
REMARK    6  A    between atoms: C_7  and  C_8
REMARK    7  A    between atoms: C_8  and  C_9
REMARK    8  A    between atoms: C_9  and  C_10
REMARK    9  A    between atoms: C_19  and  C_20
REMARK                            x       y       z     vdW  Elec       q    Type
REMARK                         _______ _______ _______ _____ _____    ______ ____
ROOT
ATOM      1  O   UNL     1       8.145   4.086  17.362  0.00  0.00    +0.000 OA
ATOM      2  S   UNL     1       7.547   5.221  18.038  0.00  0.00    +0.000 S 
ATOM      3  O   UNL     1       7.893   5.570  19.405  0.00  0.00    +0.000 OA
ENDROOT
BRANCH   2   4
ATOM      4  C   UNL     1       5.792   4.896  18.054  0.00  0.00    +0.000 A 
ATOM      5  N   UNL     1       4.963   5.183  17.058  0.00  0.00    +0.000 NA
ATOM      6  C   UNL     1       3.737   4.770  17.518  0.00  0.00    +0.000 A 
ATOM      7  C   UNL     1       3.838   4.237  18.786  0.00  0.00    +0.000 A 
ATOM      8  O   UNL     1       5.163   4.312  19.134  0.00  0.00    +0.000 OA
BRANCH   7   9
ATOM      9  C   UNL     1       2.817   3.698  19.624  0.00  0.00    +0.000 A 
ATOM     10  C   UNL     1       2.225   4.265  20.742  0.00  0.00    +0.000 A 
ATOM     11  C   UNL     1       1.271   3.338  21.227  0.00  0.00    +0.000 A 
ATOM     12  C   UNL     1       1.327   2.259  20.379  0.00  0.00    +0.000 A 
ATOM     13  O   UNL     1       2.253   2.466  19.410  0.00  0.00    +0.000 OA
ENDBRANCH   7   9
ENDBRANCH   2   4
BRANCH   2  14
ATOM     14  C   UNL     1       7.712   6.671  17.008  0.00  0.00    +0.000 C 
BRANCH  14  15
ATOM     15  C   UNL     1       7.314   7.921  17.790  0.00  0.00    +0.000 C 
BRANCH  15  16
ATOM     16  C   UNL     1       8.516   8.628  18.414  0.00  0.00    +0.000 C 
BRANCH  16  17
ATOM     17  C   UNL     1       8.510  10.123  18.075  0.00  0.00    +0.000 C 
BRANCH  17  18
ATOM     18  C   UNL     1       9.633  10.864  18.804  0.00  0.00    +0.000 C 
BRANCH  18  19
ATOM     19  C   UNL     1      10.636  11.484  17.826  0.00  0.00    +0.000 C 
BRANCH  19  20
ATOM     20  C   UNL     1      10.487  12.984  17.771  0.00  0.00    +0.000 A 
ATOM     21  C   UNL     1      11.293  13.747  16.912  0.00  0.00    +0.000 A 
ATOM     22  C   UNL     1      11.196  15.138  16.901  0.00  0.00    +0.000 A 
ATOM     23  C   UNL     1      10.295  15.783  17.747  0.00  0.00    +0.000 A 
ATOM     24  C   UNL     1       9.485  15.035  18.599  0.00  0.00    +0.000 A 
ATOM     25  C   UNL     1       9.579  13.642  18.611  0.00  0.00    +0.000 A 
ENDBRANCH  19  20
ENDBRANCH  18  19
ENDBRANCH  17  18
ENDBRANCH  16  17
ENDBRANCH  15  16
ENDBRANCH  14  15
ENDBRANCH   2  14
TORSDOF 9
ENDMDL
MODEL 8
REMARK VINA RESULT:      -6.8      3.101      5.694
REMARK  Name = 
REMARK  9 active torsions:
REMARK  status: ('A' for Active; 'I' for Inactive)
REMARK    1  A    between atoms: S_2  and  C_4
REMARK    2  A    between atoms: S_2  and  C_16
REMARK    3  A    between atoms: C_4  and  C_5
REMARK    4  A    between atoms: C_5  and  C_6
REMARK    5  A    between atoms: C_6  and  C_7
REMARK    6  A    between atoms: C_7  and  C_8
REMARK    7  A    between atoms: C_8  and  C_9
REMARK    8  A    between atoms: C_9  and  C_10
REMARK    9  A    between atoms: C_19  and  C_20
REMARK                            x       y       z     vdW  Elec       q    Type
REMARK                         _______ _______ _______ _____ _____    ______ ____
ROOT
ATOM      1  O   UNL     1       5.228   1.588  20.290  0.00  0.00    +0.000 OA
ATOM      2  S   UNL     1       4.017   2.026  19.623  0.00  0.00    +0.000 S 
ATOM      3  O   UNL     1       3.293   1.166  18.704  0.00  0.00    +0.000 OA
ENDROOT
BRANCH   2   4
ATOM      4  C   UNL     1       4.491   3.459  18.668  0.00  0.00    +0.000 A 
ATOM      5  N   UNL     1       3.888   3.856  17.554  0.00  0.00    +0.000 NA
ATOM      6  C   UNL     1       4.592   4.973  17.177  0.00  0.00    +0.000 A 
ATOM      7  C   UNL     1       5.610   5.240  18.068  0.00  0.00    +0.000 A 
ATOM      8  O   UNL     1       5.546   4.269  19.033  0.00  0.00    +0.000 OA
BRANCH   7   9
ATOM      9  C   UNL     1       6.571   6.295  18.051  0.00  0.00    +0.000 A 
ATOM     10  C   UNL     1       6.662   7.370  17.181  0.00  0.00    +0.000 A 
ATOM     11  C   UNL     1       7.788   8.133  17.574  0.00  0.00    +0.000 A 
ATOM     12  C   UNL     1       8.321   7.488  18.663  0.00  0.00    +0.000 A 
ATOM     13  O   UNL     1       7.595   6.381  18.959  0.00  0.00    +0.000 OA
ENDBRANCH   7   9
ENDBRANCH   2   4
BRANCH   2  14
ATOM     14  C   UNL     1       2.877   2.670  20.837  0.00  0.00    +0.000 C 
BRANCH  14  15
ATOM     15  C   UNL     1       1.451   2.633  20.294  0.00  0.00    +0.000 C 
BRANCH  15  16
ATOM     16  C   UNL     1       0.791   4.012  20.290  0.00  0.00    +0.000 C 
BRANCH  16  17
ATOM     17  C   UNL     1       1.815   5.110  20.598  0.00  0.00    +0.000 C 
BRANCH  17  18
ATOM     18  C   UNL     1       1.877   6.145  19.473  0.00  0.00    +0.000 C 
BRANCH  18  19
ATOM     19  C   UNL     1       2.573   7.434  19.921  0.00  0.00    +0.000 C 
BRANCH  19  20
ATOM     20  C   UNL     1       1.568   8.490  20.310  0.00  0.00    +0.000 A 
ATOM     21  C   UNL     1       1.219   8.678  21.655  0.00  0.00    +0.000 A 
ATOM     22  C   UNL     1       0.249   9.615  22.012  0.00  0.00    +0.000 A 
ATOM     23  C   UNL     1      -0.385  10.373  21.028  0.00  0.00    +0.000 A 
ATOM     24  C   UNL     1      -0.041  10.199  19.689  0.00  0.00    +0.000 A 
ATOM     25  C   UNL     1       0.931   9.263  19.330  0.00  0.00    +0.000 A 
ENDBRANCH  19  20
ENDBRANCH  18  19
ENDBRANCH  17  18
ENDBRANCH  16  17
ENDBRANCH  15  16
ENDBRANCH  14  15
ENDBRANCH   2  14
TORSDOF 9
ENDMDL
MODEL 9
REMARK VINA RESULT:      -6.8      4.393      7.062
REMARK  Name = 
REMARK  9 active torsions:
REMARK  status: ('A' for Active; 'I' for Inactive)
REMARK    1  A    between atoms: S_2  and  C_4
REMARK    2  A    between atoms: S_2  and  C_16
REMARK    3  A    between atoms: C_4  and  C_5
REMARK    4  A    between atoms: C_5  and  C_6
REMARK    5  A    between atoms: C_6  and  C_7
REMARK    6  A    between atoms: C_7  and  C_8
REMARK    7  A    between atoms: C_8  and  C_9
REMARK    8  A    between atoms: C_9  and  C_10
REMARK    9  A    between atoms: C_19  and  C_20
REMARK                            x       y       z     vdW  Elec       q    Type
REMARK                         _______ _______ _______ _____ _____    ______ ____
ROOT
ATOM      1  O   UNL     1       4.801   2.948  19.833  0.00  0.00    +0.000 OA
ATOM      2  S   UNL     1       4.068   3.057  18.587  0.00  0.00    +0.000 S 
ATOM      3  O   UNL     1       3.676   1.886  17.822  0.00  0.00    +0.000 OA
ENDROOT
BRANCH   2   4
ATOM      4  C   UNL     1       5.114   4.013  17.500  0.00  0.00    +0.000 A 
ATOM      5  N   UNL     1       5.727   5.140  17.842  0.00  0.00    +0.000 NA
ATOM      6  C   UNL     1       6.395   5.512  16.703  0.00  0.00    +0.000 A 
ATOM      7  C   UNL     1       6.183   4.605  15.686  0.00  0.00    +0.000 A 
ATOM      8  O   UNL     1       5.361   3.635  16.197  0.00  0.00    +0.000 OA
BRANCH   7   9
ATOM      9  C   UNL     1       6.684   4.613  14.350  0.00  0.00    +0.000 A 
ATOM     10  C   UNL     1       6.284   3.840  13.270  0.00  0.00    +0.000 A 
ATOM     11  C   UNL     1       7.087   4.215  12.166  0.00  0.00    +0.000 A 
ATOM     12  C   UNL     1       7.929   5.198  12.627  0.00  0.00    +0.000 A 
ATOM     13  O   UNL     1       7.693   5.445  13.940  0.00  0.00    +0.000 OA
ENDBRANCH   7   9
ENDBRANCH   2   4
BRANCH   2  14
ATOM     14  C   UNL     1       2.636   4.095  18.836  0.00  0.00    +0.000 C 
BRANCH  14  15
ATOM     15  C   UNL     1       2.089   3.909  20.249  0.00  0.00    +0.000 C 
BRANCH  15  16
ATOM     16  C   UNL     1       1.849   5.238  20.963  0.00  0.00    +0.000 C 
BRANCH  16  17
ATOM     17  C   UNL     1       2.019   6.417  19.998  0.00  0.00    +0.000 C 
BRANCH  17  18
ATOM     18  C   UNL     1       1.740   7.751  20.693  0.00  0.00    +0.000 C 
BRANCH  18  19
ATOM     19  C   UNL     1       0.353   7.776  21.344  0.00  0.00    +0.000 C 
BRANCH  19  20
ATOM     20  C   UNL     1      -0.108   9.191  21.590  0.00  0.00    +0.000 A 
ATOM     21  C   UNL     1      -0.038  10.149  20.568  0.00  0.00    +0.000 A 
ATOM     22  C   UNL     1      -0.412  11.471  20.810  0.00  0.00    +0.000 A 
ATOM     23  C   UNL     1      -0.857  11.851  22.076  0.00  0.00    +0.000 A 
ATOM     24  C   UNL     1      -0.937  10.906  23.097  0.00  0.00    +0.000 A 
ATOM     25  C   UNL     1      -0.565   9.582  22.856  0.00  0.00    +0.000 A 
ENDBRANCH  19  20
ENDBRANCH  18  19
ENDBRANCH  17  18
ENDBRANCH  16  17
ENDBRANCH  15  16
ENDBRANCH  14  15
ENDBRANCH   2  14
TORSDOF 9
ENDMDL
