MODEL 1
REMARK VINA RESULT:      -8.6      0.000      0.000
REMARK  Name = 
REMARK  6 active torsions:
REMARK  status: ('A' for Active; 'I' for Inactive)
REMARK    1  A    between atoms: C_1  and  N_2
REMARK    2  A    between atoms: N_5  and  C_6
REMARK    3  A    between atoms: C_6  and  C_7
REMARK    4  A    between atoms: C_6  and  C_22
REMARK    5  A    between atoms: C_16  and  O_17
REMARK    6  A    between atoms: N_26  and  C_27
REMARK                            x       y       z     vdW  Elec       q    Type
REMARK                         _______ _______ _______ _____ _____    ______ ____
ROOT
ATOM      1  C   UNL     1      -0.381  10.680  19.893  0.00  0.00    +0.000 C 
ENDROOT
BRANCH   1   2
ATOM      2  C   UNL     1       0.622   9.540  19.965  0.00  0.00    +0.000 A 
ATOM      3  C   UNL     1       1.503   9.332  18.896  0.00  0.00    +0.000 A 
ATOM      4  C   UNL     1       2.250   8.164  18.826  0.00  0.00    +0.000 A 
ATOM      5  C   UNL     1       3.056   7.914  17.713  0.00  0.00    +0.000 A 
ATOM      6  C   UNL     1       3.753   6.719  17.633  0.00  0.00    +0.000 A 
ATOM      7  C   UNL     1       3.623   5.770  18.650  0.00  0.00    +0.000 A 
ATOM      8  C   UNL     1       2.831   6.039  19.768  0.00  0.00    +0.000 A 
ATOM      9  C   UNL     1       2.127   7.227  19.880  0.00  0.00    +0.000 A 
ATOM     10  N   UNL     1       1.331   7.437  20.938  0.00  0.00    +0.000 NA
ATOM     11  C   UNL     1       0.595   8.563  20.939  0.00  0.00    +0.000 A 
ATOM     12  O   UNL     1       4.245   4.549  18.615  0.00  0.00    +0.000 OA
ATOM     13  C   UNL     1       4.770   4.262  17.313  0.00  0.00    +0.000 C 
ATOM     14  C   UNL     1       5.475   5.481  16.739  0.00  0.00    +0.000 C 
ATOM     15  O   UNL     1       4.539   6.541  16.528  0.00  0.00    +0.000 OA
BRANCH  11  16
ATOM     16  O   UNL     1      -0.275   8.601  21.976  0.00  0.00    +0.000 OA
ATOM     17  H   UNL     1      -0.544   7.663  22.002  0.00  0.00    +0.000 HD
ENDBRANCH  11  16
ENDBRANCH   1   2
BRANCH   1  22
ATOM     18  C   UNL     1      -4.908  10.986  18.104  0.00  0.00    +0.000 C 
ATOM     19  N   UNL     1      -3.501  11.088  17.734  0.00  0.00    +0.000 NA
ATOM     20  C   UNL     1      -2.801   9.807  17.929  0.00  0.00    +0.000 C 
ATOM     21  C   UNL     1      -1.280   9.920  17.670  0.00  0.00    +0.000 C 
ATOM     22  N   UNL     1      -0.587  10.996  18.430  0.00  0.00    +0.000 NA
ATOM     23  C   UNL     1      -1.330  12.243  18.150  0.00  0.00    +0.000 C 
ATOM     24  C   UNL     1      -2.835  12.170  18.476  0.00  0.00    +0.000 C 
ENDBRANCH   1  22
BRANCH   1  25
ATOM     25  C   UNL     1       0.156  11.865  20.708  0.00  0.00    +0.000 A 
ATOM     26  N   UNL     1       1.415  12.285  20.689  0.00  0.00    +0.000 NA
ATOM     27  N   UNL     1       1.532  13.292  21.593  0.00  0.00    +0.000 NA
ATOM     28  N   UNL     1       0.384  13.503  22.203  0.00  0.00    +0.000 NA
ATOM     29  N   UNL     1      -0.501  12.639  21.654  0.00  0.00    +0.000 N 
BRANCH  29  30
ATOM     30  C   UNL     1      -1.849  12.734  22.164  0.00  0.00    +0.000 C 
ATOM     31  C   UNL     1      -2.275  11.794  23.278  0.00  0.00    +0.000 C 
ATOM     32  C   UNL     1      -3.540  12.423  23.839  0.00  0.00    +0.000 C 
ATOM     33  C   UNL     1      -3.384  13.928  23.649  0.00  0.00    +0.000 C 
ATOM     34  C   UNL     1      -2.274  14.134  22.620  0.00  0.00    +0.000 C 
ENDBRANCH  29  30
ENDBRANCH   1  25
TORSDOF 5
ENDMDL
MODEL 2
REMARK VINA RESULT:      -8.4      2.316      4.553
REMARK  Name = 
REMARK  6 active torsions:
REMARK  status: ('A' for Active; 'I' for Inactive)
REMARK    1  A    between atoms: C_1  and  N_2
REMARK    2  A    between atoms: N_5  and  C_6
REMARK    3  A    between atoms: C_6  and  C_7
REMARK    4  A    between atoms: C_6  and  C_22
REMARK    5  A    between atoms: C_16  and  O_17
REMARK    6  A    between atoms: N_26  and  C_27
REMARK                            x       y       z     vdW  Elec       q    Type
REMARK                         _______ _______ _______ _____ _____    ______ ____
ROOT
ATOM      1  C   UNL     1       0.212  12.542  19.545  0.00  0.00    +0.000 C 
ENDROOT
BRANCH   1   2
ATOM      2  C   UNL     1       0.782  11.193  19.951  0.00  0.00    +0.000 A 
ATOM      3  C   UNL     1       1.330  10.355  18.971  0.00  0.00    +0.000 A 
ATOM      4  C   UNL     1       1.627   9.033  19.273  0.00  0.00    +0.000 A 
ATOM      5  C   UNL     1       2.084   8.172  18.271  0.00  0.00    +0.000 A 
ATOM      6  C   UNL     1       2.324   6.842  18.575  0.00  0.00    +0.000 A 
ATOM      7  C   UNL     1       2.083   6.371  19.868  0.00  0.00    +0.000 A 
ATOM      8  C   UNL     1       1.646   7.244  20.866  0.00  0.00    +0.000 A 
ATOM      9  C   UNL     1       1.403   8.580  20.595  0.00  0.00    +0.000 A 
ATOM     10  N   UNL     1       0.933   9.386  21.559  0.00  0.00    +0.000 NA
ATOM     11  C   UNL     1       0.619  10.646  21.207  0.00  0.00    +0.000 A 
ATOM     12  O   UNL     1       2.253   5.059  20.228  0.00  0.00    +0.000 OA
ATOM     13  C   UNL     1       2.403   4.213  19.081  0.00  0.00    +0.000 C 
ATOM     14  C   UNL     1       3.347   4.843  18.070  0.00  0.00    +0.000 C 
ATOM     15  O   UNL     1       2.788   6.055  17.557  0.00  0.00    +0.000 OA
BRANCH  11  16
ATOM     16  O   UNL     1       0.019  11.321  22.216  0.00  0.00    +0.000 OA
ATOM     17  H   UNL     1      -0.912  11.246  21.935  0.00  0.00    +0.000 HD
ENDBRANCH  11  16
ENDBRANCH   1   2
BRANCH   1  22
ATOM     18  C   UNL     1       3.259  15.744  17.483  0.00  0.00    +0.000 C 
ATOM     19  N   UNL     1       2.679  15.347  18.760  0.00  0.00    +0.000 NA
ATOM     20  C   UNL     1       3.082  13.979  19.130  0.00  0.00    +0.000 C 
ATOM     21  C   UNL     1       2.378  13.482  20.414  0.00  0.00    +0.000 C 
ATOM     22  N   UNL     1       0.892  13.585  20.400  0.00  0.00    +0.000 NA
ATOM     23  C   UNL     1       0.579  14.988  20.058  0.00  0.00    +0.000 C 
ATOM     24  C   UNL     1       1.213  15.475  18.739  0.00  0.00    +0.000 C 
ENDBRANCH   1  22
BRANCH   1  25
ATOM     25  C   UNL     1      -1.313  12.507  19.715  0.00  0.00    +0.000 A 
ATOM     26  N   UNL     1      -1.959  12.887  20.810  0.00  0.00    +0.000 NA
ATOM     27  N   UNL     1      -3.281  12.636  20.623  0.00  0.00    +0.000 NA
ATOM     28  N   UNL     1      -3.485  12.083  19.445  0.00  0.00    +0.000 NA
ATOM     29  N   UNL     1      -2.274  12.010  18.846  0.00  0.00    +0.000 N 
BRANCH  29  30
ATOM     30  C   UNL     1      -2.282  11.460  17.511  0.00  0.00    +0.000 C 
ATOM     31  C   UNL     1      -1.766  10.047  17.302  0.00  0.00    +0.000 C 
ATOM     32  C   UNL     1      -2.293   9.652  15.931  0.00  0.00    +0.000 C 
ATOM     33  C   UNL     1      -3.614  10.394  15.756  0.00  0.00    +0.000 C 
ATOM     34  C   UNL     1      -3.635  11.516  16.793  0.00  0.00    +0.000 C 
ENDBRANCH  29  30
ENDBRANCH   1  25
TORSDOF 5
ENDMDL
MODEL 3
REMARK VINA RESULT:      -8.4      2.266      4.745
REMARK  Name = 
REMARK  6 active torsions:
REMARK  status: ('A' for Active; 'I' for Inactive)
REMARK    1  A    between atoms: C_1  and  N_2
REMARK    2  A    between atoms: N_5  and  C_6
REMARK    3  A    between atoms: C_6  and  C_7
REMARK    4  A    between atoms: C_6  and  C_22
REMARK    5  A    between atoms: C_16  and  O_17
REMARK    6  A    between atoms: N_26  and  C_27
REMARK                            x       y       z     vdW  Elec       q    Type
REMARK                         _______ _______ _______ _____ _____    ______ ____
ROOT
ATOM      1  C   UNL     1      -0.778  12.852  19.556  0.00  0.00    +0.000 C 
ENDROOT
BRANCH   1   2
ATOM      2  C   UNL     1      -0.031  11.595  19.969  0.00  0.00    +0.000 A 
ATOM      3  C   UNL     1       0.759  10.924  19.027  0.00  0.00    +0.000 A 
ATOM      4  C   UNL     1       1.246   9.654  19.305  0.00  0.00    +0.000 A 
ATOM      5  C   UNL     1       1.954   8.947  18.329  0.00  0.00    +0.000 A 
ATOM      6  C   UNL     1       2.386   7.659  18.602  0.00  0.00    +0.000 A 
ATOM      7  C   UNL     1       2.088   7.074  19.835  0.00  0.00    +0.000 A 
ATOM      8  C   UNL     1       1.399   7.797  20.811  0.00  0.00    +0.000 A 
ATOM      9  C   UNL     1       0.959   9.088  20.570  0.00  0.00    +0.000 A 
ATOM     10  N   UNL     1       0.252   9.741  21.504  0.00  0.00    +0.000 NA
ATOM     11  C   UNL     1      -0.234  10.950  21.172  0.00  0.00    +0.000 A 
ATOM     12  O   UNL     1       2.443   5.789  20.156  0.00  0.00    +0.000 OA
ATOM     13  C   UNL     1       2.863   5.054  19.000  0.00  0.00    +0.000 C 
ATOM     14  C   UNL     1       3.789   5.895  18.137  0.00  0.00    +0.000 C 
ATOM     15  O   UNL     1       3.089   7.026  17.614  0.00  0.00    +0.000 OA
BRANCH  11  16
ATOM     16  O   UNL     1      -1.050  11.450  22.130  0.00  0.00    +0.000 OA
ATOM     17  H   UNL     1      -1.888  11.488  21.632  0.00  0.00    +0.000 HD
ENDBRANCH  11  16
ENDBRANCH   1   2
BRANCH   1  22
ATOM     18  C   UNL     1       2.104  16.528  18.153  0.00  0.00    +0.000 C 
ATOM     19  N   UNL     1       1.373  15.994  19.296  0.00  0.00    +0.000 NA
ATOM     20  C   UNL     1       1.892  14.675  19.696  0.00  0.00    +0.000 C 
ATOM     21  C   UNL     1       1.053  14.026  20.821  0.00  0.00    +0.000 C 
ATOM     22  N   UNL     1      -0.408  13.932  20.546  0.00  0.00    +0.000 NA
ATOM     23  C   UNL     1      -0.849  15.297  20.190  0.00  0.00    +0.000 C 
ATOM     24  C   UNL     1      -0.071  15.928  19.018  0.00  0.00    +0.000 C 
ENDBRANCH   1  22
BRANCH   1  25
ATOM     25  C   UNL     1      -2.282  12.545  19.516  0.00  0.00    +0.000 A 
ATOM     26  N   UNL     1      -3.129  12.796  20.506  0.00  0.00    +0.000 NA
ATOM     27  N   UNL     1      -4.347  12.314  20.144  0.00  0.00    +0.000 NA
ATOM     28  N   UNL     1      -4.286  11.742  18.959  0.00  0.00    +0.000 NA
ATOM     29  N   UNL     1      -3.009  11.890  18.533  0.00  0.00    +0.000 N 
BRANCH  29  30
ATOM     30  C   UNL     1      -2.735  11.357  17.220  0.00  0.00    +0.000 C 
ATOM     31  C   UNL     1      -2.175   9.950  17.107  0.00  0.00    +0.000 C 
ATOM     32  C   UNL     1      -2.403   9.568  15.652  0.00  0.00    +0.000 C 
ATOM     33  C   UNL     1      -3.665  10.305  15.215  0.00  0.00    +0.000 C 
ATOM     34  C   UNL     1      -3.911  11.413  16.236  0.00  0.00    +0.000 C 
ENDBRANCH  29  30
ENDBRANCH   1  25
TORSDOF 5
ENDMDL
MODEL 4
REMARK VINA RESULT:      -8.3      3.124      9.420
REMARK  Name = 
REMARK  6 active torsions:
REMARK  status: ('A' for Active; 'I' for Inactive)
REMARK    1  A    between atoms: C_1  and  N_2
REMARK    2  A    between atoms: N_5  and  C_6
REMARK    3  A    between atoms: C_6  and  C_7
REMARK    4  A    between atoms: C_6  and  C_22
REMARK    5  A    between atoms: C_16  and  O_17
REMARK    6  A    between atoms: N_26  and  C_27
REMARK                            x       y       z     vdW  Elec       q    Type
REMARK                         _______ _______ _______ _____ _____    ______ ____
ROOT
ATOM      1  C   UNL     1       3.251   5.412  18.314  0.00  0.00    +0.000 C 
ENDROOT
BRANCH   1   2
ATOM      2  C   UNL     1       2.816   6.822  18.681  0.00  0.00    +0.000 A 
ATOM      3  C   UNL     1       2.119   7.037  19.877  0.00  0.00    +0.000 A 
ATOM      4  C   UNL     1       1.502   8.257  20.114  0.00  0.00    +0.000 A 
ATOM      5  C   UNL     1       0.728   8.439  21.263  0.00  0.00    +0.000 A 
ATOM      6  C   UNL     1       0.073   9.644  21.459  0.00  0.00    +0.000 A 
ATOM      7  C   UNL     1       0.171  10.651  20.496  0.00  0.00    +0.000 A 
ATOM      8  C   UNL     1       0.963  10.466  19.361  0.00  0.00    +0.000 A 
ATOM      9  C   UNL     1       1.635   9.276  19.141  0.00  0.00    +0.000 A 
ATOM     10  N   UNL     1       2.346   9.105  18.016  0.00  0.00    +0.000 NA
ATOM     11  C   UNL     1       2.889   7.891  17.812  0.00  0.00    +0.000 A 
ATOM     12  O   UNL     1      -0.487  11.850  20.599  0.00  0.00    +0.000 OA
ATOM     13  C   UNL     1      -1.489  11.813  21.623  0.00  0.00    +0.000 C 
ATOM     14  C   UNL     1      -0.953  11.140  22.876  0.00  0.00    +0.000 C 
ATOM     15  O   UNL     1      -0.653   9.767  22.611  0.00  0.00    +0.000 OA
BRANCH  11  16
ATOM     16  O   UNL     1       3.456   7.788  16.586  0.00  0.00    +0.000 OA
ATOM     17  H   UNL     1       3.602   6.823  16.552  0.00  0.00    +0.000 HD
ENDBRANCH  11  16
ENDBRANCH   1   2
BRANCH   1  22
ATOM     18  C   UNL     1       4.213   0.632  18.284  0.00  0.00    +0.000 C 
ATOM     19  N   UNL     1       3.272   1.626  18.786  0.00  0.00    +0.000 NA
ATOM     20  C   UNL     1       2.577   2.311  17.682  0.00  0.00    +0.000 C 
ATOM     21  C   UNL     1       1.669   3.460  18.179  0.00  0.00    +0.000 C 
ATOM     22  N   UNL     1       2.339   4.462  19.054  0.00  0.00    +0.000 NA
ATOM     23  C   UNL     1       2.975   3.695  20.146  0.00  0.00    +0.000 C 
ATOM     24  C   UNL     1       3.942   2.595  19.667  0.00  0.00    +0.000 C 
ENDBRANCH   1  22
BRANCH   1  25
ATOM     25  C   UNL     1       4.735   5.243  18.671  0.00  0.00    +0.000 A 
ATOM     26  N   UNL     1       5.278   5.600  19.828  0.00  0.00    +0.000 NA
ATOM     27  N   UNL     1       6.615   5.378  19.746  0.00  0.00    +0.000 NA
ATOM     28  N   UNL     1       6.936   4.913  18.556  0.00  0.00    +0.000 NA
ATOM     29  N   UNL     1       5.776   4.799  17.869  0.00  0.00    +0.000 N 
BRANCH  29  30
ATOM     30  C   UNL     1       5.904   4.264  16.534  0.00  0.00    +0.000 C 
ATOM     31  C   UNL     1       4.772   4.490  15.547  0.00  0.00    +0.000 C 
ATOM     32  C   UNL     1       5.390   4.189  14.190  0.00  0.00    +0.000 C 
ATOM     33  C   UNL     1       6.864   4.565  14.303  0.00  0.00    +0.000 C 
ATOM     34  C   UNL     1       7.185   4.664  15.793  0.00  0.00    +0.000 C 
ENDBRANCH  29  30
ENDBRANCH   1  25
TORSDOF 5
ENDMDL
MODEL 5
REMARK VINA RESULT:      -8.2      1.476      2.753
REMARK  Name = 
REMARK  6 active torsions:
REMARK  status: ('A' for Active; 'I' for Inactive)
REMARK    1  A    between atoms: C_1  and  N_2
REMARK    2  A    between atoms: N_5  and  C_6
REMARK    3  A    between atoms: C_6  and  C_7
REMARK    4  A    between atoms: C_6  and  C_22
REMARK    5  A    between atoms: C_16  and  O_17
REMARK    6  A    between atoms: N_26  and  C_27
REMARK                            x       y       z     vdW  Elec       q    Type
REMARK                         _______ _______ _______ _____ _____    ______ ____
ROOT
ATOM      1  C   UNL     1      -0.703  10.568  19.985  0.00  0.00    +0.000 C 
ENDROOT
BRANCH   1   2
ATOM      2  C   UNL     1       0.401   9.524  20.018  0.00  0.00    +0.000 A 
ATOM      3  C   UNL     1       1.271   9.408  18.926  0.00  0.00    +0.000 A 
ATOM      4  C   UNL     1       2.119   8.314  18.824  0.00  0.00    +0.000 A 
ATOM      5  C   UNL     1       2.918   8.151  17.690  0.00  0.00    +0.000 A 
ATOM      6  C   UNL     1       3.718   7.025  17.577  0.00  0.00    +0.000 A 
ATOM      7  C   UNL     1       3.699   6.057  18.584  0.00  0.00    +0.000 A 
ATOM      8  C   UNL     1       2.913   6.241  19.724  0.00  0.00    +0.000 A 
ATOM      9  C   UNL     1       2.107   7.358  19.867  0.00  0.00    +0.000 A 
ATOM     10  N   UNL     1       1.321   7.483  20.947  0.00  0.00    +0.000 NA
ATOM     11  C   UNL     1       0.486   8.537  20.979  0.00  0.00    +0.000 A 
ATOM     12  O   UNL     1       4.428   4.898  18.519  0.00  0.00    +0.000 OA
ATOM     13  C   UNL     1       4.946   4.675  17.201  0.00  0.00    +0.000 C 
ATOM     14  C   UNL     1       5.523   5.959  16.627  0.00  0.00    +0.000 C 
ATOM     15  O   UNL     1       4.490   6.932  16.453  0.00  0.00    +0.000 OA
BRANCH  11  16
ATOM     16  O   UNL     1      -0.358   8.484  22.036  0.00  0.00    +0.000 OA
ATOM     17  H   UNL     1      -0.964   7.782  21.731  0.00  0.00    +0.000 HD
ENDBRANCH  11  16
ENDBRANCH   1   2
BRANCH   1  22
ATOM     18  C   UNL     1      -5.120  10.802  17.932  0.00  0.00    +0.000 C 
ATOM     19  N   UNL     1      -3.703  11.022  17.671  0.00  0.00    +0.000 NA
ATOM     20  C   UNL     1      -2.936   9.770  17.783  0.00  0.00    +0.000 C 
ATOM     21  C   UNL     1      -1.413   9.995  17.641  0.00  0.00    +0.000 C 
ATOM     22  N   UNL     1      -0.837  11.023  18.551  0.00  0.00    +0.000 NA
ATOM     23  C   UNL     1      -1.639  12.248  18.347  0.00  0.00    +0.000 C 
ATOM     24  C   UNL     1      -3.154  12.056  18.562  0.00  0.00    +0.000 C 
ENDBRANCH   1  22
BRANCH   1  25
ATOM     25  C   UNL     1      -0.343  11.700  20.958  0.00  0.00    +0.000 A 
ATOM     26  N   UNL     1      -1.050  12.023  22.034  0.00  0.00    +0.000 NA
ATOM     27  N   UNL     1      -0.476  13.119  22.596  0.00  0.00    +0.000 NA
ATOM     28  N   UNL     1       0.563  13.513  21.888  0.00  0.00    +0.000 NA
ATOM     29  N   UNL     1       0.682  12.630  20.869  0.00  0.00    +0.000 N 
BRANCH  29  30
ATOM     30  C   UNL     1       1.798  12.864  19.983  0.00  0.00    +0.000 C 
ATOM     31  C   UNL     1       1.530  13.465  18.615  0.00  0.00    +0.000 C 
ATOM     32  C   UNL     1       2.891  13.952  18.142  0.00  0.00    +0.000 C 
ATOM     33  C   UNL     1       3.661  14.341  19.400  0.00  0.00    +0.000 C 
ATOM     34  C   UNL     1       2.941  13.693  20.581  0.00  0.00    +0.000 C 
ENDBRANCH  29  30
ENDBRANCH   1  25
TORSDOF 5
ENDMDL
MODEL 6
REMARK VINA RESULT:      -7.7      3.512      9.359
REMARK  Name = 
REMARK  6 active torsions:
REMARK  status: ('A' for Active; 'I' for Inactive)
REMARK    1  A    between atoms: C_1  and  N_2
REMARK    2  A    between atoms: N_5  and  C_6
REMARK    3  A    between atoms: C_6  and  C_7
REMARK    4  A    between atoms: C_6  and  C_22
REMARK    5  A    between atoms: C_16  and  O_17
REMARK    6  A    between atoms: N_26  and  C_27
REMARK                            x       y       z     vdW  Elec       q    Type
REMARK                         _______ _______ _______ _____ _____    ______ ____
ROOT
ATOM      1  C   UNL     1       4.280   4.848  18.758  0.00  0.00    +0.000 C 
ENDROOT
BRANCH   1   2
ATOM      2  C   UNL     1       3.710   6.254  18.665  0.00  0.00    +0.000 A 
ATOM      3  C   UNL     1       2.912   6.742  19.708  0.00  0.00    +0.000 A 
ATOM      4  C   UNL     1       2.184   7.911  19.540  0.00  0.00    +0.000 A 
ATOM      5  C   UNL     1       1.316   8.347  20.544  0.00  0.00    +0.000 A 
ATOM      6  C   UNL     1       0.555   9.486  20.339  0.00  0.00    +0.000 A 
ATOM      7  C   UNL     1       0.644  10.171  19.124  0.00  0.00    +0.000 A 
ATOM      8  C   UNL     1       1.530   9.739  18.135  0.00  0.00    +0.000 A 
ATOM      9  C   UNL     1       2.308   8.607  18.314  0.00  0.00    +0.000 A 
ATOM     10  N   UNL     1       3.112   8.184  17.326  0.00  0.00    +0.000 NA
ATOM     11  C   UNL     1       3.763   7.023  17.521  0.00  0.00    +0.000 A 
ATOM     12  O   UNL     1      -0.112  11.277  18.833  0.00  0.00    +0.000 OA
ATOM     13  C   UNL     1      -1.181  11.445  19.773  0.00  0.00    +0.000 C 
ATOM     14  C   UNL     1      -0.687  11.226  21.193  0.00  0.00    +0.000 C 
ATOM     15  O   UNL     1      -0.261   9.872  21.366  0.00  0.00    +0.000 OA
BRANCH  11  16
ATOM     16  O   UNL     1       4.424   6.619  16.410  0.00  0.00    +0.000 OA
ATOM     17  H   UNL     1       5.064   7.350  16.323  0.00  0.00    +0.000 HD
ENDBRANCH  11  16
ENDBRANCH   1   2
BRANCH   1  22
ATOM     18  C   UNL     1       0.737   1.529  18.305  0.00  0.00    +0.000 C 
ATOM     19  N   UNL     1       1.547   2.239  19.288  0.00  0.00    +0.000 NA
ATOM     20  C   UNL     1       1.297   3.690  19.240  0.00  0.00    +0.000 C 
ATOM     21  C   UNL     1       2.237   4.482  20.179  0.00  0.00    +0.000 C 
ATOM     22  N   UNL     1       3.690   4.212  19.994  0.00  0.00    +0.000 NA
ATOM     23  C   UNL     1       3.852   2.746  20.093  0.00  0.00    +0.000 C 
ATOM     24  C   UNL     1       2.977   1.945  19.108  0.00  0.00    +0.000 C 
ENDBRANCH   1  22
BRANCH   1  25
ATOM     25  C   UNL     1       5.813   4.937  18.785  0.00  0.00    +0.000 A 
ATOM     26  N   UNL     1       6.524   5.398  19.806  0.00  0.00    +0.000 NA
ATOM     27  N   UNL     1       7.831   5.403  19.436  0.00  0.00    +0.000 NA
ATOM     28  N   UNL     1       7.963   4.979  18.196  0.00  0.00    +0.000 NA
ATOM     29  N   UNL     1       6.718   4.661  17.771  0.00  0.00    +0.000 N 
BRANCH  29  30
ATOM     30  C   UNL     1       6.644   4.133  16.428  0.00  0.00    +0.000 C 
ATOM     31  C   UNL     1       5.285   3.755  15.867  0.00  0.00    +0.000 C 
ATOM     32  C   UNL     1       5.511   3.652  14.367  0.00  0.00    +0.000 C 
ATOM     33  C   UNL     1       6.615   4.651  14.036  0.00  0.00    +0.000 C 
ATOM     34  C   UNL     1       7.308   5.000  15.352  0.00  0.00    +0.000 C 
ENDBRANCH  29  30
ENDBRANCH   1  25
TORSDOF 5
ENDMDL
MODEL 7
REMARK VINA RESULT:      -7.7      3.215      6.040
REMARK  Name = 
REMARK  6 active torsions:
REMARK  status: ('A' for Active; 'I' for Inactive)
REMARK    1  A    between atoms: C_1  and  N_2
REMARK    2  A    between atoms: N_5  and  C_6
REMARK    3  A    between atoms: C_6  and  C_7
REMARK    4  A    between atoms: C_6  and  C_22
REMARK    5  A    between atoms: C_16  and  O_17
REMARK    6  A    between atoms: N_26  and  C_27
REMARK                            x       y       z     vdW  Elec       q    Type
REMARK                         _______ _______ _______ _____ _____    ______ ____
ROOT
ATOM      1  C   UNL     1      -4.063  13.817  21.197  0.00  0.00    +0.000 C 
ENDROOT
BRANCH   1   2
ATOM      2  C   UNL     1      -2.808  12.974  21.349  0.00  0.00    +0.000 A 
ATOM      3  C   UNL     1      -2.166  12.484  20.204  0.00  0.00    +0.000 A 
ATOM      4  C   UNL     1      -1.175  11.519  20.320  0.00  0.00    +0.000 A 
ATOM      5  C   UNL     1      -0.602  10.962  19.174  0.00  0.00    +0.000 A 
ATOM      6  C   UNL     1       0.346   9.961  19.305  0.00  0.00    +0.000 A 
ATOM      7  C   UNL     1       0.700   9.502  20.577  0.00  0.00    +0.000 A 
ATOM      8  C   UNL     1       0.136  10.080  21.716  0.00  0.00    +0.000 A 
ATOM      9  C   UNL     1      -0.809  11.087  21.617  0.00  0.00    +0.000 A 
ATOM     10  N   UNL     1      -1.375  11.587  22.726  0.00  0.00    +0.000 NA
ATOM     11  C   UNL     1      -2.360  12.488  22.560  0.00  0.00    +0.000 A 
ATOM     12  O   UNL     1       1.595   8.484  20.781  0.00  0.00    +0.000 OA
ATOM     13  C   UNL     1       1.871   7.774  19.567  0.00  0.00    +0.000 C 
ATOM     14  C   UNL     1       2.086   8.744  18.416  0.00  0.00    +0.000 C 
ATOM     15  O   UNL     1       0.883   9.469  18.148  0.00  0.00    +0.000 OA
BRANCH  11  16
ATOM     16  O   UNL     1      -2.954  12.813  23.733  0.00  0.00    +0.000 OA
ATOM     17  H   UNL     1      -3.880  12.595  23.515  0.00  0.00    +0.000 HD
ENDBRANCH  11  16
ENDBRANCH   1   2
BRANCH   1  22
ATOM     18  C   UNL     1      -4.230  18.293  19.269  0.00  0.00    +0.000 C 
ATOM     19  N   UNL     1      -4.057  17.574  20.525  0.00  0.00    +0.000 NA
ATOM     20  C   UNL     1      -2.847  16.734  20.498  0.00  0.00    +0.000 C 
ATOM     21  C   UNL     1      -2.707  15.859  21.765  0.00  0.00    +0.000 C 
ATOM     22  N   UNL     1      -3.897  15.023  22.091  0.00  0.00    +0.000 NA
ATOM     23  C   UNL     1      -5.050  15.946  22.132  0.00  0.00    +0.000 C 
ATOM     24  C   UNL     1      -5.247  16.770  20.845  0.00  0.00    +0.000 C 
ENDBRANCH   1  22
BRANCH   1  25
ATOM     25  C   UNL     1      -5.284  12.955  21.548  0.00  0.00    +0.000 A 
ATOM     26  N   UNL     1      -5.692  12.693  22.783  0.00  0.00    +0.000 NA
ATOM     27  N   UNL     1      -6.744  11.837  22.702  0.00  0.00    +0.000 NA
ATOM     28  N   UNL     1      -6.996  11.530  21.446  0.00  0.00    +0.000 NA
ATOM     29  N   UNL     1      -6.111  12.232  20.701  0.00  0.00    +0.000 N 
BRANCH  29  30
ATOM     30  C   UNL     1      -6.243  12.064  19.273  0.00  0.00    +0.000 C 
ATOM     31  C   UNL     1      -6.494  13.291  18.414  0.00  0.00    +0.000 C 
ATOM     32  C   UNL     1      -6.165  12.837  17.001  0.00  0.00    +0.000 C 
ATOM     33  C   UNL     1      -5.078  11.776  17.140  0.00  0.00    +0.000 C 
ATOM     34  C   UNL     1      -5.088  11.316  18.596  0.00  0.00    +0.000 C 
ENDBRANCH  29  30
ENDBRANCH   1  25
TORSDOF 5
ENDMDL
MODEL 8
REMARK VINA RESULT:      -7.6      2.466      4.935
REMARK  Name = 
REMARK  6 active torsions:
REMARK  status: ('A' for Active; 'I' for Inactive)
REMARK    1  A    between atoms: C_1  and  N_2
REMARK    2  A    between atoms: N_5  and  C_6
REMARK    3  A    between atoms: C_6  and  C_7
REMARK    4  A    between atoms: C_6  and  C_22
REMARK    5  A    between atoms: C_16  and  O_17
REMARK    6  A    between atoms: N_26  and  C_27
REMARK                            x       y       z     vdW  Elec       q    Type
REMARK                         _______ _______ _______ _____ _____    ______ ____
ROOT
ATOM      1  C   UNL     1      -1.639  13.550  21.218  0.00  0.00    +0.000 C 
ENDROOT
BRANCH   1   2
ATOM      2  C   UNL     1      -0.698  12.356  21.226  0.00  0.00    +0.000 A 
ATOM      3  C   UNL     1      -0.079  11.960  20.034  0.00  0.00    +0.000 A 
ATOM      4  C   UNL     1       0.580  10.741  19.963  0.00  0.00    +0.000 A 
ATOM      5  C   UNL     1       1.115  10.303  18.749  0.00  0.00    +0.000 A 
ATOM      6  C   UNL     1       1.721   9.059  18.682  0.00  0.00    +0.000 A 
ATOM      7  C   UNL     1       1.769   8.248  19.818  0.00  0.00    +0.000 A 
ATOM      8  C   UNL     1       1.250   8.704  21.032  0.00  0.00    +0.000 A 
ATOM      9  C   UNL     1       0.643   9.944  21.132  0.00  0.00    +0.000 A 
ATOM     10  N   UNL     1       0.105  10.336  22.297  0.00  0.00    +0.000 NA
ATOM     11  C   UNL     1      -0.560  11.505  22.303  0.00  0.00    +0.000 A 
ATOM     12  O   UNL     1       2.311   6.989  19.814  0.00  0.00    +0.000 OA
ATOM     13  C   UNL     1       2.529   6.514  18.479  0.00  0.00    +0.000 C 
ATOM     14  C   UNL     1       3.150   7.601  17.618  0.00  0.00    +0.000 C 
ATOM     15  O   UNL     1       2.241   8.696  17.471  0.00  0.00    +0.000 OA
BRANCH  11  16
ATOM     16  O   UNL     1      -1.184  11.728  23.485  0.00  0.00    +0.000 OA
ATOM     17  H   UNL     1      -0.505  11.388  24.098  0.00  0.00    +0.000 HD
ENDBRANCH  11  16
ENDBRANCH   1   2
BRANCH   1  22
ATOM     18  C   UNL     1      -0.049  17.969  19.900  0.00  0.00    +0.000 C 
ATOM     19  N   UNL     1      -0.255  17.103  21.055  0.00  0.00    +0.000 NA
ATOM     20  C   UNL     1       0.581  15.893  20.974  0.00  0.00    +0.000 C 
ATOM     21  C   UNL     1       0.288  14.894  22.118  0.00  0.00    +0.000 C 
ATOM     22  N   UNL     1      -1.143  14.511  22.272  0.00  0.00    +0.000 NA
ATOM     23  C   UNL     1      -1.898  15.777  22.382  0.00  0.00    +0.000 C 
ATOM     24  C   UNL     1      -1.675  16.752  21.209  0.00  0.00    +0.000 C 
ENDBRANCH   1  22
BRANCH   1  25
ATOM     25  C   UNL     1      -3.071  13.055  21.463  0.00  0.00    +0.000 A 
ATOM     26  N   UNL     1      -3.630  12.926  22.659  0.00  0.00    +0.000 NA
ATOM     27  N   UNL     1      -4.864  12.385  22.487  0.00  0.00    +0.000 NA
ATOM     28  N   UNL     1      -5.091  12.145  21.211  0.00  0.00    +0.000 NA
ATOM     29  N   UNL     1      -3.994  12.573  20.545  0.00  0.00    +0.000 N 
BRANCH  29  30
ATOM     30  C   UNL     1      -4.054  12.433  19.110  0.00  0.00    +0.000 C 
ATOM     31  C   UNL     1      -3.225  11.346  18.448  0.00  0.00    +0.000 C 
ATOM     32  C   UNL     1      -3.826  11.206  17.058  0.00  0.00    +0.000 C 
ATOM     33  C   UNL     1      -5.305  11.548  17.201  0.00  0.00    +0.000 C 
ATOM     34  C   UNL     1      -5.466  12.285  18.529  0.00  0.00    +0.000 C 
ENDBRANCH  29  30
ENDBRANCH   1  25
TORSDOF 5
ENDMDL
MODEL 9
REMARK VINA RESULT:      -7.4      2.748      5.304
REMARK  Name = 
REMARK  6 active torsions:
REMARK  status: ('A' for Active; 'I' for Inactive)
REMARK    1  A    between atoms: C_1  and  N_2
REMARK    2  A    between atoms: N_5  and  C_6
REMARK    3  A    between atoms: C_6  and  C_7
REMARK    4  A    between atoms: C_6  and  C_22
REMARK    5  A    between atoms: C_16  and  O_17
REMARK    6  A    between atoms: N_26  and  C_27
REMARK                            x       y       z     vdW  Elec       q    Type
REMARK                         _______ _______ _______ _____ _____    ______ ____
ROOT
ATOM      1  C   UNL     1      -2.413  13.872  21.261  0.00  0.00    +0.000 C 
ENDROOT
BRANCH   1   2
ATOM      2  C   UNL     1      -1.330  12.807  21.311  0.00  0.00    +0.000 A 
ATOM      3  C   UNL     1      -0.826  12.283  20.114  0.00  0.00    +0.000 A 
ATOM      4  C   UNL     1      -0.027  11.148  20.132  0.00  0.00    +0.000 A 
ATOM      5  C   UNL     1       0.398  10.571  18.933  0.00  0.00    +0.000 A 
ATOM      6  C   UNL     1       1.149   9.407  18.966  0.00  0.00    +0.000 A 
ATOM      7  C   UNL     1       1.451   8.811  20.192  0.00  0.00    +0.000 A 
ATOM      8  C   UNL     1       1.040   9.408  21.387  0.00  0.00    +0.000 A 
ATOM      9  C   UNL     1       0.293  10.574  21.386  0.00  0.00    +0.000 A 
ATOM     10  N   UNL     1      -0.135  11.097  22.545  0.00  0.00    +0.000 NA
ATOM     11  C   UNL     1      -0.942  12.170  22.473  0.00  0.00    +0.000 A 
ATOM     12  O   UNL     1       2.149   7.636  20.300  0.00  0.00    +0.000 OA
ATOM     13  C   UNL     1       2.252   6.968  19.036  0.00  0.00    +0.000 C 
ATOM     14  C   UNL     1       2.606   7.954  17.935  0.00  0.00    +0.000 C 
ATOM     15  O   UNL     1       1.550   8.902  17.760  0.00  0.00    +0.000 OA
BRANCH  11  16
ATOM     16  O   UNL     1      -1.430  12.522  23.686  0.00  0.00    +0.000 OA
ATOM     17  H   UNL     1      -2.383  12.558  23.478  0.00  0.00    +0.000 HD
ENDBRANCH  11  16
ENDBRANCH   1   2
BRANCH   1  22
ATOM     18  C   UNL     1      -1.678  18.372  19.530  0.00  0.00    +0.000 C 
ATOM     19  N   UNL     1      -1.641  17.575  20.750  0.00  0.00    +0.000 NA
ATOM     20  C   UNL     1      -0.631  16.506  20.662  0.00  0.00    +0.000 C 
ATOM     21  C   UNL     1      -0.659  15.564  21.888  0.00  0.00    +0.000 C 
ATOM     22  N   UNL     1      -1.991  14.976  22.203  0.00  0.00    +0.000 NA
ATOM     23  C   UNL     1      -2.929  16.113  22.308  0.00  0.00    +0.000 C 
ATOM     24  C   UNL     1      -2.967  17.019  21.061  0.00  0.00    +0.000 C 
ENDBRANCH   1  22
BRANCH   1  25
ATOM     25  C   UNL     1      -3.758  13.230  21.631  0.00  0.00    +0.000 A 
ATOM     26  N   UNL     1      -4.143  12.947  22.869  0.00  0.00    +0.000 NA
ATOM     27  N   UNL     1      -5.343  12.315  22.798  0.00  0.00    +0.000 NA
ATOM     28  N   UNL     1      -5.716  12.168  21.543  0.00  0.00    +0.000 NA
ATOM     29  N   UNL     1      -4.752  12.750  20.792  0.00  0.00    +0.000 N 
BRANCH  29  30
ATOM     30  C   UNL     1      -4.989  12.731  19.368  0.00  0.00    +0.000 C 
ATOM     31  C   UNL     1      -4.435  11.577  18.552  0.00  0.00    +0.000 C 
ATOM     32  C   UNL     1      -5.197  11.643  17.237  0.00  0.00    +0.000 C 
ATOM     33  C   UNL     1      -6.571  12.212  17.574  0.00  0.00    +0.000 C 
ATOM     34  C   UNL     1      -6.459  12.862  18.951  0.00  0.00    +0.000 C 
ENDBRANCH  29  30
ENDBRANCH   1  25
TORSDOF 5
ENDMDL
