MODEL 1
REMARK VINA RESULT:      -8.2      0.000      0.000
REMARK  Name = 
REMARK  3 active torsions:
REMARK  status: ('A' for Active; 'I' for Inactive)
REMARK    1  A    between atoms: C_1  and  N_8
REMARK    2  A    between atoms: C_2  and  C_3
REMARK    3  A    between atoms: N_8  and  N_9
REMARK                            x       y       z     vdW  Elec       q    Type
REMARK                         _______ _______ _______ _____ _____    ______ ____
ROOT
ATOM      1  N   UNL     1       1.845   6.731  20.987  0.00  0.00    +0.000 N 
ATOM      2  C   UNL     1       2.382   6.039  19.910  0.00  0.00    +0.000 A 
ATOM      3  N   UNL     1       3.308   6.595  19.165  0.00  0.00    +0.000 NA
ATOM      4  C   UNL     1       3.875   5.874  18.091  0.00  0.00    +0.000 A 
ATOM      5  C   UNL     1       4.900   6.473  17.355  0.00  0.00    +0.000 A 
ATOM      6  C   UNL     1       5.503   5.800  16.287  0.00  0.00    +0.000 A 
ATOM      7  C   UNL     1       5.081   4.516  15.940  0.00  0.00    +0.000 A 
ATOM      8  C   UNL     1       4.060   3.896  16.661  0.00  0.00    +0.000 A 
ATOM      9  C   UNL     1       3.473   4.578  17.731  0.00  0.00    +0.000 A 
ATOM     10  N   UNL     1       2.456   4.016  18.519  0.00  0.00    +0.000 N 
ATOM     11  C   UNL     1       1.836   2.794  18.413  0.00  0.00    +0.000 A 
ATOM     12  C   UNL     1       0.889   2.702  19.411  0.00  0.00    +0.000 A 
ATOM     13  C   UNL     1       0.945   3.904  20.155  0.00  0.00    +0.000 A 
ATOM     14  C   UNL     1       1.921   4.702  19.585  0.00  0.00    +0.000 A 
ATOM     15  H   UNL     1       1.059   6.271  21.435  0.00  0.00    +0.000 HD
ENDROOT
BRANCH   1  16
ATOM     16  N   UNL     1       1.789   8.098  20.998  0.00  0.00    +0.000 N 
ATOM     17  H   UNL     1       2.493   8.561  21.578  0.00  0.00    +0.000 HD
BRANCH  16  18
ATOM     18  C   UNL     1       0.755   8.868  20.534  0.00  0.00    +0.000 C 
ATOM     19  C   UNL     1       0.720   9.615  19.422  0.00  0.00    +0.000 C 
BRANCH  19  20
ATOM     20  C   UNL     1      -0.446  10.357  19.087  0.00  0.00    +0.000 A 
ATOM     21  C   UNL     1      -1.234  10.274  17.945  0.00  0.00    +0.000 A 
ATOM     22  C   UNL     1      -2.280  11.222  18.063  0.00  0.00    +0.000 A 
ATOM     23  C   UNL     1      -2.088  11.838  19.271  0.00  0.00    +0.000 A 
ATOM     24  O   UNL     1      -1.001  11.329  19.894  0.00  0.00    +0.000 OA
ENDBRANCH  19  20
ENDBRANCH  16  18
ENDBRANCH   1  16
TORSDOF 3
ENDMDL
MODEL 2
REMARK VINA RESULT:      -8.1      4.084      7.824
REMARK  Name = 
REMARK  3 active torsions:
REMARK  status: ('A' for Active; 'I' for Inactive)
REMARK    1  A    between atoms: C_1  and  N_8
REMARK    2  A    between atoms: C_2  and  C_3
REMARK    3  A    between atoms: N_8  and  N_9
REMARK                            x       y       z     vdW  Elec       q    Type
REMARK                         _______ _______ _______ _____ _____    ______ ____
ROOT
ATOM      1  N   UNL     1       5.997   5.311  17.120  0.00  0.00    +0.000 N 
ATOM      2  C   UNL     1       4.929   5.143  17.991  0.00  0.00    +0.000 A 
ATOM      3  N   UNL     1       4.785   4.015  18.646  0.00  0.00    +0.000 NA
ATOM      4  C   UNL     1       3.715   3.860  19.555  0.00  0.00    +0.000 A 
ATOM      5  C   UNL     1       3.625   2.670  20.281  0.00  0.00    +0.000 A 
ATOM      6  C   UNL     1       2.591   2.469  21.201  0.00  0.00    +0.000 A 
ATOM      7  C   UNL     1       1.629   3.460  21.403  0.00  0.00    +0.000 A 
ATOM      8  C   UNL     1       1.698   4.657  20.691  0.00  0.00    +0.000 A 
ATOM      9  C   UNL     1       2.743   4.847  19.781  0.00  0.00    +0.000 A 
ATOM     10  N   UNL     1       2.895   6.032  19.042  0.00  0.00    +0.000 N 
ATOM     11  C   UNL     1       2.111   7.161  19.019  0.00  0.00    +0.000 A 
ATOM     12  C   UNL     1       2.664   8.052  18.125  0.00  0.00    +0.000 A 
ATOM     13  C   UNL     1       3.829   7.448  17.595  0.00  0.00    +0.000 A 
ATOM     14  C   UNL     1       3.952   6.199  18.178  0.00  0.00    +0.000 A 
ATOM     15  H   UNL     1       5.965   6.166  16.574  0.00  0.00    +0.000 HD
ENDROOT
BRANCH   1  16
ATOM     16  N   UNL     1       6.570   4.246  16.481  0.00  0.00    +0.000 N 
ATOM     17  H   UNL     1       7.485   3.959  16.840  0.00  0.00    +0.000 HD
BRANCH  16  18
ATOM     18  C   UNL     1       6.173   3.713  15.283  0.00  0.00    +0.000 C 
ATOM     19  C   UNL     1       6.401   4.193  14.053  0.00  0.00    +0.000 C 
BRANCH  19  20
ATOM     20  C   UNL     1       5.914   3.506  12.907  0.00  0.00    +0.000 A 
ATOM     21  C   UNL     1       4.654   3.568  12.323  0.00  0.00    +0.000 A 
ATOM     22  C   UNL     1       4.644   2.696  11.208  0.00  0.00    +0.000 A 
ATOM     23  C   UNL     1       5.896   2.143  11.157  0.00  0.00    +0.000 A 
ATOM     24  O   UNL     1       6.665   2.620  12.161  0.00  0.00    +0.000 OA
ENDBRANCH  19  20
ENDBRANCH  16  18
ENDBRANCH   1  16
TORSDOF 3
ENDMDL
MODEL 3
REMARK VINA RESULT:      -8.0      1.499      1.845
REMARK  Name = 
REMARK  3 active torsions:
REMARK  status: ('A' for Active; 'I' for Inactive)
REMARK    1  A    between atoms: C_1  and  N_8
REMARK    2  A    between atoms: C_2  and  C_3
REMARK    3  A    between atoms: N_8  and  N_9
REMARK                            x       y       z     vdW  Elec       q    Type
REMARK                         _______ _______ _______ _____ _____    ______ ____
ROOT
ATOM      1  N   UNL     1       1.870   6.787  20.808  0.00  0.00    +0.000 N 
ATOM      2  C   UNL     1       2.403   6.029  19.774  0.00  0.00    +0.000 A 
ATOM      3  N   UNL     1       3.330   6.536  18.996  0.00  0.00    +0.000 NA
ATOM      4  C   UNL     1       3.892   5.750  17.967  0.00  0.00    +0.000 A 
ATOM      5  C   UNL     1       4.919   6.299  17.194  0.00  0.00    +0.000 A 
ATOM      6  C   UNL     1       5.517   5.561  16.168  0.00  0.00    +0.000 A 
ATOM      7  C   UNL     1       5.089   4.260  15.899  0.00  0.00    +0.000 A 
ATOM      8  C   UNL     1       4.066   3.689  16.657  0.00  0.00    +0.000 A 
ATOM      9  C   UNL     1       3.484   4.436  17.685  0.00  0.00    +0.000 A 
ATOM     10  N   UNL     1       2.465   3.926  18.507  0.00  0.00    +0.000 N 
ATOM     11  C   UNL     1       1.840   2.703  18.475  0.00  0.00    +0.000 A 
ATOM     12  C   UNL     1       0.895   2.675  19.478  0.00  0.00    +0.000 A 
ATOM     13  C   UNL     1       0.957   3.919  20.148  0.00  0.00    +0.000 A 
ATOM     14  C   UNL     1       1.935   4.677  19.530  0.00  0.00    +0.000 A 
ATOM     15  H   UNL     1       1.082   6.358  21.284  0.00  0.00    +0.000 HD
ENDROOT
BRANCH   1  16
ATOM     16  N   UNL     1       1.819   8.152  20.738  0.00  0.00    +0.000 N 
ATOM     17  H   UNL     1       2.658   8.604  20.362  0.00  0.00    +0.000 HD
BRANCH  16  18
ATOM     18  C   UNL     1       0.893   8.959  21.344  0.00  0.00    +0.000 C 
ATOM     19  C   UNL     1       0.453  10.157  20.936  0.00  0.00    +0.000 C 
BRANCH  19  20
ATOM     20  C   UNL     1      -0.523  10.864  21.692  0.00  0.00    +0.000 A 
ATOM     21  C   UNL     1      -1.012  10.584  22.963  0.00  0.00    +0.000 A 
ATOM     22  C   UNL     1      -1.979  11.568  23.287  0.00  0.00    +0.000 A 
ATOM     23  C   UNL     1      -2.035  12.404  22.204  0.00  0.00    +0.000 A 
ATOM     24  O   UNL     1      -1.169  12.000  21.248  0.00  0.00    +0.000 OA
ENDBRANCH  19  20
ENDBRANCH  16  18
ENDBRANCH   1  16
TORSDOF 3
ENDMDL
MODEL 4
REMARK VINA RESULT:      -7.9      5.502      7.233
REMARK  Name = 
REMARK  3 active torsions:
REMARK  status: ('A' for Active; 'I' for Inactive)
REMARK    1  A    between atoms: C_1  and  N_8
REMARK    2  A    between atoms: C_2  and  C_3
REMARK    3  A    between atoms: N_8  and  N_9
REMARK                            x       y       z     vdW  Elec       q    Type
REMARK                         _______ _______ _______ _____ _____    ______ ____
ROOT
ATOM      1  N   UNL     1       7.332   6.887  17.804  0.00  0.00    +0.000 N 
ATOM      2  C   UNL     1       6.848   6.038  16.817  0.00  0.00    +0.000 A 
ATOM      3  N   UNL     1       7.399   6.032  15.626  0.00  0.00    +0.000 NA
ATOM      4  C   UNL     1       6.925   5.145  14.635  0.00  0.00    +0.000 A 
ATOM      5  C   UNL     1       7.572   5.121  13.397  0.00  0.00    +0.000 A 
ATOM      6  C   UNL     1       7.149   4.254  12.384  0.00  0.00    +0.000 A 
ATOM      7  C   UNL     1       6.066   3.401  12.599  0.00  0.00    +0.000 A 
ATOM      8  C   UNL     1       5.403   3.405  13.827  0.00  0.00    +0.000 A 
ATOM      9  C   UNL     1       5.843   4.271  14.832  0.00  0.00    +0.000 A 
ATOM     10  N   UNL     1       5.246   4.320  16.102  0.00  0.00    +0.000 N 
ATOM     11  C   UNL     1       4.171   3.619  16.595  0.00  0.00    +0.000 A 
ATOM     12  C   UNL     1       3.951   4.024  17.895  0.00  0.00    +0.000 A 
ATOM     13  C   UNL     1       4.933   4.994  18.204  0.00  0.00    +0.000 A 
ATOM     14  C   UNL     1       5.722   5.161  17.080  0.00  0.00    +0.000 A 
ATOM     15  H   UNL     1       6.776   6.906  18.653  0.00  0.00    +0.000 HD
ENDROOT
BRANCH   1  16
ATOM     16  N   UNL     1       7.938   8.072  17.490  0.00  0.00    +0.000 N 
ATOM     17  H   UNL     1       8.082   8.240  16.491  0.00  0.00    +0.000 HD
BRANCH  16  18
ATOM     18  C   UNL     1       8.584   8.905  18.364  0.00  0.00    +0.000 C 
ATOM     19  C   UNL     1       8.899  10.196  18.190  0.00  0.00    +0.000 C 
BRANCH  19  20
ATOM     20  C   UNL     1       9.575  10.919  19.212  0.00  0.00    +0.000 A 
ATOM     21  C   UNL     1      10.852  11.468  19.193  0.00  0.00    +0.000 A 
ATOM     22  C   UNL     1      11.083  12.083  20.447  0.00  0.00    +0.000 A 
ATOM     23  C   UNL     1       9.940  11.886  21.175  0.00  0.00    +0.000 A 
ATOM     24  O   UNL     1       9.030  11.197  20.449  0.00  0.00    +0.000 OA
ENDBRANCH  19  20
ENDBRANCH  16  18
ENDBRANCH   1  16
TORSDOF 3
ENDMDL
MODEL 5
REMARK VINA RESULT:      -7.9      4.860      7.362
REMARK  Name = 
REMARK  3 active torsions:
REMARK  status: ('A' for Active; 'I' for Inactive)
REMARK    1  A    between atoms: C_1  and  N_8
REMARK    2  A    between atoms: C_2  and  C_3
REMARK    3  A    between atoms: N_8  and  N_9
REMARK                            x       y       z     vdW  Elec       q    Type
REMARK                         _______ _______ _______ _____ _____    ______ ____
ROOT
ATOM      1  N   UNL     1       7.321   7.477  16.872  0.00  0.00    +0.000 N 
ATOM      2  C   UNL     1       6.286   6.554  16.937  0.00  0.00    +0.000 A 
ATOM      3  N   UNL     1       5.386   6.639  17.887  0.00  0.00    +0.000 NA
ATOM      4  C   UNL     1       4.317   5.717  17.930  0.00  0.00    +0.000 A 
ATOM      5  C   UNL     1       3.343   5.872  18.920  0.00  0.00    +0.000 A 
ATOM      6  C   UNL     1       2.259   4.992  19.001  0.00  0.00    +0.000 A 
ATOM      7  C   UNL     1       2.138   3.942  18.091  0.00  0.00    +0.000 A 
ATOM      8  C   UNL     1       3.097   3.767  17.092  0.00  0.00    +0.000 A 
ATOM      9  C   UNL     1       4.171   4.659  17.019  0.00  0.00    +0.000 A 
ATOM     10  N   UNL     1       5.165   4.566  16.031  0.00  0.00    +0.000 N 
ATOM     11  C   UNL     1       5.318   3.644  15.022  0.00  0.00    +0.000 A 
ATOM     12  C   UNL     1       6.457   3.963  14.316  0.00  0.00    +0.000 A 
ATOM     13  C   UNL     1       7.008   5.124  14.908  0.00  0.00    +0.000 A 
ATOM     14  C   UNL     1       6.192   5.478  15.967  0.00  0.00    +0.000 A 
ATOM     15  H   UNL     1       8.030   7.268  16.177  0.00  0.00    +0.000 HD
ENDROOT
BRANCH   1  16
ATOM     16  N   UNL     1       7.789   8.102  17.996  0.00  0.00    +0.000 N 
ATOM     17  H   UNL     1       7.460   7.712  18.883  0.00  0.00    +0.000 HD
BRANCH  16  18
ATOM     18  C   UNL     1       8.422   9.316  18.041  0.00  0.00    +0.000 C 
ATOM     19  C   UNL     1       9.156   9.825  19.040  0.00  0.00    +0.000 C 
BRANCH  19  20
ATOM     20  C   UNL     1       9.748  11.112  18.918  0.00  0.00    +0.000 A 
ATOM     21  C   UNL     1      10.747  11.689  19.694  0.00  0.00    +0.000 A 
ATOM     22  C   UNL     1      10.996  12.990  19.192  0.00  0.00    +0.000 A 
ATOM     23  C   UNL     1      10.144  13.148  18.131  0.00  0.00    +0.000 A 
ATOM     24  O   UNL     1       9.398  12.035  17.954  0.00  0.00    +0.000 OA
ENDBRANCH  19  20
ENDBRANCH  16  18
ENDBRANCH   1  16
TORSDOF 3
ENDMDL
MODEL 6
REMARK VINA RESULT:      -7.9      3.546      7.133
REMARK  Name = 
REMARK  3 active torsions:
REMARK  status: ('A' for Active; 'I' for Inactive)
REMARK    1  A    between atoms: C_1  and  N_8
REMARK    2  A    between atoms: C_2  and  C_3
REMARK    3  A    between atoms: N_8  and  N_9
REMARK                            x       y       z     vdW  Elec       q    Type
REMARK                         _______ _______ _______ _____ _____    ______ ____
ROOT
ATOM      1  N   UNL     1       5.530   3.643  18.335  0.00  0.00    +0.000 N 
ATOM      2  C   UNL     1       4.552   4.557  18.703  0.00  0.00    +0.000 A 
ATOM      3  N   UNL     1       4.488   5.726  18.111  0.00  0.00    +0.000 NA
ATOM      4  C   UNL     1       3.472   6.641  18.466  0.00  0.00    +0.000 A 
ATOM      5  C   UNL     1       3.395   7.852  17.775  0.00  0.00    +0.000 A 
ATOM      6  C   UNL     1       2.403   8.789  18.080  0.00  0.00    +0.000 A 
ATOM      7  C   UNL     1       1.474   8.524  19.088  0.00  0.00    +0.000 A 
ATOM      8  C   UNL     1       1.529   7.321  19.792  0.00  0.00    +0.000 A 
ATOM      9  C   UNL     1       2.522   6.390  19.469  0.00  0.00    +0.000 A 
ATOM     10  N   UNL     1       2.631   5.148  20.114  0.00  0.00    +0.000 N 
ATOM     11  C   UNL     1       1.881   4.620  21.137  0.00  0.00    +0.000 A 
ATOM     12  C   UNL     1       2.381   3.371  21.440  0.00  0.00    +0.000 A 
ATOM     13  C   UNL     1       3.464   3.129  20.563  0.00  0.00    +0.000 A 
ATOM     14  C   UNL     1       3.600   4.242  19.752  0.00  0.00    +0.000 A 
ATOM     15  H   UNL     1       5.575   2.815  18.921  0.00  0.00    +0.000 HD
ENDROOT
BRANCH   1  16
ATOM     16  N   UNL     1       6.733   4.051  17.829  0.00  0.00    +0.000 N 
ATOM     17  H   UNL     1       7.383   4.450  18.512  0.00  0.00    +0.000 HD
BRANCH  16  18
ATOM     18  C   UNL     1       7.040   4.214  16.504  0.00  0.00    +0.000 C 
ATOM     19  C   UNL     1       6.194   4.300  15.468  0.00  0.00    +0.000 C 
BRANCH  19  20
ATOM     20  C   UNL     1       6.686   4.473  14.145  0.00  0.00    +0.000 A 
ATOM     21  C   UNL     1       6.383   3.745  13.001  0.00  0.00    +0.000 A 
ATOM     22  C   UNL     1       7.130   4.286  11.926  0.00  0.00    +0.000 A 
ATOM     23  C   UNL     1       7.852   5.320  12.460  0.00  0.00    +0.000 A 
ATOM     24  O   UNL     1       7.594   5.446  13.781  0.00  0.00    +0.000 OA
ENDBRANCH  19  20
ENDBRANCH  16  18
ENDBRANCH   1  16
TORSDOF 3
ENDMDL
MODEL 7
REMARK VINA RESULT:      -7.8      1.461      1.862
REMARK  Name = 
REMARK  3 active torsions:
REMARK  status: ('A' for Active; 'I' for Inactive)
REMARK    1  A    between atoms: C_1  and  N_8
REMARK    2  A    between atoms: C_2  and  C_3
REMARK    3  A    between atoms: N_8  and  N_9
REMARK                            x       y       z     vdW  Elec       q    Type
REMARK                         _______ _______ _______ _____ _____    ______ ____
ROOT
ATOM      1  N   UNL     1       1.964   8.210  19.494  0.00  0.00    +0.000 N 
ATOM      2  C   UNL     1       2.585   7.119  18.900  0.00  0.00    +0.000 A 
ATOM      3  N   UNL     1       3.394   7.295  17.882  0.00  0.00    +0.000 NA
ATOM      4  C   UNL     1       4.048   6.187  17.302  0.00  0.00    +0.000 A 
ATOM      5  C   UNL     1       4.948   6.415  16.258  0.00  0.00    +0.000 A 
ATOM      6  C   UNL     1       5.630   5.354  15.655  0.00  0.00    +0.000 A 
ATOM      7  C   UNL     1       5.414   4.045  16.089  0.00  0.00    +0.000 A 
ATOM      8  C   UNL     1       4.521   3.790  17.129  0.00  0.00    +0.000 A 
ATOM      9  C   UNL     1       3.853   4.863  17.729  0.00  0.00    +0.000 A 
ATOM     10  N   UNL     1       2.956   4.694  18.796  0.00  0.00    +0.000 N 
ATOM     11  C   UNL     1       2.539   3.542  19.419  0.00  0.00    +0.000 A 
ATOM     12  C   UNL     1       1.640   3.886  20.405  0.00  0.00    +0.000 A 
ATOM     13  C   UNL     1       1.515   5.295  20.387  0.00  0.00    +0.000 A 
ATOM     14  C   UNL     1       2.339   5.773  19.383  0.00  0.00    +0.000 A 
ATOM     15  H   UNL     1       1.272   7.970  20.196  0.00  0.00    +0.000 HD
ENDROOT
BRANCH   1  16
ATOM     16  N   UNL     1       1.689   9.346  18.784  0.00  0.00    +0.000 N 
ATOM     17  H   UNL     1       2.334  10.126  18.936  0.00  0.00    +0.000 HD
BRANCH  16  18
ATOM     18  C   UNL     1       0.524   9.619  18.116  0.00  0.00    +0.000 C 
ATOM     19  C   UNL     1      -0.565  10.245  18.582  0.00  0.00    +0.000 C 
BRANCH  19  20
ATOM     20  C   UNL     1      -1.696  10.448  17.743  0.00  0.00    +0.000 A 
ATOM     21  C   UNL     1      -2.680  11.426  17.829  0.00  0.00    +0.000 A 
ATOM     22  C   UNL     1      -3.603  11.213  16.776  0.00  0.00    +0.000 A 
ATOM     23  C   UNL     1      -3.141  10.120  16.093  0.00  0.00    +0.000 A 
ATOM     24  O   UNL     1      -2.002   9.656  16.656  0.00  0.00    +0.000 OA
ENDBRANCH  19  20
ENDBRANCH  16  18
ENDBRANCH   1  16
TORSDOF 3
ENDMDL
MODEL 8
REMARK VINA RESULT:      -7.7      3.901      7.796
REMARK  Name = 
REMARK  3 active torsions:
REMARK  status: ('A' for Active; 'I' for Inactive)
REMARK    1  A    between atoms: C_1  and  N_8
REMARK    2  A    between atoms: C_2  and  C_3
REMARK    3  A    between atoms: N_8  and  N_9
REMARK                            x       y       z     vdW  Elec       q    Type
REMARK                         _______ _______ _______ _____ _____    ______ ____
ROOT
ATOM      1  N   UNL     1       6.404   5.580  16.858  0.00  0.00    +0.000 N 
ATOM      2  C   UNL     1       5.161   5.192  17.340  0.00  0.00    +0.000 A 
ATOM      3  N   UNL     1       4.894   3.921  17.526  0.00  0.00    +0.000 NA
ATOM      4  C   UNL     1       3.640   3.533  18.047  0.00  0.00    +0.000 A 
ATOM      5  C   UNL     1       3.410   2.176  18.288  0.00  0.00    +0.000 A 
ATOM      6  C   UNL     1       2.189   1.739  18.813  0.00  0.00    +0.000 A 
ATOM      7  C   UNL     1       1.179   2.659  19.099  0.00  0.00    +0.000 A 
ATOM      8  C   UNL     1       1.385   4.019  18.868  0.00  0.00    +0.000 A 
ATOM      9  C   UNL     1       2.614   4.442  18.351  0.00  0.00    +0.000 A 
ATOM     10  N   UNL     1       2.908   5.794  18.111  0.00  0.00    +0.000 N 
ATOM     11  C   UNL     1       2.122   6.908  18.280  0.00  0.00    +0.000 A 
ATOM     12  C   UNL     1       2.850   8.013  17.896  0.00  0.00    +0.000 A 
ATOM     13  C   UNL     1       4.125   7.555  17.489  0.00  0.00    +0.000 A 
ATOM     14  C   UNL     1       4.138   6.179  17.631  0.00  0.00    +0.000 A 
ATOM     15  H   UNL     1       6.482   6.568  16.639  0.00  0.00    +0.000 HD
ENDROOT
BRANCH   1  16
ATOM     16  N   UNL     1       7.145   4.756  16.056  0.00  0.00    +0.000 N 
ATOM     17  H   UNL     1       8.160   4.841  16.160  0.00  0.00    +0.000 HD
BRANCH  16  18
ATOM     18  C   UNL     1       6.683   4.046  14.980  0.00  0.00    +0.000 C 
ATOM     19  C   UNL     1       6.502   4.478  13.724  0.00  0.00    +0.000 C 
BRANCH  19  20
ATOM     20  C   UNL     1       6.011   3.598  12.721  0.00  0.00    +0.000 A 
ATOM     21  C   UNL     1       6.694   2.614  12.015  0.00  0.00    +0.000 A 
ATOM     22  C   UNL     1       5.783   2.008  11.116  0.00  0.00    +0.000 A 
ATOM     23  C   UNL     1       4.587   2.644  11.314  0.00  0.00    +0.000 A 
ATOM     24  O   UNL     1       4.707   3.592  12.271  0.00  0.00    +0.000 OA
ENDBRANCH  19  20
ENDBRANCH  16  18
ENDBRANCH   1  16
TORSDOF 3
ENDMDL
MODEL 9
REMARK VINA RESULT:      -7.6      1.610      3.456
REMARK  Name = 
REMARK  3 active torsions:
REMARK  status: ('A' for Active; 'I' for Inactive)
REMARK    1  A    between atoms: C_1  and  N_8
REMARK    2  A    between atoms: C_2  and  C_3
REMARK    3  A    between atoms: N_8  and  N_9
REMARK                            x       y       z     vdW  Elec       q    Type
REMARK                         _______ _______ _______ _____ _____    ______ ____
ROOT
ATOM      1  N   UNL     1       3.093   8.292  17.628  0.00  0.00    +0.000 N 
ATOM      2  C   UNL     1       3.289   6.919  17.686  0.00  0.00    +0.000 A 
ATOM      3  N   UNL     1       2.304   6.127  18.040  0.00  0.00    +0.000 NA
ATOM      4  C   UNL     1       2.498   4.729  18.067  0.00  0.00    +0.000 A 
ATOM      5  C   UNL     1       1.413   3.911  18.391  0.00  0.00    +0.000 A 
ATOM      6  C   UNL     1       1.549   2.520  18.422  0.00  0.00    +0.000 A 
ATOM      7  C   UNL     1       2.779   1.929  18.133  0.00  0.00    +0.000 A 
ATOM      8  C   UNL     1       3.879   2.723  17.807  0.00  0.00    +0.000 A 
ATOM      9  C   UNL     1       3.725   4.113  17.771  0.00  0.00    +0.000 A 
ATOM     10  N   UNL     1       4.775   4.981  17.429  0.00  0.00    +0.000 N 
ATOM     11  C   UNL     1       6.082   4.697  17.113  0.00  0.00    +0.000 A 
ATOM     12  C   UNL     1       6.734   5.886  16.864  0.00  0.00    +0.000 A 
ATOM     13  C   UNL     1       5.787   6.925  17.024  0.00  0.00    +0.000 A 
ATOM     14  C   UNL     1       4.583   6.341  17.373  0.00  0.00    +0.000 A 
ATOM     15  H   UNL     1       3.935   8.832  17.457  0.00  0.00    +0.000 HD
ENDROOT
BRANCH   1  16
ATOM     16  N   UNL     1       2.168   8.914  18.420  0.00  0.00    +0.000 N 
ATOM     17  H   UNL     1       2.360   8.884  19.425  0.00  0.00    +0.000 HD
BRANCH  16  18
ATOM     18  C   UNL     1       0.921   9.328  18.034  0.00  0.00    +0.000 C 
ATOM     19  C   UNL     1       0.053  10.081  18.724  0.00  0.00    +0.000 C 
BRANCH  19  20
ATOM     20  C   UNL     1      -1.210  10.423  18.167  0.00  0.00    +0.000 A 
ATOM     21  C   UNL     1      -1.845   9.888  17.052  0.00  0.00    +0.000 A 
ATOM     22  C   UNL     1      -3.081  10.559  16.886  0.00  0.00    +0.000 A 
ATOM     23  C   UNL     1      -3.148  11.470  17.906  0.00  0.00    +0.000 A 
ATOM     24  O   UNL     1      -2.042  11.397  18.680  0.00  0.00    +0.000 OA
ENDBRANCH  19  20
ENDBRANCH  16  18
ENDBRANCH   1  16
TORSDOF 3
ENDMDL
