MODEL 1
REMARK VINA RESULT:      -7.6      0.000      0.000
REMARK  Name = 
REMARK  8 active torsions:
REMARK  status: ('A' for Active; 'I' for Inactive)
REMARK    1  A    between atoms: C_1  and  C_2
REMARK    2  A    between atoms: C_2  and  C_3
REMARK    3  A    between atoms: C_2  and  C_4
REMARK    4  A    between atoms: N_6  and  O_7
REMARK    5  A    between atoms: O_7  and  C_8
REMARK    6  A    between atoms: N_10  and  C_11
REMARK    7  A    between atoms: C_14  and  O_15
REMARK    8  A    between atoms: O_15  and  C_16
REMARK                            x       y       z     vdW  Elec       q    Type
REMARK                         _______ _______ _______ _____ _____    ______ ____
ROOT
ATOM      1  C   UNL     1       5.858   5.620  15.564  0.00  0.00    +0.000 C 
ATOM      2  O   UNL     1       5.718   6.780  15.917  0.00  0.00    +0.000 OA
ATOM      3  N   UNL     1       5.501   4.483  16.249  0.00  0.00    +0.000 N 
ATOM      4  H   UNL     1       5.957   3.640  15.930  0.00  0.00    +0.000 HD
ENDROOT
BRANCH   3   5
ATOM      5  C   UNL     1       4.707   4.425  17.404  0.00  0.00    +0.000 A 
ATOM      6  C   UNL     1       3.416   4.946  17.449  0.00  0.00    +0.000 A 
ATOM      7  C   UNL     1       2.631   4.785  18.593  0.00  0.00    +0.000 A 
ATOM      8  C   UNL     1       3.128   4.116  19.711  0.00  0.00    +0.000 A 
ATOM      9  C   UNL     1       4.443   3.655  19.694  0.00  0.00    +0.000 A 
ATOM     10  C   UNL     1       5.218   3.777  18.532  0.00  0.00    +0.000 A 
BRANCH   8  11
ATOM     11  O   UNL     1       2.268   4.045  20.764  0.00  0.00    +0.000 OA
BRANCH  11  12
ATOM     12  C   UNL     1       1.296   3.011  20.812  0.00  0.00    +0.000 C 
ATOM     13  F   UNL     1       1.628   1.893  20.135  0.00  0.00    +0.000 F 
ATOM     14  F   UNL     1       1.072   2.681  22.102  0.00  0.00    +0.000 F 
ATOM     15  F   UNL     1       0.139   3.480  20.292  0.00  0.00    +0.000 F 
ENDBRANCH  11  12
ENDBRANCH   8  11
ENDBRANCH   3   5
BRANCH   1  16
ATOM     16  O   UNL     1       6.457   5.252  14.380  0.00  0.00    +0.000 OA
BRANCH  16  19
ATOM     17  C   UNL     1       6.278   3.732  12.733  0.00  0.00    +0.000 C 
ATOM     18 CL   UNL     1       7.452   4.612  11.838  0.00  0.00    +0.000 Cl
ATOM     19  N   UNL     1       5.903   4.037  13.936  0.00  0.00    +0.000 NA
BRANCH  17  21
ATOM     20  C   UNL     1       4.419   3.033  11.202  0.00  0.00    +0.000 C 
ATOM     21  C   UNL     1       5.629   2.570  12.007  0.00  0.00    +0.000 C 
ATOM     22  C   UNL     1       6.674   1.925  11.097  0.00  0.00    +0.000 C 
ENDBRANCH  17  21
ENDBRANCH  16  19
ENDBRANCH   1  16
TORSDOF 6
ENDMDL
MODEL 2
REMARK VINA RESULT:      -7.5      1.365      1.762
REMARK  Name = 
REMARK  8 active torsions:
REMARK  status: ('A' for Active; 'I' for Inactive)
REMARK    1  A    between atoms: C_1  and  C_2
REMARK    2  A    between atoms: C_2  and  C_3
REMARK    3  A    between atoms: C_2  and  C_4
REMARK    4  A    between atoms: N_6  and  O_7
REMARK    5  A    between atoms: O_7  and  C_8
REMARK    6  A    between atoms: N_10  and  C_11
REMARK    7  A    between atoms: C_14  and  O_15
REMARK    8  A    between atoms: O_15  and  C_16
REMARK                            x       y       z     vdW  Elec       q    Type
REMARK                         _______ _______ _______ _____ _____    ______ ____
ROOT
ATOM      1  C   UNL     1       6.246   4.283  16.104  0.00  0.00    +0.000 C 
ATOM      2  O   UNL     1       6.966   4.353  17.088  0.00  0.00    +0.000 OA
ATOM      3  N   UNL     1       4.941   3.858  16.047  0.00  0.00    +0.000 N 
ATOM      4  H   UNL     1       4.624   3.599  15.123  0.00  0.00    +0.000 HD
ENDROOT
BRANCH   3   5
ATOM      5  C   UNL     1       4.098   3.616  17.142  0.00  0.00    +0.000 A 
ATOM      6  C   UNL     1       3.375   4.630  17.765  0.00  0.00    +0.000 A 
ATOM      7  C   UNL     1       2.480   4.327  18.793  0.00  0.00    +0.000 A 
ATOM      8  C   UNL     1       2.305   3.012  19.223  0.00  0.00    +0.000 A 
ATOM      9  C   UNL     1       3.077   2.004  18.649  0.00  0.00    +0.000 A 
ATOM     10  C   UNL     1       3.945   2.299  17.587  0.00  0.00    +0.000 A 
BRANCH   8  11
ATOM     11  O   UNL     1       1.418   2.857  20.244  0.00  0.00    +0.000 OA
BRANCH  11  12
ATOM     12  C   UNL     1       1.855   3.006  21.587  0.00  0.00    +0.000 C 
ATOM     13  F   UNL     1       2.151   4.272  21.947  0.00  0.00    +0.000 F 
ATOM     14  F   UNL     1       0.896   2.538  22.414  0.00  0.00    +0.000 F 
ATOM     15  F   UNL     1       2.966   2.256  21.765  0.00  0.00    +0.000 F 
ENDBRANCH  11  12
ENDBRANCH   8  11
ENDBRANCH   3   5
BRANCH   1  16
ATOM     16  O   UNL     1       6.662   4.604  14.832  0.00  0.00    +0.000 OA
BRANCH  16  19
ATOM     17  C   UNL     1       6.506   3.903  12.702  0.00  0.00    +0.000 C 
ATOM     18 CL   UNL     1       7.736   5.026  12.276  0.00  0.00    +0.000 Cl
ATOM     19  N   UNL     1       6.094   3.702  13.914  0.00  0.00    +0.000 NA
BRANCH  17  21
ATOM     20  C   UNL     1       6.258   1.696  11.536  0.00  0.00    +0.000 C 
ATOM     21  C   UNL     1       5.855   3.167  11.546  0.00  0.00    +0.000 C 
ATOM     22  C   UNL     1       4.339   3.316  11.673  0.00  0.00    +0.000 C 
ENDBRANCH  17  21
ENDBRANCH  16  19
ENDBRANCH   1  16
TORSDOF 6
ENDMDL
MODEL 3
REMARK VINA RESULT:      -7.5      1.389      1.957
REMARK  Name = 
REMARK  8 active torsions:
REMARK  status: ('A' for Active; 'I' for Inactive)
REMARK    1  A    between atoms: C_1  and  C_2
REMARK    2  A    between atoms: C_2  and  C_3
REMARK    3  A    between atoms: C_2  and  C_4
REMARK    4  A    between atoms: N_6  and  O_7
REMARK    5  A    between atoms: O_7  and  C_8
REMARK    6  A    between atoms: N_10  and  C_11
REMARK    7  A    between atoms: C_14  and  O_15
REMARK    8  A    between atoms: O_15  and  C_16
REMARK                            x       y       z     vdW  Elec       q    Type
REMARK                         _______ _______ _______ _____ _____    ______ ____
ROOT
ATOM      1  C   UNL     1       6.311   4.311  16.221  0.00  0.00    +0.000 C 
ATOM      2  O   UNL     1       6.930   4.404  17.271  0.00  0.00    +0.000 OA
ATOM      3  N   UNL     1       5.026   3.860  16.040  0.00  0.00    +0.000 N 
ATOM      4  H   UNL     1       4.807   3.587  15.092  0.00  0.00    +0.000 HD
ENDROOT
BRANCH   3   5
ATOM      5  C   UNL     1       4.084   3.611  17.049  0.00  0.00    +0.000 A 
ATOM      6  C   UNL     1       3.833   2.331  17.537  0.00  0.00    +0.000 A 
ATOM      7  C   UNL     1       2.951   2.145  18.604  0.00  0.00    +0.000 A 
ATOM      8  C   UNL     1       2.298   3.229  19.188  0.00  0.00    +0.000 A 
ATOM      9  C   UNL     1       2.494   4.502  18.658  0.00  0.00    +0.000 A 
ATOM     10  C   UNL     1       3.411   4.698  17.615  0.00  0.00    +0.000 A 
BRANCH   8  11
ATOM     11  O   UNL     1       1.453   2.906  20.206  0.00  0.00    +0.000 OA
BRANCH  11  12
ATOM     12  C   UNL     1       1.889   3.032  21.551  0.00  0.00    +0.000 C 
ATOM     13  F   UNL     1       2.172   4.293  21.937  0.00  0.00    +0.000 F 
ATOM     14  F   UNL     1       0.934   2.538  22.368  0.00  0.00    +0.000 F 
ATOM     15  F   UNL     1       3.007   2.289  21.714  0.00  0.00    +0.000 F 
ENDBRANCH  11  12
ENDBRANCH   8  11
ENDBRANCH   3   5
BRANCH   1  16
ATOM     16  O   UNL     1       6.845   4.629  14.993  0.00  0.00    +0.000 OA
BRANCH  16  19
ATOM     17  C   UNL     1       6.725   4.054  12.823  0.00  0.00    +0.000 C 
ATOM     18 CL   UNL     1       7.880   5.277  12.469  0.00  0.00    +0.000 Cl
ATOM     19  N   UNL     1       6.332   3.751  14.020  0.00  0.00    +0.000 NA
BRANCH  17  21
ATOM     20  C   UNL     1       6.721   1.964  11.436  0.00  0.00    +0.000 C 
ATOM     21  C   UNL     1       6.117   3.352  11.624  0.00  0.00    +0.000 C 
ATOM     22  C   UNL     1       4.605   3.265  11.832  0.00  0.00    +0.000 C 
ENDBRANCH  17  21
ENDBRANCH  16  19
ENDBRANCH   1  16
TORSDOF 6
ENDMDL
MODEL 4
REMARK VINA RESULT:      -7.5      0.675      1.621
REMARK  Name = 
REMARK  8 active torsions:
REMARK  status: ('A' for Active; 'I' for Inactive)
REMARK    1  A    between atoms: C_1  and  C_2
REMARK    2  A    between atoms: C_2  and  C_3
REMARK    3  A    between atoms: C_2  and  C_4
REMARK    4  A    between atoms: N_6  and  O_7
REMARK    5  A    between atoms: O_7  and  C_8
REMARK    6  A    between atoms: N_10  and  C_11
REMARK    7  A    between atoms: C_14  and  O_15
REMARK    8  A    between atoms: O_15  and  C_16
REMARK                            x       y       z     vdW  Elec       q    Type
REMARK                         _______ _______ _______ _____ _____    ______ ____
ROOT
ATOM      1  C   UNL     1       6.070   4.975  15.397  0.00  0.00    +0.000 C 
ATOM      2  O   UNL     1       5.659   6.122  15.476  0.00  0.00    +0.000 OA
ATOM      3  N   UNL     1       5.821   3.931  16.255  0.00  0.00    +0.000 N 
ATOM      4  H   UNL     1       6.473   3.163  16.182  0.00  0.00    +0.000 HD
ENDROOT
BRANCH   3   5
ATOM      5  C   UNL     1       4.870   3.914  17.287  0.00  0.00    +0.000 A 
ATOM      6  C   UNL     1       5.216   4.097  18.624  0.00  0.00    +0.000 A 
ATOM      7  C   UNL     1       4.225   4.161  19.605  0.00  0.00    +0.000 A 
ATOM      8  C   UNL     1       2.878   4.030  19.269  0.00  0.00    +0.000 A 
ATOM      9  C   UNL     1       2.534   3.777  17.942  0.00  0.00    +0.000 A 
ATOM     10  C   UNL     1       3.523   3.755  16.949  0.00  0.00    +0.000 A 
BRANCH   8  11
ATOM     11  O   UNL     1       2.017   4.092  20.321  0.00  0.00    +0.000 OA
BRANCH  11  12
ATOM     12  C   UNL     1       1.249   2.951  20.673  0.00  0.00    +0.000 C 
ATOM     13  F   UNL     1       0.948   2.857  21.985  0.00  0.00    +0.000 F 
ATOM     14  F   UNL     1       0.097   2.964  19.969  0.00  0.00    +0.000 F 
ATOM     15  F   UNL     1       1.940   1.841  20.328  0.00  0.00    +0.000 F 
ENDBRANCH  11  12
ENDBRANCH   8  11
ENDBRANCH   3   5
BRANCH   1  16
ATOM     16  O   UNL     1       6.915   4.536  14.402  0.00  0.00    +0.000 OA
BRANCH  16  19
ATOM     17  C   UNL     1       6.471   3.737  12.349  0.00  0.00    +0.000 C 
ATOM     18 CL   UNL     1       7.581   4.878  11.700  0.00  0.00    +0.000 Cl
ATOM     19  N   UNL     1       6.252   3.577  13.616  0.00  0.00    +0.000 NA
BRANCH  17  21
ATOM     20  C   UNL     1       5.992   1.443  11.456  0.00  0.00    +0.000 C 
ATOM     21  C   UNL     1       5.684   2.931  11.334  0.00  0.00    +0.000 C 
ATOM     22  C   UNL     1       4.195   3.199  11.556  0.00  0.00    +0.000 C 
ENDBRANCH  17  21
ENDBRANCH  16  19
ENDBRANCH   1  16
TORSDOF 6
ENDMDL
MODEL 5
REMARK VINA RESULT:      -7.4      0.532      1.237
REMARK  Name = 
REMARK  8 active torsions:
REMARK  status: ('A' for Active; 'I' for Inactive)
REMARK    1  A    between atoms: C_1  and  C_2
REMARK    2  A    between atoms: C_2  and  C_3
REMARK    3  A    between atoms: C_2  and  C_4
REMARK    4  A    between atoms: N_6  and  O_7
REMARK    5  A    between atoms: O_7  and  C_8
REMARK    6  A    between atoms: N_10  and  C_11
REMARK    7  A    between atoms: C_14  and  O_15
REMARK    8  A    between atoms: O_15  and  C_16
REMARK                            x       y       z     vdW  Elec       q    Type
REMARK                         _______ _______ _______ _____ _____    ______ ____
ROOT
ATOM      1  C   UNL     1       5.686   5.613  15.589  0.00  0.00    +0.000 C 
ATOM      2  O   UNL     1       5.536   6.742  16.031  0.00  0.00    +0.000 OA
ATOM      3  N   UNL     1       5.345   4.424  16.187  0.00  0.00    +0.000 N 
ATOM      4  H   UNL     1       5.808   3.612  15.802  0.00  0.00    +0.000 HD
ENDROOT
BRANCH   3   5
ATOM      5  C   UNL     1       4.559   4.269  17.338  0.00  0.00    +0.000 A 
ATOM      6  C   UNL     1       5.094   3.866  18.559  0.00  0.00    +0.000 A 
ATOM      7  C   UNL     1       4.288   3.813  19.698  0.00  0.00    +0.000 A 
ATOM      8  C   UNL     1       2.937   4.147  19.633  0.00  0.00    +0.000 A 
ATOM      9  C   UNL     1       2.382   4.484  18.399  0.00  0.00    +0.000 A 
ATOM     10  C   UNL     1       3.197   4.580  17.262  0.00  0.00    +0.000 A 
BRANCH   8  11
ATOM     11  O   UNL     1       2.262   4.035  20.810  0.00  0.00    +0.000 OA
BRANCH  11  12
ATOM     12  C   UNL     1       1.904   2.751  21.298  0.00  0.00    +0.000 C 
ATOM     13  F   UNL     1       1.579   1.855  20.343  0.00  0.00    +0.000 F 
ATOM     14  F   UNL     1       2.933   2.254  22.018  0.00  0.00    +0.000 F 
ATOM     15  F   UNL     1       0.840   2.882  22.121  0.00  0.00    +0.000 F 
ENDBRANCH  11  12
ENDBRANCH   8  11
ENDBRANCH   3   5
BRANCH   1  16
ATOM     16  O   UNL     1       6.282   5.343  14.377  0.00  0.00    +0.000 OA
BRANCH  16  19
ATOM     17  C   UNL     1       6.339   3.791  12.753  0.00  0.00    +0.000 C 
ATOM     18 CL   UNL     1       7.509   4.743  11.929  0.00  0.00    +0.000 Cl
ATOM     19  N   UNL     1       5.854   4.084  13.918  0.00  0.00    +0.000 NA
BRANCH  17  21
ATOM     20  C   UNL     1       4.561   2.894  11.228  0.00  0.00    +0.000 C 
ATOM     21  C   UNL     1       5.834   2.572  12.004  0.00  0.00    +0.000 C 
ATOM     22  C   UNL     1       6.939   2.091  11.064  0.00  0.00    +0.000 C 
ENDBRANCH  17  21
ENDBRANCH  16  19
ENDBRANCH   1  16
TORSDOF 6
ENDMDL
MODEL 6
REMARK VINA RESULT:      -7.3      0.914      1.385
REMARK  Name = 
REMARK  8 active torsions:
REMARK  status: ('A' for Active; 'I' for Inactive)
REMARK    1  A    between atoms: C_1  and  C_2
REMARK    2  A    between atoms: C_2  and  C_3
REMARK    3  A    between atoms: C_2  and  C_4
REMARK    4  A    between atoms: N_6  and  O_7
REMARK    5  A    between atoms: O_7  and  C_8
REMARK    6  A    between atoms: N_10  and  C_11
REMARK    7  A    between atoms: C_14  and  O_15
REMARK    8  A    between atoms: O_15  and  C_16
REMARK                            x       y       z     vdW  Elec       q    Type
REMARK                         _______ _______ _______ _____ _____    ______ ____
ROOT
ATOM      1  C   UNL     1       6.099   5.167  15.266  0.00  0.00    +0.000 C 
ATOM      2  O   UNL     1       5.682   6.315  15.229  0.00  0.00    +0.000 OA
ATOM      3  N   UNL     1       5.849   4.212  16.221  0.00  0.00    +0.000 N 
ATOM      4  H   UNL     1       6.505   3.443  16.228  0.00  0.00    +0.000 HD
ENDROOT
BRANCH   3   5
ATOM      5  C   UNL     1       4.891   4.292  17.244  0.00  0.00    +0.000 A 
ATOM      6  C   UNL     1       3.619   3.738  17.119  0.00  0.00    +0.000 A 
ATOM      7  C   UNL     1       2.732   3.764  18.197  0.00  0.00    +0.000 A 
ATOM      8  C   UNL     1       3.095   4.353  19.407  0.00  0.00    +0.000 A 
ATOM      9  C   UNL     1       4.340   4.969  19.512  0.00  0.00    +0.000 A 
ATOM     10  C   UNL     1       5.250   4.907  18.447  0.00  0.00    +0.000 A 
BRANCH   8  11
ATOM     11  O   UNL     1       2.131   4.327  20.368  0.00  0.00    +0.000 OA
BRANCH  11  12
ATOM     12  C   UNL     1       2.045   3.217  21.250  0.00  0.00    +0.000 C 
ATOM     13  F   UNL     1       0.864   2.566  21.223  0.00  0.00    +0.000 F 
ATOM     14  F   UNL     1       3.025   2.339  20.946  0.00  0.00    +0.000 F 
ATOM     15  F   UNL     1       2.248   3.652  22.514  0.00  0.00    +0.000 F 
ENDBRANCH  11  12
ENDBRANCH   8  11
ENDBRANCH   3   5
BRANCH   1  16
ATOM     16  O   UNL     1       6.953   4.637  14.325  0.00  0.00    +0.000 OA
BRANCH  16  19
ATOM     17  C   UNL     1       6.506   3.733  12.316  0.00  0.00    +0.000 C 
ATOM     18 CL   UNL     1       7.637   4.819  11.612  0.00  0.00    +0.000 Cl
ATOM     19  N   UNL     1       6.278   3.646  13.589  0.00  0.00    +0.000 NA
BRANCH  17  21
ATOM     20  C   UNL     1       6.016   1.402  11.530  0.00  0.00    +0.000 C 
ATOM     21  C   UNL     1       5.711   2.884  11.342  0.00  0.00    +0.000 C 
ATOM     22  C   UNL     1       4.225   3.167  11.560  0.00  0.00    +0.000 C 
ENDBRANCH  17  21
ENDBRANCH  16  19
ENDBRANCH   1  16
TORSDOF 6
ENDMDL
MODEL 7
REMARK VINA RESULT:      -7.3      0.847      1.412
REMARK  Name = 
REMARK  8 active torsions:
REMARK  status: ('A' for Active; 'I' for Inactive)
REMARK    1  A    between atoms: C_1  and  C_2
REMARK    2  A    between atoms: C_2  and  C_3
REMARK    3  A    between atoms: C_2  and  C_4
REMARK    4  A    between atoms: N_6  and  O_7
REMARK    5  A    between atoms: O_7  and  C_8
REMARK    6  A    between atoms: N_10  and  C_11
REMARK    7  A    between atoms: C_14  and  O_15
REMARK    8  A    between atoms: O_15  and  C_16
REMARK                            x       y       z     vdW  Elec       q    Type
REMARK                         _______ _______ _______ _____ _____    ______ ____
ROOT
ATOM      1  C   UNL     1       5.461   5.684  15.516  0.00  0.00    +0.000 C 
ATOM      2  O   UNL     1       5.143   6.819  15.838  0.00  0.00    +0.000 OA
ATOM      3  N   UNL     1       5.179   4.513  16.177  0.00  0.00    +0.000 N 
ATOM      4  H   UNL     1       5.767   3.732  15.917  0.00  0.00    +0.000 HD
ENDROOT
BRANCH   3   5
ATOM      5  C   UNL     1       4.285   4.358  17.247  0.00  0.00    +0.000 A 
ATOM      6  C   UNL     1       4.564   4.832  18.527  0.00  0.00    +0.000 A 
ATOM      7  C   UNL     1       3.605   4.734  19.537  0.00  0.00    +0.000 A 
ATOM      8  C   UNL     1       2.364   4.150  19.290  0.00  0.00    +0.000 A 
ATOM      9  C   UNL     1       2.108   3.613  18.030  0.00  0.00    +0.000 A 
ATOM     10  C   UNL     1       3.051   3.748  17.002  0.00  0.00    +0.000 A 
BRANCH   8  11
ATOM     11  O   UNL     1       1.530   4.101  20.366  0.00  0.00    +0.000 OA
BRANCH  11  12
ATOM     12  C   UNL     1       1.827   3.232  21.449  0.00  0.00    +0.000 C 
ATOM     13  F   UNL     1       2.434   3.824  22.497  0.00  0.00    +0.000 F 
ATOM     14  F   UNL     1       0.680   2.665  21.881  0.00  0.00    +0.000 F 
ATOM     15  F   UNL     1       2.639   2.247  21.003  0.00  0.00    +0.000 F 
ENDBRANCH  11  12
ENDBRANCH   8  11
ENDBRANCH   3   5
BRANCH   1  16
ATOM     16  O   UNL     1       6.218   5.392  14.403  0.00  0.00    +0.000 OA
BRANCH  16  19
ATOM     17  C   UNL     1       6.420   3.844  12.786  0.00  0.00    +0.000 C 
ATOM     18 CL   UNL     1       7.553   4.866  11.995  0.00  0.00    +0.000 Cl
ATOM     19  N   UNL     1       5.883   4.108  13.936  0.00  0.00    +0.000 NA
BRANCH  17  21
ATOM     20  C   UNL     1       4.727   2.826  11.242  0.00  0.00    +0.000 C 
ATOM     21  C   UNL     1       6.013   2.595  12.027  0.00  0.00    +0.000 C 
ATOM     22  C   UNL     1       7.159   2.205  11.094  0.00  0.00    +0.000 C 
ENDBRANCH  17  21
ENDBRANCH  16  19
ENDBRANCH   1  16
TORSDOF 6
ENDMDL
MODEL 8
REMARK VINA RESULT:      -7.3      1.208      1.656
REMARK  Name = 
REMARK  8 active torsions:
REMARK  status: ('A' for Active; 'I' for Inactive)
REMARK    1  A    between atoms: C_1  and  C_2
REMARK    2  A    between atoms: C_2  and  C_3
REMARK    3  A    between atoms: C_2  and  C_4
REMARK    4  A    between atoms: N_6  and  O_7
REMARK    5  A    between atoms: O_7  and  C_8
REMARK    6  A    between atoms: N_10  and  C_11
REMARK    7  A    between atoms: C_14  and  O_15
REMARK    8  A    between atoms: O_15  and  C_16
REMARK                            x       y       z     vdW  Elec       q    Type
REMARK                         _______ _______ _______ _____ _____    ______ ____
ROOT
ATOM      1  C   UNL     1       6.955   4.669  16.212  0.00  0.00    +0.000 C 
ATOM      2  O   UNL     1       7.827   4.548  17.059  0.00  0.00    +0.000 OA
ATOM      3  N   UNL     1       5.616   4.388  16.337  0.00  0.00    +0.000 N 
ATOM      4  H   UNL     1       5.127   4.275  15.460  0.00  0.00    +0.000 HD
ENDROOT
BRANCH   3   5
ATOM      5  C   UNL     1       4.936   4.104  17.531  0.00  0.00    +0.000 A 
ATOM      6  C   UNL     1       4.729   5.064  18.518  0.00  0.00    +0.000 A 
ATOM      7  C   UNL     1       3.968   4.759  19.648  0.00  0.00    +0.000 A 
ATOM      8  C   UNL     1       3.416   3.490  19.816  0.00  0.00    +0.000 A 
ATOM      9  C   UNL     1       3.679   2.507  18.864  0.00  0.00    +0.000 A 
ATOM     10  C   UNL     1       4.406   2.822  17.707  0.00  0.00    +0.000 A 
BRANCH   8  11
ATOM     11  O   UNL     1       2.713   3.320  20.970  0.00  0.00    +0.000 OA
BRANCH  11  12
ATOM     12  C   UNL     1       1.298   3.217  20.925  0.00  0.00    +0.000 C 
ATOM     13  F   UNL     1       0.734   2.695  22.034  0.00  0.00    +0.000 F 
ATOM     14  F   UNL     1       0.776   4.446  20.717  0.00  0.00    +0.000 F 
ATOM     15  F   UNL     1       0.954   2.433  19.878  0.00  0.00    +0.000 F 
ENDBRANCH  11  12
ENDBRANCH   8  11
ENDBRANCH   3   5
BRANCH   1  16
ATOM     16  O   UNL     1       7.198   5.095  14.925  0.00  0.00    +0.000 OA
BRANCH  16  19
ATOM     17  C   UNL     1       7.036   4.399  12.794  0.00  0.00    +0.000 C 
ATOM     18 CL   UNL     1       8.147   5.630  12.342  0.00  0.00    +0.000 Cl
ATOM     19  N   UNL     1       6.683   4.153  14.017  0.00  0.00    +0.000 NA
BRANCH  17  21
ATOM     20  C   UNL     1       7.152   2.303  11.423  0.00  0.00    +0.000 C 
ATOM     21  C   UNL     1       6.415   3.618  11.652  0.00  0.00    +0.000 C 
ATOM     22  C   UNL     1       4.944   3.368  11.984  0.00  0.00    +0.000 C 
ENDBRANCH  17  21
ENDBRANCH  16  19
ENDBRANCH   1  16
TORSDOF 6
ENDMDL
MODEL 9
REMARK VINA RESULT:      -7.3      1.220      1.715
REMARK  Name = 
REMARK  8 active torsions:
REMARK  status: ('A' for Active; 'I' for Inactive)
REMARK    1  A    between atoms: C_1  and  C_2
REMARK    2  A    between atoms: C_2  and  C_3
REMARK    3  A    between atoms: C_2  and  C_4
REMARK    4  A    between atoms: N_6  and  O_7
REMARK    5  A    between atoms: O_7  and  C_8
REMARK    6  A    between atoms: N_10  and  C_11
REMARK    7  A    between atoms: C_14  and  O_15
REMARK    8  A    between atoms: O_15  and  C_16
REMARK                            x       y       z     vdW  Elec       q    Type
REMARK                         _______ _______ _______ _____ _____    ______ ____
ROOT
ATOM      1  C   UNL     1       6.915   4.624  16.279  0.00  0.00    +0.000 C 
ATOM      2  O   UNL     1       7.710   4.571  17.205  0.00  0.00    +0.000 OA
ATOM      3  N   UNL     1       5.576   4.316  16.302  0.00  0.00    +0.000 N 
ATOM      4  H   UNL     1       5.169   4.144  15.393  0.00  0.00    +0.000 HD
ENDROOT
BRANCH   3   5
ATOM      5  C   UNL     1       4.798   4.080  17.445  0.00  0.00    +0.000 A 
ATOM      6  C   UNL     1       4.336   2.810  17.784  0.00  0.00    +0.000 A 
ATOM      7  C   UNL     1       3.641   2.610  18.979  0.00  0.00    +0.000 A 
ATOM      8  C   UNL     1       3.386   3.673  19.843  0.00  0.00    +0.000 A 
ATOM      9  C   UNL     1       3.786   4.956  19.474  0.00  0.00    +0.000 A 
ATOM     10  C   UNL     1       4.521   5.154  18.296  0.00  0.00    +0.000 A 
BRANCH   8  11
ATOM     11  O   UNL     1       2.684   3.345  20.963  0.00  0.00    +0.000 OA
BRANCH  11  12
ATOM     12  C   UNL     1       1.266   3.287  20.914  0.00  0.00    +0.000 C 
ATOM     13  F   UNL     1       0.693   2.641  21.950  0.00  0.00    +0.000 F 
ATOM     14  F   UNL     1       0.779   4.546  20.872  0.00  0.00    +0.000 F 
ATOM     15  F   UNL     1       0.897   2.656  19.778  0.00  0.00    +0.000 F 
ENDBRANCH  11  12
ENDBRANCH   8  11
ENDBRANCH   3   5
BRANCH   1  16
ATOM     16  O   UNL     1       7.262   4.987  14.997  0.00  0.00    +0.000 OA
BRANCH  16  19
ATOM     17  C   UNL     1       7.033   4.332  12.859  0.00  0.00    +0.000 C 
ATOM     18 CL   UNL     1       8.089   5.606  12.390  0.00  0.00    +0.000 Cl
ATOM     19  N   UNL     1       6.738   4.049  14.089  0.00  0.00    +0.000 NA
BRANCH  17  21
ATOM     20  C   UNL     1       7.117   2.240  11.479  0.00  0.00    +0.000 C 
ATOM     21  C   UNL     1       6.389   3.557  11.725  0.00  0.00    +0.000 C 
ATOM     22  C   UNL     1       4.923   3.312  12.082  0.00  0.00    +0.000 C 
ENDBRANCH  17  21
ENDBRANCH  16  19
ENDBRANCH   1  16
TORSDOF 6
ENDMDL
