MODEL 1
REMARK VINA RESULT:      -8.3      0.000      0.000
REMARK  Name = 
REMARK  6 active torsions:
REMARK  status: ('A' for Active; 'I' for Inactive)
REMARK    1  A    between atoms: O_1  and  C_2
REMARK    2  A    between atoms: C_4  and  C_5
REMARK    3  A    between atoms: C_12  and  C_13
REMARK    4  A    between atoms: C_13  and  C_14
REMARK    5  A    between atoms: C_14  and  N_15
REMARK    6  A    between atoms: N_18  and  C_19
REMARK                            x       y       z     vdW  Elec       q    Type
REMARK                         _______ _______ _______ _____ _____    ______ ____
ROOT
ATOM      1  C   UNL     1       4.249   3.495  17.501  0.00  0.00    +0.000 C 
ENDROOT
BRANCH   1   5
ATOM      2  C   UNL     1       7.069   5.120  18.929  0.00  0.00    +0.000 A 
ATOM      3  N   UNL     1       7.556   5.252  17.725  0.00  0.00    +0.000 NA
ATOM      4  C   UNL     1       6.572   4.685  16.942  0.00  0.00    +0.000 A 
ATOM      5  C   UNL     1       5.537   4.217  17.739  0.00  0.00    +0.000 A 
ATOM      6  O   UNL     1       5.882   4.485  19.042  0.00  0.00    +0.000 OA
BRANCH   4   7
ATOM      7  C   UNL     1       6.691   4.577  15.499  0.00  0.00    +0.000 A 
ATOM      8  C   UNL     1       7.657   5.345  14.828  0.00  0.00    +0.000 A 
ATOM      9  C   UNL     1       7.802   5.253  13.444  0.00  0.00    +0.000 A 
ATOM     10  C   UNL     1       6.979   4.393  12.726  0.00  0.00    +0.000 A 
ATOM     11  F   UNL     1       7.118   4.297  11.398  0.00  0.00    +0.000 F 
ATOM     12  C   UNL     1       6.005   3.638  13.367  0.00  0.00    +0.000 A 
ATOM     13  C   UNL     1       5.853   3.739  14.751  0.00  0.00    +0.000 A 
ENDBRANCH   4   7
BRANCH   2  14
ATOM     14  O   UNL     1       7.638   5.539  20.031  0.00  0.00    +0.000 OA
ATOM     15  H   UNL     1       7.933   6.423  19.764  0.00  0.00    +0.000 HD
ENDBRANCH   2  14
ENDBRANCH   1   5
BRANCH   1  16
ATOM     16  C   UNL     1       3.416   3.202  18.769  0.00  0.00    +0.000 C 
BRANCH  16  17
ATOM     17  N   UNL     1       2.225   4.048  18.911  0.00  0.00    +0.000 NA
ATOM     18  C   UNL     1       2.069   4.656  20.236  0.00  0.00    +0.000 C 
ATOM     19  C   UNL     1       2.980   5.879  20.447  0.00  0.00    +0.000 C 
ATOM     20  N   UNL     1       2.597   6.943  19.513  0.00  0.00    +0.000 N 
ATOM     21  C   UNL     1       2.644   6.511  18.096  0.00  0.00    +0.000 C 
ATOM     22  C   UNL     1       2.072   5.075  17.857  0.00  0.00    +0.000 C 
BRANCH  20  23
ATOM     23  C   UNL     1       1.661   7.904  19.936  0.00  0.00    +0.000 A 
ATOM     24  C   UNL     1       1.053   7.811  21.210  0.00  0.00    +0.000 A 
ATOM     25  C   UNL     1       0.188   8.784  21.719  0.00  0.00    +0.000 A 
ATOM     26  C   UNL     1      -0.098   9.908  20.965  0.00  0.00    +0.000 A 
ATOM     27  C   UNL     1       0.471  10.045  19.703  0.00  0.00    +0.000 A 
ATOM     28  C   UNL     1       1.340   9.062  19.190  0.00  0.00    +0.000 A 
ATOM     29 CL   UNL     1       2.070   9.425  17.658  0.00  0.00    +0.000 Cl
ENDBRANCH  20  23
ENDBRANCH  16  17
ENDBRANCH   1  16
TORSDOF 6
ENDMDL
MODEL 2
REMARK VINA RESULT:      -8.1      3.074      4.554
REMARK  Name = 
REMARK  6 active torsions:
REMARK  status: ('A' for Active; 'I' for Inactive)
REMARK    1  A    between atoms: O_1  and  C_2
REMARK    2  A    between atoms: C_4  and  C_5
REMARK    3  A    between atoms: C_12  and  C_13
REMARK    4  A    between atoms: C_13  and  C_14
REMARK    5  A    between atoms: C_14  and  N_15
REMARK    6  A    between atoms: N_18  and  C_19
REMARK                            x       y       z     vdW  Elec       q    Type
REMARK                         _______ _______ _______ _____ _____    ______ ____
ROOT
ATOM      1  C   UNL     1       2.598   5.534  20.238  0.00  0.00    +0.000 C 
ENDROOT
BRANCH   1   5
ATOM      2  C   UNL     1       3.136   2.427  18.599  0.00  0.00    +0.000 A 
ATOM      3  N   UNL     1       4.214   2.937  18.066  0.00  0.00    +0.000 NA
ATOM      4  C   UNL     1       4.238   4.208  18.602  0.00  0.00    +0.000 A 
ATOM      5  C   UNL     1       3.139   4.400  19.428  0.00  0.00    +0.000 A 
ATOM      6  O   UNL     1       2.410   3.234  19.401  0.00  0.00    +0.000 OA
BRANCH   4   7
ATOM      7  C   UNL     1       5.266   5.175  18.264  0.00  0.00    +0.000 A 
ATOM      8  C   UNL     1       4.995   6.158  17.298  0.00  0.00    +0.000 A 
ATOM      9  C   UNL     1       5.959   7.109  16.961  0.00  0.00    +0.000 A 
ATOM     10  C   UNL     1       7.199   7.077  17.589  0.00  0.00    +0.000 A 
ATOM     11  F   UNL     1       8.126   7.990  17.273  0.00  0.00    +0.000 F 
ATOM     12  C   UNL     1       7.494   6.103  18.534  0.00  0.00    +0.000 A 
ATOM     13  C   UNL     1       6.532   5.144  18.863  0.00  0.00    +0.000 A 
ENDBRANCH   4   7
BRANCH   2  14
ATOM     14  O   UNL     1       2.698   1.207  18.411  0.00  0.00    +0.000 OA
ATOM     15  H   UNL     1       1.825   1.256  18.832  0.00  0.00    +0.000 HD
ENDBRANCH   2  14
ENDBRANCH   1   5
BRANCH   1  16
ATOM     16  C   UNL     1       1.791   6.584  19.441  0.00  0.00    +0.000 C 
BRANCH  16  17
ATOM     17  N   UNL     1       2.143   7.973  19.754  0.00  0.00    +0.000 NA
ATOM     18  C   UNL     1       2.142   8.874  18.598  0.00  0.00    +0.000 C 
ATOM     19  C   UNL     1       0.728   9.313  18.179  0.00  0.00    +0.000 C 
ATOM     20  N   UNL     1       0.121  10.104  19.253  0.00  0.00    +0.000 N 
ATOM     21  C   UNL     1       0.068   9.378  20.544  0.00  0.00    +0.000 C 
ATOM     22  C   UNL     1       1.367   8.569  20.865  0.00  0.00    +0.000 C 
BRANCH  20  23
ATOM     23  C   UNL     1       0.271  11.502  19.226  0.00  0.00    +0.000 A 
ATOM     24  C   UNL     1       1.385  12.123  19.838  0.00  0.00    +0.000 A 
ATOM     25  C   UNL     1       1.635  13.497  19.762  0.00  0.00    +0.000 A 
ATOM     26  C   UNL     1       0.771  14.311  19.053  0.00  0.00    +0.000 A 
ATOM     27  C   UNL     1      -0.343  13.750  18.435  0.00  0.00    +0.000 A 
ATOM     28  C   UNL     1      -0.594  12.367  18.516  0.00  0.00    +0.000 A 
ATOM     29 CL   UNL     1      -1.949  11.791  17.596  0.00  0.00    +0.000 Cl
ENDBRANCH  20  23
ENDBRANCH  16  17
ENDBRANCH   1  16
TORSDOF 6
ENDMDL
MODEL 3
REMARK VINA RESULT:      -7.9      3.027      4.996
REMARK  Name = 
REMARK  6 active torsions:
REMARK  status: ('A' for Active; 'I' for Inactive)
REMARK    1  A    between atoms: O_1  and  C_2
REMARK    2  A    between atoms: C_4  and  C_5
REMARK    3  A    between atoms: C_12  and  C_13
REMARK    4  A    between atoms: C_13  and  C_14
REMARK    5  A    between atoms: C_14  and  N_15
REMARK    6  A    between atoms: N_18  and  C_19
REMARK                            x       y       z     vdW  Elec       q    Type
REMARK                         _______ _______ _______ _____ _____    ______ ____
ROOT
ATOM      1  C   UNL     1       2.293   6.581  19.820  0.00  0.00    +0.000 C 
ENDROOT
BRANCH   1   5
ATOM      2  C   UNL     1       2.185   3.315  21.216  0.00  0.00    +0.000 A 
ATOM      3  N   UNL     1       3.154   2.978  20.408  0.00  0.00    +0.000 NA
ATOM      4  C   UNL     1       3.405   4.156  19.737  0.00  0.00    +0.000 A 
ATOM      5  C   UNL     1       2.540   5.150  20.174  0.00  0.00    +0.000 A 
ATOM      6  O   UNL     1       1.728   4.582  21.128  0.00  0.00    +0.000 OA
BRANCH   4   7
ATOM      7  C   UNL     1       4.408   4.258  18.692  0.00  0.00    +0.000 A 
ATOM      8  C   UNL     1       5.686   4.746  19.011  0.00  0.00    +0.000 A 
ATOM      9  C   UNL     1       6.673   4.845  18.030  0.00  0.00    +0.000 A 
ATOM     10  C   UNL     1       6.383   4.458  16.726  0.00  0.00    +0.000 A 
ATOM     11  F   UNL     1       7.329   4.546  15.783  0.00  0.00    +0.000 F 
ATOM     12  C   UNL     1       5.121   3.990  16.386  0.00  0.00    +0.000 A 
ATOM     13  C   UNL     1       4.129   3.902  17.366  0.00  0.00    +0.000 A 
ENDBRANCH   4   7
BRANCH   2  14
ATOM     14  O   UNL     1       1.614   2.526  22.092  0.00  0.00    +0.000 OA
ATOM     15  H   UNL     1       0.774   2.988  22.240  0.00  0.00    +0.000 HD
ENDBRANCH   2  14
ENDBRANCH   1   5
BRANCH   1  16
ATOM     16  C   UNL     1       1.286   7.318  20.732  0.00  0.00    +0.000 C 
BRANCH  16  17
ATOM     17  N   UNL     1       1.588   8.740  20.929  0.00  0.00    +0.000 NA
ATOM     18  C   UNL     1       1.157   9.610  19.830  0.00  0.00    +0.000 C 
ATOM     19  C   UNL     1      -0.352   9.912  19.858  0.00  0.00    +0.000 C 
ATOM     20  N   UNL     1      -0.678  10.672  21.068  0.00  0.00    +0.000 N 
ATOM     21  C   UNL     1      -0.275   9.975  22.312  0.00  0.00    +0.000 C 
ATOM     22  C   UNL     1       1.129   9.292  22.224  0.00  0.00    +0.000 C 
BRANCH  20  23
ATOM     23  C   UNL     1      -0.671  12.077  21.002  0.00  0.00    +0.000 A 
ATOM     24  C   UNL     1       0.411  12.822  21.525  0.00  0.00    +0.000 A 
ATOM     25  C   UNL     1       0.516  14.211  21.404  0.00  0.00    +0.000 A 
ATOM     26  C   UNL     1      -0.470  14.916  20.738  0.00  0.00    +0.000 A 
ATOM     27  C   UNL     1      -1.559  14.230  20.208  0.00  0.00    +0.000 A 
ATOM     28  C   UNL     1      -1.664  12.832  20.334  0.00  0.00    +0.000 A 
ATOM     29 CL   UNL     1      -3.010  12.100  19.518  0.00  0.00    +0.000 Cl
ENDBRANCH  20  23
ENDBRANCH  16  17
ENDBRANCH   1  16
TORSDOF 6
ENDMDL
MODEL 4
REMARK VINA RESULT:      -7.8      3.545      5.633
REMARK  Name = 
REMARK  6 active torsions:
REMARK  status: ('A' for Active; 'I' for Inactive)
REMARK    1  A    between atoms: O_1  and  C_2
REMARK    2  A    between atoms: C_4  and  C_5
REMARK    3  A    between atoms: C_12  and  C_13
REMARK    4  A    between atoms: C_13  and  C_14
REMARK    5  A    between atoms: C_14  and  N_15
REMARK    6  A    between atoms: N_18  and  C_19
REMARK                            x       y       z     vdW  Elec       q    Type
REMARK                         _______ _______ _______ _____ _____    ______ ____
ROOT
ATOM      1  C   UNL     1       2.109   7.216  20.043  0.00  0.00    +0.000 C 
ENDROOT
BRANCH   1   5
ATOM      2  C   UNL     1       1.533   3.753  20.596  0.00  0.00    +0.000 A 
ATOM      3  N   UNL     1       2.558   3.498  19.827  0.00  0.00    +0.000 NA
ATOM      4  C   UNL     1       2.996   4.761  19.486  0.00  0.00    +0.000 A 
ATOM      5  C   UNL     1       2.179   5.723  20.065  0.00  0.00    +0.000 A 
ATOM      6  O   UNL     1       1.209   5.052  20.771  0.00  0.00    +0.000 OA
BRANCH   4   7
ATOM      7  C   UNL     1       4.123   4.980  18.599  0.00  0.00    +0.000 A 
ATOM      8  C   UNL     1       5.358   5.376  19.139  0.00  0.00    +0.000 A 
ATOM      9  C   UNL     1       6.462   5.583  18.311  0.00  0.00    +0.000 A 
ATOM     10  C   UNL     1       6.332   5.398  16.939  0.00  0.00    +0.000 A 
ATOM     11  F   UNL     1       7.390   5.591  16.142  0.00  0.00    +0.000 F 
ATOM     12  C   UNL     1       5.116   5.025  16.382  0.00  0.00    +0.000 A 
ATOM     13  C   UNL     1       4.008   4.828  17.210  0.00  0.00    +0.000 A 
ENDBRANCH   4   7
BRANCH   2  14
ATOM     14  O   UNL     1       0.790   2.858  21.197  0.00  0.00    +0.000 OA
ATOM     15  H   UNL     1       0.426   3.379  21.929  0.00  0.00    +0.000 HD
ENDBRANCH   2  14
ENDBRANCH   1   5
BRANCH   1  16
ATOM     16  C   UNL     1       0.972   7.832  20.889  0.00  0.00    +0.000 C 
BRANCH  16  17
ATOM     17  N   UNL     1       1.295   9.144  21.461  0.00  0.00    +0.000 NA
ATOM     18  C   UNL     1       0.895  10.283  20.629  0.00  0.00    +0.000 C 
ATOM     19  C   UNL     1      -0.609  10.597  20.723  0.00  0.00    +0.000 C 
ATOM     20  N   UNL     1      -0.939  11.014  22.090  0.00  0.00    +0.000 N 
ATOM     21  C   UNL     1      -0.565  10.003  23.107  0.00  0.00    +0.000 C 
ATOM     22  C   UNL     1       0.828   9.340  22.852  0.00  0.00    +0.000 C 
BRANCH  20  23
ATOM     23  C   UNL     1      -0.907  12.385  22.400  0.00  0.00    +0.000 A 
ATOM     24  C   UNL     1       0.108  13.222  21.881  0.00  0.00    +0.000 A 
ATOM     25  C   UNL     1       0.138  14.606  22.080  0.00  0.00    +0.000 A 
ATOM     26  C   UNL     1      -0.868  15.214  22.808  0.00  0.00    +0.000 A 
ATOM     27  C   UNL     1      -1.889  14.435  23.343  0.00  0.00    +0.000 A 
ATOM     28  C   UNL     1      -1.915  13.041  23.146  0.00  0.00    +0.000 A 
ATOM     29 CL   UNL     1      -3.310  12.216  23.766  0.00  0.00    +0.000 Cl
ENDBRANCH  20  23
ENDBRANCH  16  17
ENDBRANCH   1  16
TORSDOF 6
ENDMDL
MODEL 5
REMARK VINA RESULT:      -7.8      2.432      4.017
REMARK  Name = 
REMARK  6 active torsions:
REMARK  status: ('A' for Active; 'I' for Inactive)
REMARK    1  A    between atoms: O_1  and  C_2
REMARK    2  A    between atoms: C_4  and  C_5
REMARK    3  A    between atoms: C_12  and  C_13
REMARK    4  A    between atoms: C_13  and  C_14
REMARK    5  A    between atoms: C_14  and  N_15
REMARK    6  A    between atoms: N_18  and  C_19
REMARK                            x       y       z     vdW  Elec       q    Type
REMARK                         _______ _______ _______ _____ _____    ______ ____
ROOT
ATOM      1  C   UNL     1       2.583   5.931  18.736  0.00  0.00    +0.000 C 
ENDROOT
BRANCH   1   5
ATOM      2  C   UNL     1       3.641   3.040  20.509  0.00  0.00    +0.000 A 
ATOM      3  N   UNL     1       4.609   2.908  19.642  0.00  0.00    +0.000 NA
ATOM      4  C   UNL     1       4.416   3.993  18.813  0.00  0.00    +0.000 A 
ATOM      5  C   UNL     1       3.307   4.718  19.225  0.00  0.00    +0.000 A 
ATOM      6  O   UNL     1       2.792   4.072  20.324  0.00  0.00    +0.000 OA
BRANCH   4   7
ATOM      7  C   UNL     1       5.256   4.249  17.657  0.00  0.00    +0.000 A 
ATOM      8  C   UNL     1       4.704   4.152  16.369  0.00  0.00    +0.000 A 
ATOM      9  C   UNL     1       5.484   4.403  15.241  0.00  0.00    +0.000 A 
ATOM     10  C   UNL     1       6.821   4.751  15.398  0.00  0.00    +0.000 A 
ATOM     11  F   UNL     1       7.573   4.999  14.318  0.00  0.00    +0.000 F 
ATOM     12  C   UNL     1       7.392   4.836  16.661  0.00  0.00    +0.000 A 
ATOM     13  C   UNL     1       6.613   4.572  17.790  0.00  0.00    +0.000 A 
ENDBRANCH   4   7
BRANCH   2  14
ATOM     14  O   UNL     1       3.421   2.250  21.530  0.00  0.00    +0.000 OA
ATOM     15  H   UNL     1       2.914   1.538  21.109  0.00  0.00    +0.000 HD
ENDBRANCH   2  14
ENDBRANCH   1   5
BRANCH   1  16
ATOM     16  C   UNL     1       1.667   6.614  19.776  0.00  0.00    +0.000 C 
BRANCH  16  17
ATOM     17  N   UNL     1       2.023   8.008  20.063  0.00  0.00    +0.000 NA
ATOM     18  C   UNL     1       2.057   8.880  18.885  0.00  0.00    +0.000 C 
ATOM     19  C   UNL     1       0.657   9.318  18.420  0.00  0.00    +0.000 C 
ATOM     20  N   UNL     1       0.030  10.141  19.460  0.00  0.00    +0.000 N 
ATOM     21  C   UNL     1      -0.060   9.448  20.766  0.00  0.00    +0.000 C 
ATOM     22  C   UNL     1       1.224   8.637  21.139  0.00  0.00    +0.000 C 
BRANCH  20  23
ATOM     23  C   UNL     1       0.193  11.537  19.401  0.00  0.00    +0.000 A 
ATOM     24  C   UNL     1       1.256  12.172  20.084  0.00  0.00    +0.000 A 
ATOM     25  C   UNL     1       1.521  13.541  19.987  0.00  0.00    +0.000 A 
ATOM     26  C   UNL     1       0.725  14.337  19.183  0.00  0.00    +0.000 A 
ATOM     27  C   UNL     1      -0.337  13.761  18.492  0.00  0.00    +0.000 A 
ATOM     28  C   UNL     1      -0.604  12.382  18.595  0.00  0.00    +0.000 A 
ATOM     29 CL   UNL     1      -1.882  11.784  17.583  0.00  0.00    +0.000 Cl
ENDBRANCH  20  23
ENDBRANCH  16  17
ENDBRANCH   1  16
TORSDOF 6
ENDMDL
MODEL 6
REMARK VINA RESULT:      -7.8      4.052      6.435
REMARK  Name = 
REMARK  6 active torsions:
REMARK  status: ('A' for Active; 'I' for Inactive)
REMARK    1  A    between atoms: O_1  and  C_2
REMARK    2  A    between atoms: C_4  and  C_5
REMARK    3  A    between atoms: C_12  and  C_13
REMARK    4  A    between atoms: C_13  and  C_14
REMARK    5  A    between atoms: C_14  and  N_15
REMARK    6  A    between atoms: N_18  and  C_19
REMARK                            x       y       z     vdW  Elec       q    Type
REMARK                         _______ _______ _______ _____ _____    ______ ____
ROOT
ATOM      1  C   UNL     1       2.052   8.196  19.092  0.00  0.00    +0.000 C 
ENDROOT
BRANCH   1   5
ATOM      2  C   UNL     1       4.267   6.623  16.801  0.00  0.00    +0.000 A 
ATOM      3  N   UNL     1       3.971   5.479  17.358  0.00  0.00    +0.000 NA
ATOM      4  C   UNL     1       3.054   5.845  18.320  0.00  0.00    +0.000 A 
ATOM      5  C   UNL     1       2.861   7.219  18.300  0.00  0.00    +0.000 A 
ATOM      6  O   UNL     1       3.678   7.723  17.315  0.00  0.00    +0.000 OA
BRANCH   4   7
ATOM      7  C   UNL     1       2.455   4.885  19.230  0.00  0.00    +0.000 A 
ATOM      8  C   UNL     1       2.841   4.883  20.580  0.00  0.00    +0.000 A 
ATOM      9  C   UNL     1       2.274   3.980  21.480  0.00  0.00    +0.000 A 
ATOM     10  C   UNL     1       1.320   3.074  21.030  0.00  0.00    +0.000 A 
ATOM     11  F   UNL     1       0.769   2.209  21.890  0.00  0.00    +0.000 F 
ATOM     12  C   UNL     1       0.937   3.047  19.695  0.00  0.00    +0.000 A 
ATOM     13  C   UNL     1       1.513   3.944  18.792  0.00  0.00    +0.000 A 
ENDBRANCH   4   7
BRANCH   2  14
ATOM     14  O   UNL     1       5.091   6.790  15.797  0.00  0.00    +0.000 OA
ATOM     15  H   UNL     1       4.527   6.541  15.049  0.00  0.00    +0.000 HD
ENDBRANCH   2  14
ENDBRANCH   1   5
BRANCH   1  16
ATOM     16  C   UNL     1       1.514   9.404  18.293  0.00  0.00    +0.000 C 
BRANCH  16  17
ATOM     17  N   UNL     1       0.280   9.980  18.838  0.00  0.00    +0.000 NA
ATOM     18  C   UNL     1       0.077   9.734  20.269  0.00  0.00    +0.000 C 
ATOM     19  C   UNL     1       0.920  10.659  21.164  0.00  0.00    +0.000 C 
ATOM     20  N   UNL     1       0.495  12.049  20.972  0.00  0.00    +0.000 N 
ATOM     21  C   UNL     1       0.581  12.489  19.560  0.00  0.00    +0.000 C 
ATOM     22  C   UNL     1       0.086  11.416  18.535  0.00  0.00    +0.000 C 
BRANCH  20  23
ATOM     23  C   UNL     1      -0.494  12.572  21.825  0.00  0.00    +0.000 A 
ATOM     24  C   UNL     1      -1.590  11.778  22.235  0.00  0.00    +0.000 A 
ATOM     25  C   UNL     1      -2.552  12.213  23.153  0.00  0.00    +0.000 A 
ATOM     26  C   UNL     1      -2.446  13.475  23.708  0.00  0.00    +0.000 A 
ATOM     27  C   UNL     1      -1.388  14.298  23.334  0.00  0.00    +0.000 A 
ATOM     28  C   UNL     1      -0.423  13.859  22.407  0.00  0.00    +0.000 A 
ATOM     29 CL   UNL     1       0.905  14.942  22.130  0.00  0.00    +0.000 Cl
ENDBRANCH  20  23
ENDBRANCH  16  17
ENDBRANCH   1  16
TORSDOF 6
ENDMDL
MODEL 7
REMARK VINA RESULT:      -7.8      1.197      1.788
REMARK  Name = 
REMARK  6 active torsions:
REMARK  status: ('A' for Active; 'I' for Inactive)
REMARK    1  A    between atoms: O_1  and  C_2
REMARK    2  A    between atoms: C_4  and  C_5
REMARK    3  A    between atoms: C_12  and  C_13
REMARK    4  A    between atoms: C_13  and  C_14
REMARK    5  A    between atoms: C_14  and  N_15
REMARK    6  A    between atoms: N_18  and  C_19
REMARK                            x       y       z     vdW  Elec       q    Type
REMARK                         _______ _______ _______ _____ _____    ______ ____
ROOT
ATOM      1  C   UNL     1       4.288   3.528  18.261  0.00  0.00    +0.000 C 
ENDROOT
BRANCH   1   5
ATOM      2  C   UNL     1       7.221   5.205  19.364  0.00  0.00    +0.000 A 
ATOM      3  N   UNL     1       7.599   5.285  18.117  0.00  0.00    +0.000 NA
ATOM      4  C   UNL     1       6.551   4.688  17.449  0.00  0.00    +0.000 A 
ATOM      5  C   UNL     1       5.591   4.256  18.353  0.00  0.00    +0.000 A 
ATOM      6  O   UNL     1       6.050   4.578  19.609  0.00  0.00    +0.000 OA
BRANCH   4   7
ATOM      7  C   UNL     1       6.542   4.519  16.007  0.00  0.00    +0.000 A 
ATOM      8  C   UNL     1       5.554   3.716  15.415  0.00  0.00    +0.000 A 
ATOM      9  C   UNL     1       5.513   3.544  14.031  0.00  0.00    +0.000 A 
ATOM     10  C   UNL     1       6.464   4.174  13.235  0.00  0.00    +0.000 A 
ATOM     11  F   UNL     1       6.427   4.016  11.907  0.00  0.00    +0.000 F 
ATOM     12  C   UNL     1       7.461   4.958  13.802  0.00  0.00    +0.000 A 
ATOM     13  C   UNL     1       7.508   5.120  15.189  0.00  0.00    +0.000 A 
ENDBRANCH   4   7
BRANCH   2  14
ATOM     14  O   UNL     1       7.885   5.668  20.394  0.00  0.00    +0.000 OA
ATOM     15  H   UNL     1       8.648   6.076  19.954  0.00  0.00    +0.000 HD
ENDBRANCH   2  14
ENDBRANCH   1   5
BRANCH   1  16
ATOM     16  C   UNL     1       3.268   3.864  19.372  0.00  0.00    +0.000 C 
BRANCH  16  17
ATOM     17  N   UNL     1       2.173   4.737  18.935  0.00  0.00    +0.000 NA
ATOM     18  C   UNL     1       1.501   5.457  20.021  0.00  0.00    +0.000 C 
ATOM     19  C   UNL     1       2.297   6.679  20.515  0.00  0.00    +0.000 C 
ATOM     20  N   UNL     1       2.399   7.666  19.436  0.00  0.00    +0.000 N 
ATOM     21  C   UNL     1       3.019   7.116  18.208  0.00  0.00    +0.000 C 
ATOM     22  C   UNL     1       2.531   5.674  17.847  0.00  0.00    +0.000 C 
BRANCH  20  23
ATOM     23  C   UNL     1       1.421   8.674  19.353  0.00  0.00    +0.000 A 
ATOM     24  C   UNL     1       0.877   9.054  18.104  0.00  0.00    +0.000 A 
ATOM     25  C   UNL     1      -0.161   9.981  17.970  0.00  0.00    +0.000 A 
ATOM     26  C   UNL     1      -0.707  10.565  19.098  0.00  0.00    +0.000 A 
ATOM     27  C   UNL     1      -0.204  10.228  20.351  0.00  0.00    +0.000 A 
ATOM     28  C   UNL     1       0.843   9.296  20.484  0.00  0.00    +0.000 A 
ATOM     29 CL   UNL     1       1.284   8.882  22.110  0.00  0.00    +0.000 Cl
ENDBRANCH  20  23
ENDBRANCH  16  17
ENDBRANCH   1  16
TORSDOF 6
ENDMDL
MODEL 8
REMARK VINA RESULT:      -7.8      3.159      4.628
REMARK  Name = 
REMARK  6 active torsions:
REMARK  status: ('A' for Active; 'I' for Inactive)
REMARK    1  A    between atoms: O_1  and  C_2
REMARK    2  A    between atoms: C_4  and  C_5
REMARK    3  A    between atoms: C_12  and  C_13
REMARK    4  A    between atoms: C_13  and  C_14
REMARK    5  A    between atoms: C_14  and  N_15
REMARK    6  A    between atoms: N_18  and  C_19
REMARK                            x       y       z     vdW  Elec       q    Type
REMARK                         _______ _______ _______ _____ _____    ______ ____
ROOT
ATOM      1  C   UNL     1       2.594   5.443  20.371  0.00  0.00    +0.000 C 
ENDROOT
BRANCH   1   5
ATOM      2  C   UNL     1       2.677   2.783  18.017  0.00  0.00    +0.000 A 
ATOM      3  N   UNL     1       3.788   3.283  17.547  0.00  0.00    +0.000 NA
ATOM      4  C   UNL     1       3.991   4.376  18.363  0.00  0.00    +0.000 A 
ATOM      5  C   UNL     1       2.958   4.485  19.283  0.00  0.00    +0.000 A 
ATOM      6  O   UNL     1       2.089   3.449  19.034  0.00  0.00    +0.000 OA
BRANCH   4   7
ATOM      7  C   UNL     1       5.117   5.277  18.192  0.00  0.00    +0.000 A 
ATOM      8  C   UNL     1       6.265   5.101  18.983  0.00  0.00    +0.000 A 
ATOM      9  C   UNL     1       7.366   5.944  18.834  0.00  0.00    +0.000 A 
ATOM     10  C   UNL     1       7.322   6.967  17.893  0.00  0.00    +0.000 A 
ATOM     11  F   UNL     1       8.378   7.775  17.742  0.00  0.00    +0.000 F 
ATOM     12  C   UNL     1       6.190   7.170  17.113  0.00  0.00    +0.000 A 
ATOM     13  C   UNL     1       5.083   6.333  17.272  0.00  0.00    +0.000 A 
ENDBRANCH   4   7
BRANCH   2  14
ATOM     14  O   UNL     1       2.084   1.701  17.579  0.00  0.00    +0.000 OA
ATOM     15  H   UNL     1       2.612   1.506  16.789  0.00  0.00    +0.000 HD
ENDBRANCH   2  14
ENDBRANCH   1   5
BRANCH   1  16
ATOM     16  C   UNL     1       1.525   6.493  19.992  0.00  0.00    +0.000 C 
BRANCH  16  17
ATOM     17  N   UNL     1       1.940   7.881  20.226  0.00  0.00    +0.000 NA
ATOM     18  C   UNL     1       1.991   8.710  19.018  0.00  0.00    +0.000 C 
ATOM     19  C   UNL     1       0.603   9.187  18.557  0.00  0.00    +0.000 C 
ATOM     20  N   UNL     1       0.023  10.069  19.576  0.00  0.00    +0.000 N 
ATOM     21  C   UNL     1      -0.075   9.425  20.906  0.00  0.00    +0.000 C 
ATOM     22  C   UNL     1       1.182   8.577  21.290  0.00  0.00    +0.000 C 
BRANCH  20  23
ATOM     23  C   UNL     1       0.239  11.454  19.466  0.00  0.00    +0.000 A 
ATOM     24  C   UNL     1       1.337  12.069  20.112  0.00  0.00    +0.000 A 
ATOM     25  C   UNL     1       1.654  13.423  19.963  0.00  0.00    +0.000 A 
ATOM     26  C   UNL     1       0.877  14.222  19.144  0.00  0.00    +0.000 A 
ATOM     27  C   UNL     1      -0.217  13.666  18.489  0.00  0.00    +0.000 A 
ATOM     28  C   UNL     1      -0.537  12.303  18.643  0.00  0.00    +0.000 A 
ATOM     29 CL   UNL     1      -1.853  11.722  17.672  0.00  0.00    +0.000 Cl
ENDBRANCH  20  23
ENDBRANCH  16  17
ENDBRANCH   1  16
TORSDOF 6
ENDMDL
MODEL 9
REMARK VINA RESULT:      -7.8      2.496      4.068
REMARK  Name = 
REMARK  6 active torsions:
REMARK  status: ('A' for Active; 'I' for Inactive)
REMARK    1  A    between atoms: O_1  and  C_2
REMARK    2  A    between atoms: C_4  and  C_5
REMARK    3  A    between atoms: C_12  and  C_13
REMARK    4  A    between atoms: C_13  and  C_14
REMARK    5  A    between atoms: C_14  and  N_15
REMARK    6  A    between atoms: N_18  and  C_19
REMARK                            x       y       z     vdW  Elec       q    Type
REMARK                         _______ _______ _______ _____ _____    ______ ____
ROOT
ATOM      1  C   UNL     1       2.480   6.021  18.067  0.00  0.00    +0.000 C 
ENDROOT
BRANCH   1   5
ATOM      2  C   UNL     1       2.303   2.490  18.424  0.00  0.00    +0.000 A 
ATOM      3  N   UNL     1       3.379   2.399  17.690  0.00  0.00    +0.000 NA
ATOM      4  C   UNL     1       3.675   3.721  17.430  0.00  0.00    +0.000 A 
ATOM      5  C   UNL     1       2.728   4.547  18.018  0.00  0.00    +0.000 A 
ATOM      6  O   UNL     1       1.819   3.730  18.648  0.00  0.00    +0.000 OA
BRANCH   4   7
ATOM      7  C   UNL     1       4.800   4.119  16.604  0.00  0.00    +0.000 A 
ATOM      8  C   UNL     1       6.003   4.505  17.219  0.00  0.00    +0.000 A 
ATOM      9  C   UNL     1       7.104   4.882  16.451  0.00  0.00    +0.000 A 
ATOM     10  C   UNL     1       7.005   4.876  15.064  0.00  0.00    +0.000 A 
ATOM     11  F   UNL     1       8.061   5.232  14.322  0.00  0.00    +0.000 F 
ATOM     12  C   UNL     1       5.820   4.516  14.436  0.00  0.00    +0.000 A 
ATOM     13  C   UNL     1       4.714   4.150  15.206  0.00  0.00    +0.000 A 
ENDBRANCH   4   7
BRANCH   2  14
ATOM     14  O   UNL     1       1.651   1.482  18.948  0.00  0.00    +0.000 OA
ATOM     15  H   UNL     1       1.754   0.813  18.253  0.00  0.00    +0.000 HD
ENDBRANCH   2  14
ENDBRANCH   1   5
BRANCH   1  16
ATOM     16  C   UNL     1       1.868   6.541  19.387  0.00  0.00    +0.000 C 
BRANCH  16  17
ATOM     17  N   UNL     1       2.210   7.933  19.698  0.00  0.00    +0.000 NA
ATOM     18  C   UNL     1       2.174   8.838  18.544  0.00  0.00    +0.000 C 
ATOM     19  C   UNL     1       0.747   9.260  18.155  0.00  0.00    +0.000 C 
ATOM     20  N   UNL     1       0.152  10.041  19.244  0.00  0.00    +0.000 N 
ATOM     21  C   UNL     1       0.134   9.311  20.534  0.00  0.00    +0.000 C 
ATOM     22  C   UNL     1       1.449   8.516  20.825  0.00  0.00    +0.000 C 
BRANCH  20  23
ATOM     23  C   UNL     1       0.285  11.441  19.218  0.00  0.00    +0.000 A 
ATOM     24  C   UNL     1       1.394  12.075  19.824  0.00  0.00    +0.000 A 
ATOM     25  C   UNL     1       1.626  13.452  19.749  0.00  0.00    +0.000 A 
ATOM     26  C   UNL     1       0.748  14.256  19.046  0.00  0.00    +0.000 A 
ATOM     27  C   UNL     1      -0.362  13.682  18.434  0.00  0.00    +0.000 A 
ATOM     28  C   UNL     1      -0.596  12.296  18.514  0.00  0.00    +0.000 A 
ATOM     29 CL   UNL     1      -1.948  11.705  17.602  0.00  0.00    +0.000 Cl
ENDBRANCH  20  23
ENDBRANCH  16  17
ENDBRANCH   1  16
TORSDOF 6
ENDMDL
