MODEL 1
REMARK VINA RESULT:      -7.7      0.000      0.000
REMARK  Name = 
REMARK  4 active torsions:
REMARK  status: ('A' for Active; 'I' for Inactive)
REMARK    1  A    between atoms: C_2  and  C_3
REMARK    2  A    between atoms: C_8  and  C_9
REMARK    3  A    between atoms: N_13  and  C_14
REMARK    4  A    between atoms: N_13  and  C_20
REMARK                            x       y       z     vdW  Elec       q    Type
REMARK                         _______ _______ _______ _____ _____    ______ ____
ROOT
ATOM      1  O   UNL     1       4.969   7.911  17.387  0.00  0.00    +0.000 OA
ATOM      2  C   UNL     1       4.594   6.741  17.336  0.00  0.00    +0.000 C 
ATOM      3  N   UNL     1       3.416   6.228  17.959  0.00  0.00    +0.000 N 
ENDROOT
BRANCH   2   4
ATOM      4  C   UNL     1       5.491   5.858  16.524  0.00  0.00    +0.000 A 
ATOM      5  C   UNL     1       5.057   5.466  15.248  0.00  0.00    +0.000 A 
ATOM      6  C   UNL     1       5.846   4.650  14.438  0.00  0.00    +0.000 A 
ATOM      7  C   UNL     1       7.029   4.126  14.934  0.00  0.00    +0.000 A 
ATOM      8  C   UNL     1       7.423   4.426  16.236  0.00  0.00    +0.000 A 
ATOM      9  C   UNL     1       6.672   5.308  17.046  0.00  0.00    +0.000 A 
BRANCH   9  10
ATOM     10  C   UNL     1       7.201   5.538  18.447  0.00  0.00    +0.000 C 
ATOM     11  F   UNL     1       7.672   6.781  18.721  0.00  0.00    +0.000 F 
ATOM     12  F   UNL     1       6.281   5.238  19.404  0.00  0.00    +0.000 F 
ATOM     13  F   UNL     1       8.259   4.713  18.708  0.00  0.00    +0.000 F 
ENDBRANCH   9  10
ENDBRANCH   2   4
BRANCH   3  14
ATOM     14  C   UNL     1       2.590   7.160  18.685  0.00  0.00    +0.000 A 
ATOM     15  C   UNL     1       2.294   6.987  20.042  0.00  0.00    +0.000 A 
ATOM     16  C   UNL     1       1.515   7.917  20.740  0.00  0.00    +0.000 A 
ATOM     17  C   UNL     1       0.992   9.026  20.081  0.00  0.00    +0.000 A 
ATOM     18  C   UNL     1       1.243   9.200  18.726  0.00  0.00    +0.000 A 
ATOM     19  C   UNL     1       2.034   8.272  18.035  0.00  0.00    +0.000 A 
ENDBRANCH   3  14
BRANCH   3  20
ATOM     20  C   UNL     1       2.970   4.819  17.821  0.00  0.00    +0.000 C 
ATOM     21  C   UNL     1       3.359   3.736  18.835  0.00  0.00    +0.000 C 
ATOM     22  C   UNL     1       2.388   2.624  18.471  0.00  0.00    +0.000 C 
ATOM     23  N   UNL     1       1.116   3.315  18.219  0.00  0.00    +0.000 NA
ATOM     24  C   UNL     1       1.464   4.619  17.619  0.00  0.00    +0.000 C 
ATOM     25  H   UNL     1       0.657   3.487  19.114  0.00  0.00    +0.000 HD
ENDBRANCH   3  20
TORSDOF 4
ENDMDL
MODEL 2
REMARK VINA RESULT:      -7.6      0.100      1.238
REMARK  Name = 
REMARK  4 active torsions:
REMARK  status: ('A' for Active; 'I' for Inactive)
REMARK    1  A    between atoms: C_2  and  C_3
REMARK    2  A    between atoms: C_8  and  C_9
REMARK    3  A    between atoms: N_13  and  C_14
REMARK    4  A    between atoms: N_13  and  C_20
REMARK                            x       y       z     vdW  Elec       q    Type
REMARK                         _______ _______ _______ _____ _____    ______ ____
ROOT
ATOM      1  O   UNL     1       5.004   7.922  17.435  0.00  0.00    +0.000 OA
ATOM      2  C   UNL     1       4.617   6.759  17.341  0.00  0.00    +0.000 C 
ATOM      3  N   UNL     1       3.427   6.238  17.934  0.00  0.00    +0.000 N 
ENDROOT
BRANCH   2   4
ATOM      4  C   UNL     1       5.513   5.894  16.509  0.00  0.00    +0.000 A 
ATOM      5  C   UNL     1       5.078   5.531  15.224  0.00  0.00    +0.000 A 
ATOM      6  C   UNL     1       5.867   4.733  14.395  0.00  0.00    +0.000 A 
ATOM      7  C   UNL     1       7.051   4.198  14.879  0.00  0.00    +0.000 A 
ATOM      8  C   UNL     1       7.445   4.469  16.187  0.00  0.00    +0.000 A 
ATOM      9  C   UNL     1       6.695   5.333  17.018  0.00  0.00    +0.000 A 
BRANCH   9  10
ATOM     10  C   UNL     1       7.225   5.532  18.423  0.00  0.00    +0.000 C 
ATOM     11  F   UNL     1       6.329   5.401  19.433  0.00  0.00    +0.000 F 
ATOM     12  F   UNL     1       8.271   4.708  18.703  0.00  0.00    +0.000 F 
ATOM     13  F   UNL     1       7.724   6.795  18.578  0.00  0.00    +0.000 F 
ENDBRANCH   9  10
ENDBRANCH   2   4
BRANCH   3  14
ATOM     14  C   UNL     1       2.603   7.154  18.682  0.00  0.00    +0.000 A 
ATOM     15  C   UNL     1       2.063   8.308  18.101  0.00  0.00    +0.000 A 
ATOM     16  C   UNL     1       1.240   9.172  18.832  0.00  0.00    +0.000 A 
ATOM     17  C   UNL     1       0.967   8.911  20.172  0.00  0.00    +0.000 A 
ATOM     18  C   UNL     1       1.521   7.792  20.780  0.00  0.00    +0.000 A 
ATOM     19  C   UNL     1       2.334   6.922  20.039  0.00  0.00    +0.000 A 
ENDBRANCH   3  14
BRANCH   3  20
ATOM     20  C   UNL     1       2.967   4.839  17.743  0.00  0.00    +0.000 C 
ATOM     21  C   UNL     1       3.433   3.695  18.653  0.00  0.00    +0.000 C 
ATOM     22  C   UNL     1       2.433   2.607  18.297  0.00  0.00    +0.000 C 
ATOM     23  N   UNL     1       1.147   3.309  18.190  0.00  0.00    +0.000 NA
ATOM     24  C   UNL     1       1.449   4.649  17.648  0.00  0.00    +0.000 C 
ATOM     25  H   UNL     1       0.759   3.424  19.127  0.00  0.00    +0.000 HD
ENDBRANCH   3  20
TORSDOF 4
ENDMDL
MODEL 3
REMARK VINA RESULT:      -7.2      2.322      4.269
REMARK  Name = 
REMARK  4 active torsions:
REMARK  status: ('A' for Active; 'I' for Inactive)
REMARK    1  A    between atoms: C_2  and  C_3
REMARK    2  A    between atoms: C_8  and  C_9
REMARK    3  A    between atoms: N_13  and  C_14
REMARK    4  A    between atoms: N_13  and  C_20
REMARK                            x       y       z     vdW  Elec       q    Type
REMARK                         _______ _______ _______ _____ _____    ______ ____
ROOT
ATOM      1  O   UNL     1       5.251   3.353  18.674  0.00  0.00    +0.000 OA
ATOM      2  C   UNL     1       4.940   4.542  18.649  0.00  0.00    +0.000 C 
ATOM      3  N   UNL     1       3.634   5.056  18.917  0.00  0.00    +0.000 N 
ENDROOT
BRANCH   2   4
ATOM      4  C   UNL     1       6.081   5.454  18.322  0.00  0.00    +0.000 A 
ATOM      5  C   UNL     1       6.917   5.873  19.370  0.00  0.00    +0.000 A 
ATOM      6  C   UNL     1       8.002   6.718  19.132  0.00  0.00    +0.000 A 
ATOM      7  C   UNL     1       8.201   7.242  17.865  0.00  0.00    +0.000 A 
ATOM      8  C   UNL     1       7.319   6.914  16.838  0.00  0.00    +0.000 A 
ATOM      9  C   UNL     1       6.257   6.004  17.043  0.00  0.00    +0.000 A 
BRANCH   9  10
ATOM     10  C   UNL     1       5.362   5.745  15.848  0.00  0.00    +0.000 C 
ATOM     11  F   UNL     1       4.362   4.845  16.023  0.00  0.00    +0.000 F 
ATOM     12  F   UNL     1       4.797   6.886  15.367  0.00  0.00    +0.000 F 
ATOM     13  F   UNL     1       6.085   5.245  14.801  0.00  0.00    +0.000 F 
ENDBRANCH   9  10
ENDBRANCH   2   4
BRANCH   3  14
ATOM     14  C   UNL     1       2.607   4.107  19.266  0.00  0.00    +0.000 A 
ATOM     15  C   UNL     1       2.418   3.671  20.584  0.00  0.00    +0.000 A 
ATOM     16  C   UNL     1       1.397   2.771  20.911  0.00  0.00    +0.000 A 
ATOM     17  C   UNL     1       0.563   2.267  19.917  0.00  0.00    +0.000 A 
ATOM     18  C   UNL     1       0.754   2.658  18.598  0.00  0.00    +0.000 A 
ATOM     19  C   UNL     1       1.770   3.569  18.277  0.00  0.00    +0.000 A 
ENDBRANCH   3  14
BRANCH   3  20
ATOM     20  C   UNL     1       3.318   6.506  18.936  0.00  0.00    +0.000 C 
ATOM     21  C   UNL     1       2.725   7.228  17.719  0.00  0.00    +0.000 C 
ATOM     22  C   UNL     1       2.256   8.531  18.346  0.00  0.00    +0.000 C 
ATOM     23  N   UNL     1       1.664   8.130  19.629  0.00  0.00    +0.000 NA
ATOM     24  C   UNL     1       2.455   6.980  20.110  0.00  0.00    +0.000 C 
ATOM     25  H   UNL     1       0.709   7.813  19.462  0.00  0.00    +0.000 HD
ENDBRANCH   3  20
TORSDOF 4
ENDMDL
MODEL 4
REMARK VINA RESULT:      -7.1      0.789      1.277
REMARK  Name = 
REMARK  4 active torsions:
REMARK  status: ('A' for Active; 'I' for Inactive)
REMARK    1  A    between atoms: C_2  and  C_3
REMARK    2  A    between atoms: C_8  and  C_9
REMARK    3  A    between atoms: N_13  and  C_14
REMARK    4  A    between atoms: N_13  and  C_20
REMARK                            x       y       z     vdW  Elec       q    Type
REMARK                         _______ _______ _______ _____ _____    ______ ____
ROOT
ATOM      1  O   UNL     1       4.714   7.848  17.347  0.00  0.00    +0.000 OA
ATOM      2  C   UNL     1       4.446   6.658  17.510  0.00  0.00    +0.000 C 
ATOM      3  N   UNL     1       3.382   6.159  18.321  0.00  0.00    +0.000 N 
ENDROOT
BRANCH   2   4
ATOM      4  C   UNL     1       5.344   5.732  16.749  0.00  0.00    +0.000 A 
ATOM      5  C   UNL     1       4.847   5.143  15.575  0.00  0.00    +0.000 A 
ATOM      6  C   UNL     1       5.632   4.276  14.816  0.00  0.00    +0.000 A 
ATOM      7  C   UNL     1       6.885   3.901  15.277  0.00  0.00    +0.000 A 
ATOM      8  C   UNL     1       7.350   4.401  16.491  0.00  0.00    +0.000 A 
ATOM      9  C   UNL     1       6.598   5.335  17.238  0.00  0.00    +0.000 A 
BRANCH   9  10
ATOM     10  C   UNL     1       7.210   5.788  18.548  0.00  0.00    +0.000 C 
ATOM     11  F   UNL     1       6.403   5.756  19.638  0.00  0.00    +0.000 F 
ATOM     12  F   UNL     1       8.337   5.092  18.861  0.00  0.00    +0.000 F 
ATOM     13  F   UNL     1       7.616   7.091  18.469  0.00  0.00    +0.000 F 
ENDBRANCH   9  10
ENDBRANCH   2   4
BRANCH   3  14
ATOM     14  C   UNL     1       2.543   7.126  18.983  0.00  0.00    +0.000 A 
ATOM     15  C   UNL     1       2.137   6.968  20.313  0.00  0.00    +0.000 A 
ATOM     16  C   UNL     1       1.346   7.930  20.951  0.00  0.00    +0.000 A 
ATOM     17  C   UNL     1       0.921   9.059  20.255  0.00  0.00    +0.000 A 
ATOM     18  C   UNL     1       1.282   9.220  18.924  0.00  0.00    +0.000 A 
ATOM     19  C   UNL     1       2.084   8.259  18.293  0.00  0.00    +0.000 A 
ENDBRANCH   3  14
BRANCH   3  20
ATOM     20  C   UNL     1       3.058   4.715  18.441  0.00  0.00    +0.000 C 
ATOM     21  C   UNL     1       2.495   3.905  17.266  0.00  0.00    +0.000 C 
ATOM     22  C   UNL     1       2.690   2.482  17.766  0.00  0.00    +0.000 C 
ATOM     23  N   UNL     1       4.015   2.494  18.400  0.00  0.00    +0.000 NA
ATOM     24  C   UNL     1       4.175   3.831  19.006  0.00  0.00    +0.000 C 
ATOM     25  H   UNL     1       4.725   2.386  17.674  0.00  0.00    +0.000 HD
ENDBRANCH   3  20
TORSDOF 4
ENDMDL
MODEL 5
REMARK VINA RESULT:      -7.0      2.464      4.265
REMARK  Name = 
REMARK  4 active torsions:
REMARK  status: ('A' for Active; 'I' for Inactive)
REMARK    1  A    between atoms: C_2  and  C_3
REMARK    2  A    between atoms: C_8  and  C_9
REMARK    3  A    between atoms: N_13  and  C_14
REMARK    4  A    between atoms: N_13  and  C_20
REMARK                            x       y       z     vdW  Elec       q    Type
REMARK                         _______ _______ _______ _____ _____    ______ ____
ROOT
ATOM      1  O   UNL     1       5.224   3.283  19.060  0.00  0.00    +0.000 OA
ATOM      2  C   UNL     1       4.919   4.459  18.865  0.00  0.00    +0.000 C 
ATOM      3  N   UNL     1       3.661   5.047  19.197  0.00  0.00    +0.000 N 
ENDROOT
BRANCH   2   4
ATOM      4  C   UNL     1       6.016   5.267  18.244  0.00  0.00    +0.000 A 
ATOM      5  C   UNL     1       6.812   6.061  19.085  0.00  0.00    +0.000 A 
ATOM      6  C   UNL     1       7.854   6.834  18.572  0.00  0.00    +0.000 A 
ATOM      7  C   UNL     1       8.045   6.908  17.200  0.00  0.00    +0.000 A 
ATOM      8  C   UNL     1       7.197   6.203  16.348  0.00  0.00    +0.000 A 
ATOM      9  C   UNL     1       6.181   5.360  16.853  0.00  0.00    +0.000 A 
BRANCH   9  10
ATOM     10  C   UNL     1       5.320   4.663  15.820  0.00  0.00    +0.000 C 
ATOM     11  F   UNL     1       4.094   4.251  16.231  0.00  0.00    +0.000 F 
ATOM     12  F   UNL     1       5.137   5.418  14.703  0.00  0.00    +0.000 F 
ATOM     13  F   UNL     1       5.926   3.522  15.374  0.00  0.00    +0.000 F 
ENDBRANCH   9  10
ENDBRANCH   2   4
BRANCH   3  14
ATOM     14  C   UNL     1       2.681   4.203  19.832  0.00  0.00    +0.000 A 
ATOM     15  C   UNL     1       1.594   3.671  19.127  0.00  0.00    +0.000 A 
ATOM     16  C   UNL     1       0.667   2.828  19.751  0.00  0.00    +0.000 A 
ATOM     17  C   UNL     1       0.795   2.526  21.104  0.00  0.00    +0.000 A 
ATOM     18  C   UNL     1       1.845   3.071  21.832  0.00  0.00    +0.000 A 
ATOM     19  C   UNL     1       2.778   3.904  21.200  0.00  0.00    +0.000 A 
ENDBRANCH   3  14
BRANCH   3  20
ATOM     20  C   UNL     1       3.358   6.487  18.999  0.00  0.00    +0.000 C 
ATOM     21  C   UNL     1       2.957   7.056  17.632  0.00  0.00    +0.000 C 
ATOM     22  C   UNL     1       2.412   8.420  18.025  0.00  0.00    +0.000 C 
ATOM     23  N   UNL     1       1.635   8.167  19.246  0.00  0.00    +0.000 NA
ATOM     24  C   UNL     1       2.337   7.089  19.970  0.00  0.00    +0.000 C 
ATOM     25  H   UNL     1       0.712   7.824  18.979  0.00  0.00    +0.000 HD
ENDBRANCH   3  20
TORSDOF 4
ENDMDL
MODEL 6
REMARK VINA RESULT:      -6.8      1.926      3.579
REMARK  Name = 
REMARK  4 active torsions:
REMARK  status: ('A' for Active; 'I' for Inactive)
REMARK    1  A    between atoms: C_2  and  C_3
REMARK    2  A    between atoms: C_8  and  C_9
REMARK    3  A    between atoms: N_13  and  C_14
REMARK    4  A    between atoms: N_13  and  C_20
REMARK                            x       y       z     vdW  Elec       q    Type
REMARK                         _______ _______ _______ _____ _____    ______ ____
ROOT
ATOM      1  O   UNL     1       4.319   2.387  17.563  0.00  0.00    +0.000 OA
ATOM      2  C   UNL     1       4.333   3.616  17.511  0.00  0.00    +0.000 C 
ATOM      3  N   UNL     1       3.585   4.483  18.366  0.00  0.00    +0.000 N 
ENDROOT
BRANCH   2   4
ATOM      4  C   UNL     1       5.243   4.162  16.455  0.00  0.00    +0.000 A 
ATOM      5  C   UNL     1       4.870   4.001  15.111  0.00  0.00    +0.000 A 
ATOM      6  C   UNL     1       5.670   4.491  14.078  0.00  0.00    +0.000 A 
ATOM      7  C   UNL     1       6.904   5.051  14.370  0.00  0.00    +0.000 A 
ATOM      8  C   UNL     1       7.330   5.126  15.694  0.00  0.00    +0.000 A 
ATOM      9  C   UNL     1       6.504   4.699  16.759  0.00  0.00    +0.000 A 
BRANCH   9  10
ATOM     10  C   UNL     1       7.093   4.820  18.149  0.00  0.00    +0.000 C 
ATOM     11  F   UNL     1       6.396   4.235  19.156  0.00  0.00    +0.000 F 
ATOM     12  F   UNL     1       8.367   4.348  18.215  0.00  0.00    +0.000 F 
ATOM     13  F   UNL     1       7.186   6.132  18.523  0.00  0.00    +0.000 F 
ENDBRANCH   9  10
ENDBRANCH   2   4
BRANCH   3  14
ATOM     14  C   UNL     1       2.769   3.869  19.383  0.00  0.00    +0.000 A 
ATOM     15  C   UNL     1       3.288   3.508  20.632  0.00  0.00    +0.000 A 
ATOM     16  C   UNL     1       2.476   2.940  21.619  0.00  0.00    +0.000 A 
ATOM     17  C   UNL     1       1.129   2.695  21.363  0.00  0.00    +0.000 A 
ATOM     18  C   UNL     1       0.600   3.012  20.118  0.00  0.00    +0.000 A 
ATOM     19  C   UNL     1       1.415   3.593  19.137  0.00  0.00    +0.000 A 
ENDBRANCH   3  14
BRANCH   3  20
ATOM     20  C   UNL     1       3.679   5.963  18.308  0.00  0.00    +0.000 C 
ATOM     21  C   UNL     1       3.543   6.739  16.991  0.00  0.00    +0.000 C 
ATOM     22  C   UNL     1       3.340   8.157  17.501  0.00  0.00    +0.000 C 
ATOM     23  N   UNL     1       2.434   8.009  18.648  0.00  0.00    +0.000 NA
ATOM     24  C   UNL     1       2.777   6.723  19.286  0.00  0.00    +0.000 C 
ATOM     25  H   UNL     1       1.476   7.948  18.299  0.00  0.00    +0.000 HD
ENDBRANCH   3  20
TORSDOF 4
ENDMDL
MODEL 7
REMARK VINA RESULT:      -6.7      2.955      5.475
REMARK  Name = 
REMARK  4 active torsions:
REMARK  status: ('A' for Active; 'I' for Inactive)
REMARK    1  A    between atoms: C_2  and  C_3
REMARK    2  A    between atoms: C_8  and  C_9
REMARK    3  A    between atoms: N_13  and  C_14
REMARK    4  A    between atoms: N_13  and  C_20
REMARK                            x       y       z     vdW  Elec       q    Type
REMARK                         _______ _______ _______ _____ _____    ______ ____
ROOT
ATOM      1  O   UNL     1       4.907   5.410  19.904  0.00  0.00    +0.000 OA
ATOM      2  C   UNL     1       4.937   4.856  18.806  0.00  0.00    +0.000 C 
ATOM      3  N   UNL     1       5.794   5.224  17.724  0.00  0.00    +0.000 N 
ENDROOT
BRANCH   2   4
ATOM      4  C   UNL     1       3.983   3.709  18.686  0.00  0.00    +0.000 A 
ATOM      5  C   UNL     1       4.491   2.407  18.819  0.00  0.00    +0.000 A 
ATOM      6  C   UNL     1       3.655   1.294  18.723  0.00  0.00    +0.000 A 
ATOM      7  C   UNL     1       2.321   1.463  18.386  0.00  0.00    +0.000 A 
ATOM      8  C   UNL     1       1.827   2.744  18.153  0.00  0.00    +0.000 A 
ATOM      9  C   UNL     1       2.641   3.888  18.314  0.00  0.00    +0.000 A 
BRANCH   9  10
ATOM     10  C   UNL     1       1.985   5.220  18.014  0.00  0.00    +0.000 C 
ATOM     11  F   UNL     1       2.761   6.157  17.413  0.00  0.00    +0.000 F 
ATOM     12  F   UNL     1       0.861   5.086  17.259  0.00  0.00    +0.000 F 
ATOM     13  F   UNL     1       1.563   5.822  19.166  0.00  0.00    +0.000 F 
ENDBRANCH   9  10
ENDBRANCH   2   4
BRANCH   3  14
ATOM     14  C   UNL     1       6.711   6.314  17.945  0.00  0.00    +0.000 A 
ATOM     15  C   UNL     1       6.626   7.511  17.224  0.00  0.00    +0.000 A 
ATOM     16  C   UNL     1       7.506   8.571  17.471  0.00  0.00    +0.000 A 
ATOM     17  C   UNL     1       8.509   8.440  18.428  0.00  0.00    +0.000 A 
ATOM     18  C   UNL     1       8.635   7.248  19.130  0.00  0.00    +0.000 A 
ATOM     19  C   UNL     1       7.744   6.194  18.888  0.00  0.00    +0.000 A 
ENDBRANCH   3  14
BRANCH   3  20
ATOM     20  C   UNL     1       5.839   4.489  16.435  0.00  0.00    +0.000 C 
ATOM     21  C   UNL     1       4.890   4.814  15.275  0.00  0.00    +0.000 C 
ATOM     22  C   UNL     1       5.564   4.085  14.124  0.00  0.00    +0.000 C 
ATOM     23  N   UNL     1       6.998   4.341  14.316  0.00  0.00    +0.000 NA
ATOM     24  C   UNL     1       7.219   4.395  15.775  0.00  0.00    +0.000 C 
ATOM     25  H   UNL     1       7.219   5.258  13.926  0.00  0.00    +0.000 HD
ENDBRANCH   3  20
TORSDOF 4
ENDMDL
MODEL 8
REMARK VINA RESULT:      -6.7      1.903      3.588
REMARK  Name = 
REMARK  4 active torsions:
REMARK  status: ('A' for Active; 'I' for Inactive)
REMARK    1  A    between atoms: C_2  and  C_3
REMARK    2  A    between atoms: C_8  and  C_9
REMARK    3  A    between atoms: N_13  and  C_14
REMARK    4  A    between atoms: N_13  and  C_20
REMARK                            x       y       z     vdW  Elec       q    Type
REMARK                         _______ _______ _______ _____ _____    ______ ____
ROOT
ATOM      1  O   UNL     1       4.684   2.529  17.804  0.00  0.00    +0.000 OA
ATOM      2  C   UNL     1       4.432   3.670  17.421  0.00  0.00    +0.000 C 
ATOM      3  N   UNL     1       3.430   4.522  17.977  0.00  0.00    +0.000 N 
ENDROOT
BRANCH   2   4
ATOM      4  C   UNL     1       5.303   4.129  16.292  0.00  0.00    +0.000 A 
ATOM      5  C   UNL     1       4.866   3.891  14.979  0.00  0.00    +0.000 A 
ATOM      6  C   UNL     1       5.626   4.298  13.882  0.00  0.00    +0.000 A 
ATOM      7  C   UNL     1       6.882   4.850  14.083  0.00  0.00    +0.000 A 
ATOM      8  C   UNL     1       7.370   5.000  15.379  0.00  0.00    +0.000 A 
ATOM      9  C   UNL     1       6.585   4.659  16.504  0.00  0.00    +0.000 A 
BRANCH   9  10
ATOM     10  C   UNL     1       7.239   4.856  17.856  0.00  0.00    +0.000 C 
ATOM     11  F   UNL     1       6.446   4.690  18.944  0.00  0.00    +0.000 F 
ATOM     12  F   UNL     1       8.327   4.056  18.027  0.00  0.00    +0.000 F 
ATOM     13  F   UNL     1       7.720   6.129  17.981  0.00  0.00    +0.000 F 
ENDBRANCH   9  10
ENDBRANCH   2   4
BRANCH   3  14
ATOM     14  C   UNL     1       2.670   4.011  19.090  0.00  0.00    +0.000 A 
ATOM     15  C   UNL     1       1.519   3.233  18.907  0.00  0.00    +0.000 A 
ATOM     16  C   UNL     1       0.809   2.720  19.998  0.00  0.00    +0.000 A 
ATOM     17  C   UNL     1       1.221   3.002  21.297  0.00  0.00    +0.000 A 
ATOM     18  C   UNL     1       2.339   3.800  21.504  0.00  0.00    +0.000 A 
ATOM     19  C   UNL     1       3.055   4.302  20.408  0.00  0.00    +0.000 A 
ENDBRANCH   3  14
BRANCH   3  20
ATOM     20  C   UNL     1       3.202   5.916  17.522  0.00  0.00    +0.000 C 
ATOM     21  C   UNL     1       1.937   6.700  17.895  0.00  0.00    +0.000 C 
ATOM     22  C   UNL     1       2.346   8.117  17.528  0.00  0.00    +0.000 C 
ATOM     23  N   UNL     1       3.737   8.229  17.986  0.00  0.00    +0.000 NA
ATOM     24  C   UNL     1       4.346   6.897  17.797  0.00  0.00    +0.000 C 
ATOM     25  H   UNL     1       3.734   8.439  18.985  0.00  0.00    +0.000 HD
ENDBRANCH   3  20
TORSDOF 4
ENDMDL
MODEL 9
REMARK VINA RESULT:      -6.7      2.759      5.203
REMARK  Name = 
REMARK  4 active torsions:
REMARK  status: ('A' for Active; 'I' for Inactive)
REMARK    1  A    between atoms: C_2  and  C_3
REMARK    2  A    between atoms: C_8  and  C_9
REMARK    3  A    between atoms: N_13  and  C_14
REMARK    4  A    between atoms: N_13  and  C_20
REMARK                            x       y       z     vdW  Elec       q    Type
REMARK                         _______ _______ _______ _____ _____    ______ ____
ROOT
ATOM      1  O   UNL     1       4.286   5.693  19.771  0.00  0.00    +0.000 OA
ATOM      2  C   UNL     1       4.222   5.146  18.671  0.00  0.00    +0.000 C 
ATOM      3  N   UNL     1       5.141   5.350  17.597  0.00  0.00    +0.000 N 
ENDROOT
BRANCH   2   4
ATOM      4  C   UNL     1       3.073   4.194  18.540  0.00  0.00    +0.000 A 
ATOM      5  C   UNL     1       1.870   4.678  18.000  0.00  0.00    +0.000 A 
ATOM      6  C   UNL     1       0.763   3.843  17.845  0.00  0.00    +0.000 A 
ATOM      7  C   UNL     1       0.809   2.544  18.327  0.00  0.00    +0.000 A 
ATOM      8  C   UNL     1       1.963   2.083  18.956  0.00  0.00    +0.000 A 
ATOM      9  C   UNL     1       3.118   2.891  19.058  0.00  0.00    +0.000 A 
BRANCH   9  10
ATOM     10  C   UNL     1       4.300   2.275  19.779  0.00  0.00    +0.000 C 
ATOM     11  F   UNL     1       5.494   2.902  19.631  0.00  0.00    +0.000 F 
ATOM     12  F   UNL     1       4.079   2.140  21.114  0.00  0.00    +0.000 F 
ATOM     13  F   UNL     1       4.530   1.004  19.332  0.00  0.00    +0.000 F 
ENDBRANCH   9  10
ENDBRANCH   2   4
BRANCH   3  14
ATOM     14  C   UNL     1       6.242   6.252  17.829  0.00  0.00    +0.000 A 
ATOM     15  C   UNL     1       6.327   7.496  17.192  0.00  0.00    +0.000 A 
ATOM     16  C   UNL     1       7.387   8.372  17.450  0.00  0.00    +0.000 A 
ATOM     17  C   UNL     1       8.400   8.005  18.332  0.00  0.00    +0.000 A 
ATOM     18  C   UNL     1       8.355   6.761  18.948  0.00  0.00    +0.000 A 
ATOM     19  C   UNL     1       7.285   5.892  18.696  0.00  0.00    +0.000 A 
ENDBRANCH   3  14
BRANCH   3  20
ATOM     20  C   UNL     1       5.060   4.622  16.306  0.00  0.00    +0.000 C 
ATOM     21  C   UNL     1       5.207   5.335  14.956  0.00  0.00    +0.000 C 
ATOM     22  C   UNL     1       5.421   4.157  14.019  0.00  0.00    +0.000 C 
ATOM     23  N   UNL     1       6.323   3.260  14.755  0.00  0.00    +0.000 NA
ATOM     24  C   UNL     1       5.967   3.393  16.182  0.00  0.00    +0.000 C 
ATOM     25  H   UNL     1       7.281   3.591  14.633  0.00  0.00    +0.000 HD
ENDBRANCH   3  20
TORSDOF 4
ENDMDL
