MODEL 1
REMARK VINA RESULT:      -8.2      0.000      0.000
REMARK  Name = 
REMARK  12 active torsions:
REMARK  status: ('A' for Active; 'I' for Inactive)
REMARK    1  A    between atoms: C_1  and  C_2
REMARK    2  A    between atoms: C_7  and  C_9
REMARK    3  A    between atoms: C_9  and  C_10
REMARK    4  A    between atoms: C_9  and  N_17
REMARK    5  A    between atoms: C_10  and  C_11
REMARK    6  A    between atoms: C_11  and  C_12
REMARK    7  A    between atoms: C_12  and  N_13
REMARK    8  A    between atoms: N_17  and  S_18
REMARK    9  A    between atoms: S_18  and  C_21
REMARK   10  A    between atoms: C_26  and  N_27
REMARK   11  A    between atoms: N_27  and  C_28
REMARK   12  A    between atoms: N_27  and  C_29
REMARK                            x       y       z     vdW  Elec       q    Type
REMARK                         _______ _______ _______ _____ _____    ______ ____
ROOT
ATOM      1  C   UNL     1       2.715   5.866  18.420  0.00  0.00    +0.000 C 
ENDROOT
BRANCH   1   8
ATOM      2  C   UNL     1       5.477   6.339  15.079  0.00  0.00    +0.000 C 
ATOM      3  C   UNL     1       5.477   4.825  15.273  0.00  0.00    +0.000 C 
ATOM      4  C   UNL     1       6.867   4.247  15.577  0.00  0.00    +0.000 C 
ATOM      5  C   UNL     1       7.358   4.626  16.973  0.00  0.00    +0.000 C 
ATOM      6  C   UNL     1       6.313   4.320  18.051  0.00  0.00    +0.000 C 
ATOM      7  N   UNL     1       4.985   4.851  17.710  0.00  0.00    +0.000 N 
ATOM      8  C   UNL     1       4.199   5.429  18.717  0.00  0.00    +0.000 C 
ATOM      9  O   UNL     1       4.675   5.626  19.843  0.00  0.00    +0.000 OA
ATOM     10  C   UNL     1       4.504   4.448  16.383  0.00  0.00    +0.000 C 
ENDBRANCH   1   8
BRANCH   1  11
ATOM     11  N   UNL     1       2.507   7.137  19.183  0.00  0.00    +0.000 NA
ATOM     12  H   UNL     1       3.110   7.263  19.998  0.00  0.00    +0.000 HD
BRANCH  11  13
ATOM     13  S   UNL     1       1.790   8.525  18.575  0.00  0.00    +0.000 S 
ATOM     14  O   UNL     1       2.791   9.503  18.209  0.00  0.00    +0.000 OA
ATOM     15  O   UNL     1       0.807   8.119  17.594  0.00  0.00    +0.000 OA
BRANCH  13  16
ATOM     16  C   UNL     1       0.924   9.172  19.996  0.00  0.00    +0.000 A 
ATOM     17  C   UNL     1       1.265   8.614  21.236  0.00  0.00    +0.000 A 
ATOM     18  C   UNL     1       0.636   9.073  22.376  0.00  0.00    +0.000 A 
ATOM     19  C   UNL     1      -0.275  10.121  22.277  0.00  0.00    +0.000 A 
ATOM     20  C   UNL     1      -0.569  10.805  21.062  0.00  0.00    +0.000 A 
ATOM     21  C   UNL     1      -1.426  11.975  20.984  0.00  0.00    +0.000 A 
ATOM     22  C   UNL     1      -1.694  12.496  19.704  0.00  0.00    +0.000 A 
ATOM     23  C   UNL     1      -1.192  11.928  18.548  0.00  0.00    +0.000 A 
ATOM     24  C   UNL     1      -0.352  10.832  18.641  0.00  0.00    +0.000 A 
ATOM     25  C   UNL     1       0.012  10.270  19.881  0.00  0.00    +0.000 A 
BRANCH  21  26
ATOM     26  N   UNL     1      -1.992  12.619  22.090  0.00  0.00    +0.000 N 
ATOM     27  C   UNL     1      -3.436  12.652  22.299  0.00  0.00    +0.000 C 
ATOM     28  C   UNL     1      -1.224  13.459  23.002  0.00  0.00    +0.000 C 
ENDBRANCH  21  26
ENDBRANCH  13  16
ENDBRANCH  11  13
ENDBRANCH   1  11
BRANCH   1  29
ATOM     29  C   UNL     1       1.690   4.842  18.939  0.00  0.00    +0.000 C 
BRANCH  29  30
ATOM     30  C   UNL     1       1.526   3.522  18.212  0.00  0.00    +0.000 C 
BRANCH  30  31
ATOM     31  C   UNL     1       1.608   2.301  19.109  0.00  0.00    +0.000 C 
BRANCH  31  32
ATOM     32  N   UNL     1       2.885   2.395  19.797  0.00  0.00    +0.000 NA
ATOM     33  C   UNL     1       3.888   1.744  19.348  0.00  0.00    +0.000 C 
ATOM     34  N   UNL     1       3.963   0.946  18.265  0.00  0.00    +0.000 N 
ATOM     35  N   UNL     1       5.037   1.786  20.046  0.00  0.00    +0.000 N 
ATOM     36  H   UNL     1       3.203   1.026  17.607  0.00  0.00    +0.000 HD
ATOM     37  H   UNL     1       4.865   0.886  17.815  0.00  0.00    +0.000 HD
ATOM     38  H   UNL     1       4.957   2.461  20.801  0.00  0.00    +0.000 HD
ATOM     39  H   UNL     1       5.871   1.957  19.501  0.00  0.00    +0.000 HD
ENDBRANCH  31  32
ENDBRANCH  30  31
ENDBRANCH  29  30
ENDBRANCH   1  29
TORSDOF 9
ENDMDL
MODEL 2
REMARK VINA RESULT:      -8.0      0.621      1.011
REMARK  Name = 
REMARK  12 active torsions:
REMARK  status: ('A' for Active; 'I' for Inactive)
REMARK    1  A    between atoms: C_1  and  C_2
REMARK    2  A    between atoms: C_7  and  C_9
REMARK    3  A    between atoms: C_9  and  C_10
REMARK    4  A    between atoms: C_9  and  N_17
REMARK    5  A    between atoms: C_10  and  C_11
REMARK    6  A    between atoms: C_11  and  C_12
REMARK    7  A    between atoms: C_12  and  N_13
REMARK    8  A    between atoms: N_17  and  S_18
REMARK    9  A    between atoms: S_18  and  C_21
REMARK   10  A    between atoms: C_26  and  N_27
REMARK   11  A    between atoms: N_27  and  C_28
REMARK   12  A    between atoms: N_27  and  C_29
REMARK                            x       y       z     vdW  Elec       q    Type
REMARK                         _______ _______ _______ _____ _____    ______ ____
ROOT
ATOM      1  C   UNL     1       2.946   5.799  18.859  0.00  0.00    +0.000 C 
ENDROOT
BRANCH   1   8
ATOM      2  C   UNL     1       5.273   6.696  15.282  0.00  0.00    +0.000 C 
ATOM      3  C   UNL     1       5.251   5.169  15.266  0.00  0.00    +0.000 C 
ATOM      4  C   UNL     1       6.649   4.537  15.304  0.00  0.00    +0.000 C 
ATOM      5  C   UNL     1       7.327   4.710  16.662  0.00  0.00    +0.000 C 
ATOM      6  C   UNL     1       6.418   4.271  17.816  0.00  0.00    +0.000 C 
ATOM      7  N   UNL     1       5.074   4.863  17.726  0.00  0.00    +0.000 N 
ATOM      8  C   UNL     1       4.443   5.305  18.897  0.00  0.00    +0.000 C 
ATOM      9  O   UNL     1       5.064   5.337  19.968  0.00  0.00    +0.000 OA
ATOM     10  C   UNL     1       4.417   4.655  16.432  0.00  0.00    +0.000 C 
ENDBRANCH   1   8
BRANCH   1  11
ATOM     11  N   UNL     1       3.012   7.292  18.920  0.00  0.00    +0.000 NA
ATOM     12  H   UNL     1       3.942   7.685  19.083  0.00  0.00    +0.000 HD
BRANCH  11  13
ATOM     13  S   UNL     1       1.874   8.339  18.272  0.00  0.00    +0.000 S 
ATOM     14  O   UNL     1       2.517   9.433  17.577  0.00  0.00    +0.000 OA
ATOM     15  O   UNL     1       0.889   7.541  17.574  0.00  0.00    +0.000 OA
BRANCH  13  16
ATOM     16  C   UNL     1       1.103   9.028  19.728  0.00  0.00    +0.000 A 
ATOM     17  C   UNL     1       1.559   8.539  20.960  0.00  0.00    +0.000 A 
ATOM     18  C   UNL     1       1.008   9.034  22.125  0.00  0.00    +0.000 A 
ATOM     19  C   UNL     1       0.058  10.050  22.053  0.00  0.00    +0.000 A 
ATOM     20  C   UNL     1      -0.353  10.666  20.836  0.00  0.00    +0.000 A 
ATOM     21  C   UNL     1      -1.252  11.806  20.775  0.00  0.00    +0.000 A 
ATOM     22  C   UNL     1      -1.637  12.257  19.498  0.00  0.00    +0.000 A 
ATOM     23  C   UNL     1      -1.211  11.649  18.333  0.00  0.00    +0.000 A 
ATOM     24  C   UNL     1      -0.330  10.584  18.407  0.00  0.00    +0.000 A 
ATOM     25  C   UNL     1       0.149  10.093  19.637  0.00  0.00    +0.000 A 
BRANCH  21  26
ATOM     26  N   UNL     1      -1.748  12.485  21.892  0.00  0.00    +0.000 N 
ATOM     27  C   UNL     1      -0.877  13.282  22.752  0.00  0.00    +0.000 C 
ATOM     28  C   UNL     1      -3.105  12.305  22.397  0.00  0.00    +0.000 C 
ENDBRANCH  21  26
ENDBRANCH  13  16
ENDBRANCH  11  13
ENDBRANCH   1  11
BRANCH   1  29
ATOM     29  C   UNL     1       2.142   5.321  20.081  0.00  0.00    +0.000 C 
BRANCH  29  30
ATOM     30  C   UNL     1       1.263   4.092  19.957  0.00  0.00    +0.000 C 
BRANCH  30  31
ATOM     31  C   UNL     1       1.927   2.802  20.400  0.00  0.00    +0.000 C 
BRANCH  31  32
ATOM     32  N   UNL     1       2.407   2.161  19.187  0.00  0.00    +0.000 NA
ATOM     33  C   UNL     1       3.641   1.847  19.090  0.00  0.00    +0.000 C 
ATOM     34  N   UNL     1       4.630   2.010  19.991  0.00  0.00    +0.000 N 
ATOM     35  N   UNL     1       4.075   1.326  17.928  0.00  0.00    +0.000 N 
ATOM     36  H   UNL     1       4.335   2.213  20.934  0.00  0.00    +0.000 HD
ATOM     37  H   UNL     1       5.384   1.341  19.953  0.00  0.00    +0.000 HD
ATOM     38  H   UNL     1       3.285   1.147  17.315  0.00  0.00    +0.000 HD
ATOM     39  H   UNL     1       4.658   0.505  18.010  0.00  0.00    +0.000 HD
ENDBRANCH  31  32
ENDBRANCH  30  31
ENDBRANCH  29  30
ENDBRANCH   1  29
TORSDOF 9
ENDMDL
MODEL 3
REMARK VINA RESULT:      -7.6      1.169      1.793
REMARK  Name = 
REMARK  12 active torsions:
REMARK  status: ('A' for Active; 'I' for Inactive)
REMARK    1  A    between atoms: C_1  and  C_2
REMARK    2  A    between atoms: C_7  and  C_9
REMARK    3  A    between atoms: C_9  and  C_10
REMARK    4  A    between atoms: C_9  and  N_17
REMARK    5  A    between atoms: C_10  and  C_11
REMARK    6  A    between atoms: C_11  and  C_12
REMARK    7  A    between atoms: C_12  and  N_13
REMARK    8  A    between atoms: N_17  and  S_18
REMARK    9  A    between atoms: S_18  and  C_21
REMARK   10  A    between atoms: C_26  and  N_27
REMARK   11  A    between atoms: N_27  and  C_28
REMARK   12  A    between atoms: N_27  and  C_29
REMARK                            x       y       z     vdW  Elec       q    Type
REMARK                         _______ _______ _______ _____ _____    ______ ____
ROOT
ATOM      1  C   UNL     1       2.297   5.852  18.880  0.00  0.00    +0.000 C 
ENDROOT
BRANCH   1   8
ATOM      2  C   UNL     1       6.614   5.367  19.263  0.00  0.00    +0.000 C 
ATOM      3  C   UNL     1       6.507   6.244  18.018  0.00  0.00    +0.000 C 
ATOM      4  C   UNL     1       7.138   5.613  16.769  0.00  0.00    +0.000 C 
ATOM      5  C   UNL     1       6.326   4.428  16.247  0.00  0.00    +0.000 C 
ATOM      6  C   UNL     1       4.844   4.778  16.081  0.00  0.00    +0.000 C 
ATOM      7  N   UNL     1       4.282   5.418  17.280  0.00  0.00    +0.000 N 
ATOM      8  C   UNL     1       2.988   5.075  17.695  0.00  0.00    +0.000 C 
ATOM      9  O   UNL     1       2.385   4.140  17.152  0.00  0.00    +0.000 OA
ATOM     10  C   UNL     1       5.046   6.579  17.749  0.00  0.00    +0.000 C 
ENDBRANCH   1   8
BRANCH   1  11
ATOM     11  N   UNL     1       2.749   7.273  18.750  0.00  0.00    +0.000 NA
ATOM     12  H   UNL     1       3.760   7.408  18.676  0.00  0.00    +0.000 HD
BRANCH  11  13
ATOM     13  S   UNL     1       1.795   8.547  18.221  0.00  0.00    +0.000 S 
ATOM     14  O   UNL     1       2.612   9.608  17.674  0.00  0.00    +0.000 OA
ATOM     15  O   UNL     1       0.727   7.993  17.418  0.00  0.00    +0.000 OA
BRANCH  13  16
ATOM     16  C   UNL     1       1.089   9.163  19.741  0.00  0.00    +0.000 A 
ATOM     17  C   UNL     1       1.564   8.582  20.925  0.00  0.00    +0.000 A 
ATOM     18  C   UNL     1       1.063   9.017  22.136  0.00  0.00    +0.000 A 
ATOM     19  C   UNL     1       0.144  10.063  22.157  0.00  0.00    +0.000 A 
ATOM     20  C   UNL     1      -0.282  10.768  20.996  0.00  0.00    +0.000 A 
ATOM     21  C   UNL     1      -1.145  11.937  21.034  0.00  0.00    +0.000 A 
ATOM     22  C   UNL     1      -1.553  12.481  19.802  0.00  0.00    +0.000 A 
ATOM     23  C   UNL     1      -1.179  11.937  18.587  0.00  0.00    +0.000 A 
ATOM     24  C   UNL     1      -0.331  10.843  18.566  0.00  0.00    +0.000 A 
ATOM     25  C   UNL     1       0.167  10.259  19.748  0.00  0.00    +0.000 A 
BRANCH  21  26
ATOM     26  N   UNL     1      -1.587  12.557  22.208  0.00  0.00    +0.000 N 
ATOM     27  C   UNL     1      -0.819  13.622  22.846  0.00  0.00    +0.000 C 
ATOM     28  C   UNL     1      -2.724  12.075  22.985  0.00  0.00    +0.000 C 
ENDBRANCH  21  26
ENDBRANCH  13  16
ENDBRANCH  11  13
ENDBRANCH   1  11
BRANCH   1  29
ATOM     29  C   UNL     1       2.759   5.345  20.258  0.00  0.00    +0.000 C 
BRANCH  29  30
ATOM     30  C   UNL     1       1.922   4.313  20.988  0.00  0.00    +0.000 C 
BRANCH  30  31
ATOM     31  C   UNL     1       2.623   2.987  21.214  0.00  0.00    +0.000 C 
BRANCH  31  32
ATOM     32  N   UNL     1       2.707   2.351  19.909  0.00  0.00    +0.000 NA
ATOM     33  C   UNL     1       3.848   2.006  19.452  0.00  0.00    +0.000 C 
ATOM     34  N   UNL     1       5.062   2.130  20.024  0.00  0.00    +0.000 N 
ATOM     35  N   UNL     1       3.906   1.491  18.211  0.00  0.00    +0.000 N 
ATOM     36  H   UNL     1       5.063   2.327  21.013  0.00  0.00    +0.000 HD
ATOM     37  H   UNL     1       5.752   1.442  19.762  0.00  0.00    +0.000 HD
ATOM     38  H   UNL     1       2.966   1.342  17.856  0.00  0.00    +0.000 HD
ATOM     39  H   UNL     1       4.463   0.653  18.113  0.00  0.00    +0.000 HD
ENDBRANCH  31  32
ENDBRANCH  30  31
ENDBRANCH  29  30
ENDBRANCH   1  29
TORSDOF 9
ENDMDL
MODEL 4
REMARK VINA RESULT:      -7.5      2.933     10.078
REMARK  Name = 
REMARK  12 active torsions:
REMARK  status: ('A' for Active; 'I' for Inactive)
REMARK    1  A    between atoms: C_1  and  C_2
REMARK    2  A    between atoms: C_7  and  C_9
REMARK    3  A    between atoms: C_9  and  C_10
REMARK    4  A    between atoms: C_9  and  N_17
REMARK    5  A    between atoms: C_10  and  C_11
REMARK    6  A    between atoms: C_11  and  C_12
REMARK    7  A    between atoms: C_12  and  N_13
REMARK    8  A    between atoms: N_17  and  S_18
REMARK    9  A    between atoms: S_18  and  C_21
REMARK   10  A    between atoms: C_26  and  N_27
REMARK   11  A    between atoms: N_27  and  C_28
REMARK   12  A    between atoms: N_27  and  C_29
REMARK                            x       y       z     vdW  Elec       q    Type
REMARK                         _______ _______ _______ _____ _____    ______ ____
ROOT
ATOM      1  C   UNL     1      -0.943  11.462  20.997  0.00  0.00    +0.000 C 
ENDROOT
BRANCH   1   8
ATOM      2  C   UNL     1      -3.821  12.281  24.169  0.00  0.00    +0.000 C 
ATOM      3  C   UNL     1      -4.092  13.427  23.197  0.00  0.00    +0.000 C 
ATOM      4  C   UNL     1      -3.896  14.816  23.820  0.00  0.00    +0.000 C 
ATOM      5  C   UNL     1      -2.425  15.128  24.088  0.00  0.00    +0.000 C 
ATOM      6  C   UNL     1      -1.552  14.876  22.854  0.00  0.00    +0.000 C 
ATOM      7  N   UNL     1      -1.794  13.553  22.259  0.00  0.00    +0.000 N 
ATOM      8  C   UNL     1      -0.706  12.810  21.779  0.00  0.00    +0.000 C 
ATOM      9  O   UNL     1       0.453  13.193  21.988  0.00  0.00    +0.000 OA
ATOM     10  C   UNL     1      -3.205  13.279  21.968  0.00  0.00    +0.000 C 
ENDBRANCH   1   8
BRANCH   1  11
ATOM     11  N   UNL     1       0.391  10.786  20.942  0.00  0.00    +0.000 NA
ATOM     12  H   UNL     1       1.199  11.411  20.906  0.00  0.00    +0.000 HD
BRANCH  11  13
ATOM     13  S   UNL     1       0.699   9.211  21.430  0.00  0.00    +0.000 S 
ATOM     14  O   UNL     1       1.670   9.186  22.502  0.00  0.00    +0.000 OA
ATOM     15  O   UNL     1      -0.575   8.551  21.615  0.00  0.00    +0.000 OA
BRANCH  13  16
ATOM     16  C   UNL     1       1.490   8.505  19.993  0.00  0.00    +0.000 A 
ATOM     17  C   UNL     1       1.740   9.383  18.929  0.00  0.00    +0.000 A 
ATOM     18  C   UNL     1       2.354   8.902  17.791  0.00  0.00    +0.000 A 
ATOM     19  C   UNL     1       2.765   7.572  17.748  0.00  0.00    +0.000 A 
ATOM     20  C   UNL     1       2.645   6.669  18.842  0.00  0.00    +0.000 A 
ATOM     21  C   UNL     1       3.185   5.320  18.836  0.00  0.00    +0.000 A 
ATOM     22  C   UNL     1       2.917   4.511  19.957  0.00  0.00    +0.000 A 
ATOM     23  C   UNL     1       2.157   4.947  21.026  0.00  0.00    +0.000 A 
ATOM     24  C   UNL     1       1.676   6.245  21.031  0.00  0.00    +0.000 A 
ATOM     25  C   UNL     1       1.933   7.143  19.977  0.00  0.00    +0.000 A 
BRANCH  21  26
ATOM     26  N   UNL     1       3.956   4.780  17.802  0.00  0.00    +0.000 N 
ATOM     27  C   UNL     1       3.468   3.674  16.982  0.00  0.00    +0.000 C 
ATOM     28  C   UNL     1       5.355   5.131  17.582  0.00  0.00    +0.000 C 
ENDBRANCH  21  26
ENDBRANCH  13  16
ENDBRANCH  11  13
ENDBRANCH   1  11
BRANCH   1  29
ATOM     29  C   UNL     1      -1.400  11.701  19.547  0.00  0.00    +0.000 C 
BRANCH  29  30
ATOM     30  C   UNL     1      -1.584  10.514  18.621  0.00  0.00    +0.000 C 
BRANCH  30  31
ATOM     31  C   UNL     1      -2.153  10.867  17.259  0.00  0.00    +0.000 C 
BRANCH  31  32
ATOM     32  N   UNL     1      -3.481  11.403  17.507  0.00  0.00    +0.000 NA
ATOM     33  C   UNL     1      -4.391  11.256  16.623  0.00  0.00    +0.000 C 
ATOM     34  N   UNL     1      -4.320  10.634  15.430  0.00  0.00    +0.000 N 
ATOM     35  N   UNL     1      -5.589  11.828  16.842  0.00  0.00    +0.000 N 
ATOM     36  H   UNL     1      -3.522  10.031  15.296  0.00  0.00    +0.000 HD
ATOM     37  H   UNL     1      -5.177  10.229  15.085  0.00  0.00    +0.000 HD
ATOM     38  H   UNL     1      -5.620  12.211  17.783  0.00  0.00    +0.000 HD
ATOM     39  H   UNL     1      -6.391  11.238  16.669  0.00  0.00    +0.000 HD
ENDBRANCH  31  32
ENDBRANCH  30  31
ENDBRANCH  29  30
ENDBRANCH   1  29
TORSDOF 9
ENDMDL
MODEL 5
REMARK VINA RESULT:      -7.3      1.116      1.361
REMARK  Name = 
REMARK  12 active torsions:
REMARK  status: ('A' for Active; 'I' for Inactive)
REMARK    1  A    between atoms: C_1  and  C_2
REMARK    2  A    between atoms: C_7  and  C_9
REMARK    3  A    between atoms: C_9  and  C_10
REMARK    4  A    between atoms: C_9  and  N_17
REMARK    5  A    between atoms: C_10  and  C_11
REMARK    6  A    between atoms: C_11  and  C_12
REMARK    7  A    between atoms: C_12  and  N_13
REMARK    8  A    between atoms: N_17  and  S_18
REMARK    9  A    between atoms: S_18  and  C_21
REMARK   10  A    between atoms: C_26  and  N_27
REMARK   11  A    between atoms: N_27  and  C_28
REMARK   12  A    between atoms: N_27  and  C_29
REMARK                            x       y       z     vdW  Elec       q    Type
REMARK                         _______ _______ _______ _____ _____    ______ ____
ROOT
ATOM      1  C   UNL     1       2.681   6.629  18.236  0.00  0.00    +0.000 C 
ENDROOT
BRANCH   1   8
ATOM      2  C   UNL     1       6.764   7.890  17.367  0.00  0.00    +0.000 C 
ATOM      3  C   UNL     1       6.765   6.452  16.854  0.00  0.00    +0.000 C 
ATOM      4  C   UNL     1       7.810   5.560  17.537  0.00  0.00    +0.000 C 
ATOM      5  C   UNL     1       7.449   5.251  18.989  0.00  0.00    +0.000 C 
ATOM      6  C   UNL     1       6.012   4.735  19.124  0.00  0.00    +0.000 C 
ATOM      7  N   UNL     1       5.042   5.590  18.425  0.00  0.00    +0.000 N 
ATOM      8  C   UNL     1       3.801   5.848  19.024  0.00  0.00    +0.000 C 
ATOM      9  O   UNL     1       3.583   5.488  20.188  0.00  0.00    +0.000 OA
ATOM     10  C   UNL     1       5.377   5.846  17.020  0.00  0.00    +0.000 C 
ENDBRANCH   1   8
BRANCH   1  11
ATOM     11  N   UNL     1       2.159   7.657  19.189  0.00  0.00    +0.000 NA
ATOM     12  H   UNL     1       2.542   7.613  20.136  0.00  0.00    +0.000 HD
BRANCH  11  13
ATOM     13  S   UNL     1       1.443   9.109  18.751  0.00  0.00    +0.000 S 
ATOM     14  O   UNL     1       2.447  10.103  18.438  0.00  0.00    +0.000 OA
ATOM     15  O   UNL     1       0.412   8.816  17.780  0.00  0.00    +0.000 OA
BRANCH  13  16
ATOM     16  C   UNL     1       0.651   9.627  20.266  0.00  0.00    +0.000 A 
ATOM     17  C   UNL     1       1.025   8.937  21.428  0.00  0.00    +0.000 A 
ATOM     18  C   UNL     1       0.454   9.292  22.633  0.00  0.00    +0.000 A 
ATOM     19  C   UNL     1      -0.433  10.365  22.678  0.00  0.00    +0.000 A 
ATOM     20  C   UNL     1      -0.755  11.175  21.553  0.00  0.00    +0.000 A 
ATOM     21  C   UNL     1      -1.583  12.367  21.629  0.00  0.00    +0.000 A 
ATOM     22  C   UNL     1      -1.886  13.022  20.420  0.00  0.00    +0.000 A 
ATOM     23  C   UNL     1      -1.445  12.564  19.193  0.00  0.00    +0.000 A 
ATOM     24  C   UNL     1      -0.632  11.446  19.140  0.00  0.00    +0.000 A 
ATOM     25  C   UNL     1      -0.235  10.752  20.300  0.00  0.00    +0.000 A 
BRANCH  21  26
ATOM     26  N   UNL     1      -2.087  12.907  22.817  0.00  0.00    +0.000 N 
ATOM     27  C   UNL     1      -3.411  12.548  23.318  0.00  0.00    +0.000 C 
ATOM     28  C   UNL     1      -1.437  13.995  23.538  0.00  0.00    +0.000 C 
ENDBRANCH  21  26
ENDBRANCH  13  16
ENDBRANCH  11  13
ENDBRANCH   1  11
BRANCH   1  29
ATOM     29  C   UNL     1       1.502   5.721  17.844  0.00  0.00    +0.000 C 
BRANCH  29  30
ATOM     30  C   UNL     1       1.779   4.310  17.363  0.00  0.00    +0.000 C 
BRANCH  30  31
ATOM     31  C   UNL     1       1.428   3.229  18.368  0.00  0.00    +0.000 C 
BRANCH  31  32
ATOM     32  N   UNL     1       2.265   2.087  18.036  0.00  0.00    +0.000 NA
ATOM     33  C   UNL     1       3.237   1.777  18.805  0.00  0.00    +0.000 C 
ATOM     34  N   UNL     1       3.628   2.365  19.954  0.00  0.00    +0.000 N 
ATOM     35  N   UNL     1       4.042   0.766  18.436  0.00  0.00    +0.000 N 
ATOM     36  H   UNL     1       2.961   2.995  20.374  0.00  0.00    +0.000 HD
ATOM     37  H   UNL     1       4.081   1.768  20.629  0.00  0.00    +0.000 HD
ATOM     38  H   UNL     1       3.662   0.305  17.614  0.00  0.00    +0.000 HD
ATOM     39  H   UNL     1       4.254   0.092  19.159  0.00  0.00    +0.000 HD
ENDBRANCH  31  32
ENDBRANCH  30  31
ENDBRANCH  29  30
ENDBRANCH   1  29
TORSDOF 9
ENDMDL
MODEL 6
REMARK VINA RESULT:      -7.3      1.709      3.972
REMARK  Name = 
REMARK  12 active torsions:
REMARK  status: ('A' for Active; 'I' for Inactive)
REMARK    1  A    between atoms: C_1  and  C_2
REMARK    2  A    between atoms: C_7  and  C_9
REMARK    3  A    between atoms: C_9  and  C_10
REMARK    4  A    between atoms: C_9  and  N_17
REMARK    5  A    between atoms: C_10  and  C_11
REMARK    6  A    between atoms: C_11  and  C_12
REMARK    7  A    between atoms: C_12  and  N_13
REMARK    8  A    between atoms: N_17  and  S_18
REMARK    9  A    between atoms: S_18  and  C_21
REMARK   10  A    between atoms: C_26  and  N_27
REMARK   11  A    between atoms: N_27  and  C_28
REMARK   12  A    between atoms: N_27  and  C_29
REMARK                            x       y       z     vdW  Elec       q    Type
REMARK                         _______ _______ _______ _____ _____    ______ ____
ROOT
ATOM      1  C   UNL     1       4.454   6.045  18.402  0.00  0.00    +0.000 C 
ENDROOT
BRANCH   1   8
ATOM      2  C   UNL     1       0.916   4.689  20.561  0.00  0.00    +0.000 C 
ATOM      3  C   UNL     1       1.863   3.505  20.738  0.00  0.00    +0.000 C 
ATOM      4  C   UNL     1       1.306   2.188  20.180  0.00  0.00    +0.000 C 
ATOM      5  C   UNL     1       1.262   2.179  18.653  0.00  0.00    +0.000 C 
ATOM      6  C   UNL     1       2.604   2.592  18.038  0.00  0.00    +0.000 C 
ATOM      7  N   UNL     1       3.128   3.835  18.624  0.00  0.00    +0.000 N 
ATOM      8  C   UNL     1       3.745   4.778  17.789  0.00  0.00    +0.000 C 
ATOM      9  O   UNL     1       3.714   4.636  16.559  0.00  0.00    +0.000 OA
ATOM     10  C   UNL     1       3.205   3.818  20.089  0.00  0.00    +0.000 C 
ENDBRANCH   1   8
BRANCH   1  11
ATOM     11  N   UNL     1       3.375   6.817  19.093  0.00  0.00    +0.000 NA
ATOM     12  H   UNL     1       3.540   7.016  20.082  0.00  0.00    +0.000 HD
BRANCH  11  13
ATOM     13  S   UNL     1       2.234   7.780  18.329  0.00  0.00    +0.000 S 
ATOM     14  O   UNL     1       2.875   8.803  17.532  0.00  0.00    +0.000 OA
ATOM     15  O   UNL     1       1.264   6.905  17.707  0.00  0.00    +0.000 OA
BRANCH  13  16
ATOM     16  C   UNL     1       1.441   8.607  19.699  0.00  0.00    +0.000 A 
ATOM     17  C   UNL     1       1.826   8.191  20.981  0.00  0.00    +0.000 A 
ATOM     18  C   UNL     1       1.254   8.793  22.083  0.00  0.00    +0.000 A 
ATOM     19  C   UNL     1       0.356   9.841  21.899  0.00  0.00    +0.000 A 
ATOM     20  C   UNL     1       0.020  10.383  20.626  0.00  0.00    +0.000 A 
ATOM     21  C   UNL     1      -0.821  11.554  20.445  0.00  0.00    +0.000 A 
ATOM     22  C   UNL     1      -1.136  11.926  19.125  0.00  0.00    +0.000 A 
ATOM     23  C   UNL     1      -0.694  11.217  18.024  0.00  0.00    +0.000 A 
ATOM     24  C   UNL     1       0.133  10.123  18.211  0.00  0.00    +0.000 A 
ATOM     25  C   UNL     1       0.541   9.702  19.492  0.00  0.00    +0.000 A 
BRANCH  21  26
ATOM     26  N   UNL     1      -1.328  12.334  21.490  0.00  0.00    +0.000 N 
ATOM     27  C   UNL     1      -0.499  13.316  22.183  0.00  0.00    +0.000 C 
ATOM     28  C   UNL     1      -2.636  12.106  22.094  0.00  0.00    +0.000 C 
ENDBRANCH  21  26
ENDBRANCH  13  16
ENDBRANCH  11  13
ENDBRANCH   1  11
BRANCH   1  29
ATOM     29  C   UNL     1       5.057   6.957  17.320  0.00  0.00    +0.000 C 
BRANCH  29  30
ATOM     30  C   UNL     1       6.562   7.008  17.145  0.00  0.00    +0.000 C 
BRANCH  30  31
ATOM     31  C   UNL     1       7.201   5.666  16.844  0.00  0.00    +0.000 C 
BRANCH  31  32
ATOM     32  N   UNL     1       7.115   5.496  15.402  0.00  0.00    +0.000 NA
ATOM     33  C   UNL     1       6.675   4.396  14.926  0.00  0.00    +0.000 C 
ATOM     34  N   UNL     1       6.238   3.303  15.584  0.00  0.00    +0.000 N 
ATOM     35  N   UNL     1       6.678   4.235  13.591  0.00  0.00    +0.000 N 
ATOM     36  H   UNL     1       6.034   3.432  16.563  0.00  0.00    +0.000 HD
ATOM     37  H   UNL     1       5.543   2.745  15.110  0.00  0.00    +0.000 HD
ATOM     38  H   UNL     1       6.936   5.107  13.140  0.00  0.00    +0.000 HD
ATOM     39  H   UNL     1       5.825   3.866  13.195  0.00  0.00    +0.000 HD
ENDBRANCH  31  32
ENDBRANCH  30  31
ENDBRANCH  29  30
ENDBRANCH   1  29
TORSDOF 9
ENDMDL
MODEL 7
REMARK VINA RESULT:      -7.2      2.830     10.096
REMARK  Name = 
REMARK  12 active torsions:
REMARK  status: ('A' for Active; 'I' for Inactive)
REMARK    1  A    between atoms: C_1  and  C_2
REMARK    2  A    between atoms: C_7  and  C_9
REMARK    3  A    between atoms: C_9  and  C_10
REMARK    4  A    between atoms: C_9  and  N_17
REMARK    5  A    between atoms: C_10  and  C_11
REMARK    6  A    between atoms: C_11  and  C_12
REMARK    7  A    between atoms: C_12  and  N_13
REMARK    8  A    between atoms: N_17  and  S_18
REMARK    9  A    between atoms: S_18  and  C_21
REMARK   10  A    between atoms: C_26  and  N_27
REMARK   11  A    between atoms: N_27  and  C_28
REMARK   12  A    between atoms: N_27  and  C_29
REMARK                            x       y       z     vdW  Elec       q    Type
REMARK                         _______ _______ _______ _____ _____    ______ ____
ROOT
ATOM      1  C   UNL     1      -0.927  11.015  19.920  0.00  0.00    +0.000 C 
ENDROOT
BRANCH   1   8
ATOM      2  C   UNL     1      -2.653  12.838  23.485  0.00  0.00    +0.000 C 
ATOM      3  C   UNL     1      -3.566  13.377  22.386  0.00  0.00    +0.000 C 
ATOM      4  C   UNL     1      -3.588  14.910  22.306  0.00  0.00    +0.000 C 
ATOM      5  C   UNL     1      -2.276  15.481  21.772  0.00  0.00    +0.000 C 
ATOM      6  C   UNL     1      -1.843  14.801  20.469  0.00  0.00    +0.000 C 
ATOM      7  N   UNL     1      -1.872  13.334  20.566  0.00  0.00    +0.000 N 
ATOM      8  C   UNL     1      -0.847  12.588  19.968  0.00  0.00    +0.000 C 
ATOM      9  O   UNL     1       0.146  13.159  19.497  0.00  0.00    +0.000 OA
ATOM     10  C   UNL     1      -3.150  12.793  21.041  0.00  0.00    +0.000 C 
ENDBRANCH   1   8
BRANCH   1  11
ATOM     11  N   UNL     1       0.405  10.527  20.393  0.00  0.00    +0.000 NA
ATOM     12  H   UNL     1       1.089  11.256  20.610  0.00  0.00    +0.000 HD
BRANCH  11  13
ATOM     13  S   UNL     1       0.702   9.017  21.060  0.00  0.00    +0.000 S 
ATOM     14  O   UNL     1       1.577   9.126  22.208  0.00  0.00    +0.000 OA
ATOM     15  O   UNL     1      -0.568   8.341  21.201  0.00  0.00    +0.000 OA
BRANCH  13  16
ATOM     16  C   UNL     1       1.631   8.198  19.773  0.00  0.00    +0.000 A 
ATOM     17  C   UNL     1       2.036   8.998  18.696  0.00  0.00    +0.000 A 
ATOM     18  C   UNL     1       2.762   8.428  17.670  0.00  0.00    +0.000 A 
ATOM     19  C   UNL     1       3.127   7.087  17.757  0.00  0.00    +0.000 A 
ATOM     20  C   UNL     1       2.846   6.259  18.881  0.00  0.00    +0.000 A 
ATOM     21  C   UNL     1       3.335   4.898  19.022  0.00  0.00    +0.000 A 
ATOM     22  C   UNL     1       2.907   4.171  20.149  0.00  0.00    +0.000 A 
ATOM     23  C   UNL     1       2.043   4.696  21.091  0.00  0.00    +0.000 A 
ATOM     24  C   UNL     1       1.612   6.004  20.960  0.00  0.00    +0.000 A 
ATOM     25  C   UNL     1       2.024   6.826  19.892  0.00  0.00    +0.000 A 
BRANCH  21  26
ATOM     26  N   UNL     1       4.202   4.270  18.121  0.00  0.00    +0.000 N 
ATOM     27  C   UNL     1       5.639   4.528  18.139  0.00  0.00    +0.000 C 
ATOM     28  C   UNL     1       3.738   3.475  16.990  0.00  0.00    +0.000 C 
ENDBRANCH  21  26
ENDBRANCH  13  16
ENDBRANCH  11  13
ENDBRANCH   1  11
BRANCH   1  29
ATOM     29  C   UNL     1      -1.132  10.485  18.489  0.00  0.00    +0.000 C 
BRANCH  29  30
ATOM     30  C   UNL     1      -2.536  10.176  18.006  0.00  0.00    +0.000 C 
BRANCH  30  31
ATOM     31  C   UNL     1      -3.336  11.396  17.592  0.00  0.00    +0.000 C 
BRANCH  31  32
ATOM     32  N   UNL     1      -4.720  10.958  17.506  0.00  0.00    +0.000 NA
ATOM     33  C   UNL     1      -5.654  11.759  17.847  0.00  0.00    +0.000 C 
ATOM     34  N   UNL     1      -5.560  13.029  18.290  0.00  0.00    +0.000 N 
ATOM     35  N   UNL     1      -6.919  11.303  17.832  0.00  0.00    +0.000 N 
ATOM     36  H   UNL     1      -4.671  13.481  18.141  0.00  0.00    +0.000 HD
ATOM     37  H   UNL     1      -6.344  13.631  18.086  0.00  0.00    +0.000 HD
ATOM     38  H   UNL     1      -6.946  10.376  17.417  0.00  0.00    +0.000 HD
ATOM     39  H   UNL     1      -7.596  11.912  17.394  0.00  0.00    +0.000 HD
ENDBRANCH  31  32
ENDBRANCH  30  31
ENDBRANCH  29  30
ENDBRANCH   1  29
TORSDOF 9
ENDMDL
MODEL 8
REMARK VINA RESULT:      -7.2      3.265      9.869
REMARK  Name = 
REMARK  12 active torsions:
REMARK  status: ('A' for Active; 'I' for Inactive)
REMARK    1  A    between atoms: C_1  and  C_2
REMARK    2  A    between atoms: C_7  and  C_9
REMARK    3  A    between atoms: C_9  and  C_10
REMARK    4  A    between atoms: C_9  and  N_17
REMARK    5  A    between atoms: C_10  and  C_11
REMARK    6  A    between atoms: C_11  and  C_12
REMARK    7  A    between atoms: C_12  and  N_13
REMARK    8  A    between atoms: N_17  and  S_18
REMARK    9  A    between atoms: S_18  and  C_21
REMARK   10  A    between atoms: C_26  and  N_27
REMARK   11  A    between atoms: N_27  and  C_28
REMARK   12  A    between atoms: N_27  and  C_29
REMARK                            x       y       z     vdW  Elec       q    Type
REMARK                         _______ _______ _______ _____ _____    ______ ____
ROOT
ATOM      1  C   UNL     1      -1.178  11.044  20.043  0.00  0.00    +0.000 C 
ENDROOT
BRANCH   1   8
ATOM      2  C   UNL     1      -3.334  12.438  23.567  0.00  0.00    +0.000 C 
ATOM      3  C   UNL     1      -4.222  12.950  22.435  0.00  0.00    +0.000 C 
ATOM      4  C   UNL     1      -4.405  14.474  22.444  0.00  0.00    +0.000 C 
ATOM      5  C   UNL     1      -3.129  15.213  22.044  0.00  0.00    +0.000 C 
ATOM      6  C   UNL     1      -2.537  14.670  20.740  0.00  0.00    +0.000 C 
ATOM      7  N   UNL     1      -2.412  13.204  20.750  0.00  0.00    +0.000 N 
ATOM      8  C   UNL     1      -1.273  12.610  20.189  0.00  0.00    +0.000 C 
ATOM      9  O   UNL     1      -0.318  13.312  19.827  0.00  0.00    +0.000 OA
ATOM     10  C   UNL     1      -3.654  12.503  21.094  0.00  0.00    +0.000 C 
ENDBRANCH   1   8
BRANCH   1  11
ATOM     11  N   UNL     1       0.230  10.689  20.403  0.00  0.00    +0.000 NA
ATOM     12  H   UNL     1       0.870  11.479  20.505  0.00  0.00    +0.000 HD
BRANCH  11  13
ATOM     13  S   UNL     1       0.713   9.252  21.121  0.00  0.00    +0.000 S 
ATOM     14  O   UNL     1       1.662   9.502  22.183  0.00  0.00    +0.000 OA
ATOM     15  O   UNL     1      -0.477   8.480  21.403  0.00  0.00    +0.000 OA
BRANCH  13  16
ATOM     16  C   UNL     1       1.606   8.439  19.805  0.00  0.00    +0.000 A 
ATOM     17  C   UNL     1       1.973   9.243  18.717  0.00  0.00    +0.000 A 
ATOM     18  C   UNL     1       2.670   8.678  17.668  0.00  0.00    +0.000 A 
ATOM     19  C   UNL     1       3.045   7.339  17.742  0.00  0.00    +0.000 A 
ATOM     20  C   UNL     1       2.804   6.508  18.873  0.00  0.00    +0.000 A 
ATOM     21  C   UNL     1       3.304   5.150  18.997  0.00  0.00    +0.000 A 
ATOM     22  C   UNL     1       2.915   4.419  20.136  0.00  0.00    +0.000 A 
ATOM     23  C   UNL     1       2.078   4.938  21.105  0.00  0.00    +0.000 A 
ATOM     24  C   UNL     1       1.635   6.244  20.989  0.00  0.00    +0.000 A 
ATOM     25  C   UNL     1       2.010   7.069  19.910  0.00  0.00    +0.000 A 
BRANCH  21  26
ATOM     26  N   UNL     1       4.147   4.528  18.070  0.00  0.00    +0.000 N 
ATOM     27  C   UNL     1       3.662   3.472  17.185  0.00  0.00    +0.000 C 
ATOM     28  C   UNL     1       5.590   4.735  18.039  0.00  0.00    +0.000 C 
ENDBRANCH  21  26
ENDBRANCH  13  16
ENDBRANCH  11  13
ENDBRANCH   1  11
BRANCH   1  29
ATOM     29  C   UNL     1      -1.417  10.577  18.596  0.00  0.00    +0.000 C 
BRANCH  29  30
ATOM     30  C   UNL     1      -1.833  11.590  17.548  0.00  0.00    +0.000 C 
BRANCH  30  31
ATOM     31  C   UNL     1      -3.018  11.163  16.702  0.00  0.00    +0.000 C 
BRANCH  31  32
ATOM     32  N   UNL     1      -2.468  10.743  15.424  0.00  0.00    +0.000 NA
ATOM     33  C   UNL     1      -3.245  10.252  14.538  0.00  0.00    +0.000 C 
ATOM     34  N   UNL     1      -4.579  10.061  14.594  0.00  0.00    +0.000 N 
ATOM     35  N   UNL     1      -2.701   9.800  13.394  0.00  0.00    +0.000 N 
ATOM     36  H   UNL     1      -5.061  10.547  15.334  0.00  0.00    +0.000 HD
ATOM     37  H   UNL     1      -5.072  10.097  13.714  0.00  0.00    +0.000 HD
ATOM     38  H   UNL     1      -1.714  10.040  13.365  0.00  0.00    +0.000 HD
ATOM     39  H   UNL     1      -3.165  10.092  12.546  0.00  0.00    +0.000 HD
ENDBRANCH  31  32
ENDBRANCH  30  31
ENDBRANCH  29  30
ENDBRANCH   1  29
TORSDOF 9
ENDMDL
MODEL 9
REMARK VINA RESULT:      -7.2      2.076      3.414
REMARK  Name = 
REMARK  12 active torsions:
REMARK  status: ('A' for Active; 'I' for Inactive)
REMARK    1  A    between atoms: C_1  and  C_2
REMARK    2  A    between atoms: C_7  and  C_9
REMARK    3  A    between atoms: C_9  and  C_10
REMARK    4  A    between atoms: C_9  and  N_17
REMARK    5  A    between atoms: C_10  and  C_11
REMARK    6  A    between atoms: C_11  and  C_12
REMARK    7  A    between atoms: C_12  and  N_13
REMARK    8  A    between atoms: N_17  and  S_18
REMARK    9  A    between atoms: S_18  and  C_21
REMARK   10  A    between atoms: C_26  and  N_27
REMARK   11  A    between atoms: N_27  and  C_28
REMARK   12  A    between atoms: N_27  and  C_29
REMARK                            x       y       z     vdW  Elec       q    Type
REMARK                         _______ _______ _______ _____ _____    ______ ____
ROOT
ATOM      1  C   UNL     1       4.442   5.145  16.616  0.00  0.00    +0.000 C 
ENDROOT
BRANCH   1   8
ATOM      2  C   UNL     1       4.638   4.103  12.386  0.00  0.00    +0.000 C 
ATOM      3  C   UNL     1       5.846   3.357  12.948  0.00  0.00    +0.000 C 
ATOM      4  C   UNL     1       7.176   3.774  12.304  0.00  0.00    +0.000 C 
ATOM      5  C   UNL     1       7.603   5.182  12.717  0.00  0.00    +0.000 C 
ATOM      6  C   UNL     1       7.568   5.369  14.238  0.00  0.00    +0.000 C 
ATOM      7  N   UNL     1       6.296   4.922  14.827  0.00  0.00    +0.000 N 
ATOM      8  C   UNL     1       5.718   5.675  15.858  0.00  0.00    +0.000 C 
ATOM      9  O   UNL     1       6.190   6.778  16.165  0.00  0.00    +0.000 OA
ATOM     10  C   UNL     1       5.916   3.554  14.457  0.00  0.00    +0.000 C 
ENDBRANCH   1   8
BRANCH   1  11
ATOM     11  N   UNL     1       4.098   6.202  17.617  0.00  0.00    +0.000 NA
ATOM     12  H   UNL     1       4.473   7.133  17.420  0.00  0.00    +0.000 HD
BRANCH  11  13
ATOM     13  S   UNL     1       2.808   6.139  18.688  0.00  0.00    +0.000 S 
ATOM     14  O   UNL     1       1.722   5.358  18.138  0.00  0.00    +0.000 OA
ATOM     15  O   UNL     1       3.335   5.799  19.991  0.00  0.00    +0.000 OA
BRANCH  13  16
ATOM     16  C   UNL     1       2.257   7.837  18.735  0.00  0.00    +0.000 A 
ATOM     17  C   UNL     1       2.574   8.623  17.618  0.00  0.00    +0.000 A 
ATOM     18  C   UNL     1       2.172   9.943  17.589  0.00  0.00    +0.000 A 
ATOM     19  C   UNL     1       1.409  10.447  18.639  0.00  0.00    +0.000 A 
ATOM     20  C   UNL     1       0.958   9.663  19.739  0.00  0.00    +0.000 A 
ATOM     21  C   UNL     1       0.061  10.161  20.769  0.00  0.00    +0.000 A 
ATOM     22  C   UNL     1      -0.233   9.298  21.842  0.00  0.00    +0.000 A 
ATOM     23  C   UNL     1       0.307   8.031  21.949  0.00  0.00    +0.000 A 
ATOM     24  C   UNL     1       1.134   7.560  20.945  0.00  0.00    +0.000 A 
ATOM     25  C   UNL     1       1.448   8.332  19.809  0.00  0.00    +0.000 A 
BRANCH  21  26
ATOM     26  N   UNL     1      -0.530  11.429  20.760  0.00  0.00    +0.000 N 
ATOM     27  C   UNL     1      -0.289  12.392  21.830  0.00  0.00    +0.000 C 
ATOM     28  C   UNL     1      -1.565  11.819  19.809  0.00  0.00    +0.000 C 
ENDBRANCH  21  26
ENDBRANCH  13  16
ENDBRANCH  11  13
ENDBRANCH   1  11
BRANCH   1  29
ATOM     29  C   UNL     1       4.721   3.846  17.392  0.00  0.00    +0.000 C 
BRANCH  29  30
ATOM     30  C   UNL     1       3.773   2.673  17.243  0.00  0.00    +0.000 C 
BRANCH  30  31
ATOM     31  C   UNL     1       3.700   1.770  18.460  0.00  0.00    +0.000 C 
BRANCH  31  32
ATOM     32  N   UNL     1       3.032   2.545  19.493  0.00  0.00    +0.000 NA
ATOM     33  C   UNL     1       1.758   2.508  19.579  0.00  0.00    +0.000 C 
ATOM     34  N   UNL     1       0.878   1.814  18.830  0.00  0.00    +0.000 N 
ATOM     35  N   UNL     1       1.160   3.294  20.493  0.00  0.00    +0.000 N 
ATOM     36  H   UNL     1       1.270   1.075  18.267  0.00  0.00    +0.000 HD
ATOM     37  H   UNL     1       0.018   1.547  19.284  0.00  0.00    +0.000 HD
ATOM     38  H   UNL     1       1.861   3.731  21.083  0.00  0.00    +0.000 HD
ATOM     39  H   UNL     1       0.449   2.845  21.053  0.00  0.00    +0.000 HD
ENDBRANCH  31  32
ENDBRANCH  30  31
ENDBRANCH  29  30
ENDBRANCH   1  29
TORSDOF 9
ENDMDL
