MODEL 1
REMARK VINA RESULT:      -7.3      0.000      0.000
REMARK  Name = 
REMARK  6 active torsions:
REMARK  status: ('A' for Active; 'I' for Inactive)
REMARK    1  A    between atoms: C_1  and  C_2
REMARK    2  A    between atoms: C_2  and  C_3
REMARK    3  A    between atoms: N_4  and  C_5
REMARK    4  A    between atoms: C_6  and  C_7
REMARK    5  A    between atoms: C_11  and  C_12
REMARK    6  A    between atoms: N_14  and  C_15
REMARK                            x       y       z     vdW  Elec       q    Type
REMARK                         _______ _______ _______ _____ _____    ______ ____
ROOT
ATOM      1  C   UNL     1       3.959   5.965  18.012  0.00  0.00    +0.000 A 
ATOM      2  C   UNL     1       2.855   6.035  18.910  0.00  0.00    +0.000 A 
ATOM      3  C   UNL     1       2.329   4.766  19.019  0.00  0.00    +0.000 A 
ATOM      4  N   UNL     1       2.983   3.972  18.102  0.00  0.00    +0.000 N 
ATOM      5  C   UNL     1       3.991   4.691  17.448  0.00  0.00    +0.000 A 
ATOM      6  C   UNL     1       2.652   2.564  17.899  0.00  0.00    +0.000 C 
ATOM      7  C   UNL     1       1.356   2.125  18.586  0.00  0.00    +0.000 C 
ATOM      8  C   UNL     1       1.237   2.730  19.978  0.00  0.00    +0.000 C 
ATOM      9  C   UNL     1       1.217   4.250  19.878  0.00  0.00    +0.000 C 
ENDROOT
BRANCH   5  10
ATOM     10  C   UNL     1       4.815   4.108  16.387  0.00  0.00    +0.000 C 
ATOM     11  O   UNL     1       5.438   3.063  16.576  0.00  0.00    +0.000 OA
ATOM     12  N   UNL     1       4.884   4.808  15.194  0.00  0.00    +0.000 N 
ATOM     13  H   UNL     1       4.469   5.736  15.199  0.00  0.00    +0.000 HD
BRANCH  12  14
ATOM     14  C   UNL     1       5.569   4.383  14.027  0.00  0.00    +0.000 A 
ATOM     15  C   UNL     1       5.009   3.509  13.085  0.00  0.00    +0.000 A 
ATOM     16  C   UNL     1       5.730   3.097  11.959  0.00  0.00    +0.000 A 
ATOM     17  C   UNL     1       7.028   3.552  11.758  0.00  0.00    +0.000 A 
ATOM     18  C   UNL     1       7.593   4.437  12.675  0.00  0.00    +0.000 A 
ATOM     19  C   UNL     1       6.863   4.863  13.793  0.00  0.00    +0.000 A 
ENDBRANCH  12  14
ENDBRANCH   5  10
BRANCH   1  21
ATOM     20  C   UNL     1       6.056   6.729  17.611  0.00  0.00    +0.000 C 
ATOM     21  N   UNL     1       4.793   7.035  17.623  0.00  0.00    +0.000 NA
BRANCH  20  23
ATOM     22  C   UNL     1       8.238   7.576  18.422  0.00  0.00    +0.000 C 
ATOM     23  C   UNL     1       7.114   7.784  17.426  0.00  0.00    +0.000 C 
ENDBRANCH  20  23
ENDBRANCH   1  21
BRANCH   2  24
ATOM     24  C   UNL     1       2.337   7.169  19.612  0.00  0.00    +0.000 C 
ATOM     25  N   UNL     1       1.886   8.071  20.194  0.00  0.00    +0.000 NA
ENDBRANCH   2  24
TORSDOF 5
ENDMDL
MODEL 2
REMARK VINA RESULT:      -6.9      2.651      6.248
REMARK  Name = 
REMARK  6 active torsions:
REMARK  status: ('A' for Active; 'I' for Inactive)
REMARK    1  A    between atoms: C_1  and  C_2
REMARK    2  A    between atoms: C_2  and  C_3
REMARK    3  A    between atoms: N_4  and  C_5
REMARK    4  A    between atoms: C_6  and  C_7
REMARK    5  A    between atoms: C_11  and  C_12
REMARK    6  A    between atoms: N_14  and  C_15
REMARK                            x       y       z     vdW  Elec       q    Type
REMARK                         _______ _______ _______ _____ _____    ______ ____
ROOT
ATOM      1  C   UNL     1       3.919   5.936  17.420  0.00  0.00    +0.000 A 
ATOM      2  C   UNL     1       4.070   4.527  17.264  0.00  0.00    +0.000 A 
ATOM      3  C   UNL     1       3.024   3.923  17.925  0.00  0.00    +0.000 A 
ATOM      4  N   UNL     1       2.340   4.911  18.598  0.00  0.00    +0.000 N 
ATOM      5  C   UNL     1       2.880   6.172  18.319  0.00  0.00    +0.000 A 
ATOM      6  C   UNL     1       1.189   4.632  19.453  0.00  0.00    +0.000 C 
ATOM      7  C   UNL     1       0.980   3.144  19.750  0.00  0.00    +0.000 C 
ATOM      8  C   UNL     1       1.214   2.297  18.507  0.00  0.00    +0.000 C 
ATOM      9  C   UNL     1       2.648   2.477  18.023  0.00  0.00    +0.000 C 
ENDROOT
BRANCH   5  10
ATOM     10  C   UNL     1       2.378   7.401  18.936  0.00  0.00    +0.000 C 
ATOM     11  O   UNL     1       2.322   7.513  20.161  0.00  0.00    +0.000 OA
ATOM     12  N   UNL     1       1.942   8.398  18.079  0.00  0.00    +0.000 N 
ATOM     13  H   UNL     1       1.876   8.142  17.097  0.00  0.00    +0.000 HD
BRANCH  12  14
ATOM     14  C   UNL     1       1.486   9.682  18.471  0.00  0.00    +0.000 A 
ATOM     15  C   UNL     1       2.197  10.861  18.211  0.00  0.00    +0.000 A 
ATOM     16  C   UNL     1       1.721  12.106  18.637  0.00  0.00    +0.000 A 
ATOM     17  C   UNL     1       0.523  12.190  19.336  0.00  0.00    +0.000 A 
ATOM     18  C   UNL     1      -0.208  11.030  19.586  0.00  0.00    +0.000 A 
ATOM     19  C   UNL     1       0.262   9.785  19.143  0.00  0.00    +0.000 A 
ENDBRANCH  12  14
ENDBRANCH   5  10
BRANCH   1  21
ATOM     20  C   UNL     1       5.970   6.903  17.381  0.00  0.00    +0.000 C 
ATOM     21  N   UNL     1       4.765   6.934  16.893  0.00  0.00    +0.000 NA
BRANCH  20  23
ATOM     22  C   UNL     1       8.100   7.946  18.094  0.00  0.00    +0.000 C 
ATOM     23  C   UNL     1       6.955   8.006  17.101  0.00  0.00    +0.000 C 
ENDBRANCH  20  23
ENDBRANCH   1  21
BRANCH   2  24
ATOM     24  C   UNL     1       5.085   3.805  16.560  0.00  0.00    +0.000 C 
ATOM     25  N   UNL     1       5.927   3.251  15.977  0.00  0.00    +0.000 NA
ENDBRANCH   2  24
TORSDOF 5
ENDMDL
MODEL 3
REMARK VINA RESULT:      -6.9      2.759      6.179
REMARK  Name = 
REMARK  6 active torsions:
REMARK  status: ('A' for Active; 'I' for Inactive)
REMARK    1  A    between atoms: C_1  and  C_2
REMARK    2  A    between atoms: C_2  and  C_3
REMARK    3  A    between atoms: N_4  and  C_5
REMARK    4  A    between atoms: C_6  and  C_7
REMARK    5  A    between atoms: C_11  and  C_12
REMARK    6  A    between atoms: N_14  and  C_15
REMARK                            x       y       z     vdW  Elec       q    Type
REMARK                         _______ _______ _______ _____ _____    ______ ____
ROOT
ATOM      1  C   UNL     1       4.776   6.403  17.324  0.00  0.00    +0.000 A 
ATOM      2  C   UNL     1       5.181   5.051  17.124  0.00  0.00    +0.000 A 
ATOM      3  C   UNL     1       4.127   4.245  17.493  0.00  0.00    +0.000 A 
ATOM      4  N   UNL     1       3.164   5.058  18.049  0.00  0.00    +0.000 N 
ATOM      5  C   UNL     1       3.543   6.403  17.974  0.00  0.00    +0.000 A 
ATOM      6  C   UNL     1       1.915   4.539  18.601  0.00  0.00    +0.000 C 
ATOM      7  C   UNL     1       1.889   3.015  18.754  0.00  0.00    +0.000 C 
ATOM      8  C   UNL     1       2.519   2.330  17.550  0.00  0.00    +0.000 C 
ATOM      9  C   UNL     1       3.975   2.758  17.417  0.00  0.00    +0.000 C 
ENDROOT
BRANCH   5  10
ATOM     10  C   UNL     1       2.729   7.486  18.532  0.00  0.00    +0.000 C 
ATOM     11  O   UNL     1       2.434   7.500  19.728  0.00  0.00    +0.000 OA
ATOM     12  N   UNL     1       2.286   8.454  17.647  0.00  0.00    +0.000 N 
ATOM     13  H   UNL     1       2.446   8.261  16.661  0.00  0.00    +0.000 HD
BRANCH  12  14
ATOM     14  C   UNL     1       1.548   9.614  17.995  0.00  0.00    +0.000 A 
ATOM     15  C   UNL     1       2.150  10.836  18.324  0.00  0.00    +0.000 A 
ATOM     16  C   UNL     1       1.383  11.950  18.684  0.00  0.00    +0.000 A 
ATOM     17  C   UNL     1      -0.003  11.856  18.724  0.00  0.00    +0.000 A 
ATOM     18  C   UNL     1      -0.620  10.654  18.381  0.00  0.00    +0.000 A 
ATOM     19  C   UNL     1       0.150   9.545  18.003  0.00  0.00    +0.000 A 
ENDBRANCH  12  14
ENDBRANCH   5  10
BRANCH   1  21
ATOM     20  C   UNL     1       6.766   7.476  17.503  0.00  0.00    +0.000 C 
ATOM     21  N   UNL     1       5.545   7.556  17.063  0.00  0.00    +0.000 NA
BRANCH  20  23
ATOM     22  C   UNL     1       8.610   8.616  18.700  0.00  0.00    +0.000 C 
ATOM     23  C   UNL     1       7.677   8.674  17.506  0.00  0.00    +0.000 C 
ENDBRANCH  20  23
ENDBRANCH   1  21
BRANCH   2  24
ATOM     24  C   UNL     1       6.426   4.550  16.629  0.00  0.00    +0.000 C 
ATOM     25  N   UNL     1       7.455   4.176  16.234  0.00  0.00    +0.000 NA
ENDBRANCH   2  24
TORSDOF 5
ENDMDL
MODEL 4
REMARK VINA RESULT:      -6.9      2.728      6.512
REMARK  Name = 
REMARK  6 active torsions:
REMARK  status: ('A' for Active; 'I' for Inactive)
REMARK    1  A    between atoms: C_1  and  C_2
REMARK    2  A    between atoms: C_2  and  C_3
REMARK    3  A    between atoms: N_4  and  C_5
REMARK    4  A    between atoms: C_6  and  C_7
REMARK    5  A    between atoms: C_11  and  C_12
REMARK    6  A    between atoms: N_14  and  C_15
REMARK                            x       y       z     vdW  Elec       q    Type
REMARK                         _______ _______ _______ _____ _____    ______ ____
ROOT
ATOM      1  C   UNL     1       4.925   6.451  17.191  0.00  0.00    +0.000 A 
ATOM      2  C   UNL     1       5.348   5.091  17.140  0.00  0.00    +0.000 A 
ATOM      3  C   UNL     1       4.260   4.307  17.452  0.00  0.00    +0.000 A 
ATOM      4  N   UNL     1       3.243   5.153  17.838  0.00  0.00    +0.000 N 
ATOM      5  C   UNL     1       3.629   6.491  17.703  0.00  0.00    +0.000 A 
ATOM      6  C   UNL     1       1.942   4.667  18.290  0.00  0.00    +0.000 C 
ATOM      7  C   UNL     1       1.898   3.160  18.555  0.00  0.00    +0.000 C 
ATOM      8  C   UNL     1       2.653   2.390  17.482  0.00  0.00    +0.000 C 
ATOM      9  C   UNL     1       4.116   2.817  17.474  0.00  0.00    +0.000 C 
ENDROOT
BRANCH   5  10
ATOM     10  C   UNL     1       2.760   7.607  18.086  0.00  0.00    +0.000 C 
ATOM     11  O   UNL     1       2.450   8.472  17.267  0.00  0.00    +0.000 OA
ATOM     12  N   UNL     1       2.347   7.651  19.407  0.00  0.00    +0.000 N 
ATOM     13  H   UNL     1       2.791   6.985  20.034  0.00  0.00    +0.000 HD
BRANCH  12  14
ATOM     14  C   UNL     1       1.455   8.604  19.960  0.00  0.00    +0.000 A 
ATOM     15  C   UNL     1       1.090   9.786  19.300  0.00  0.00    +0.000 A 
ATOM     16  C   UNL     1       0.223  10.711  19.894  0.00  0.00    +0.000 A 
ATOM     17  C   UNL     1      -0.292  10.468  21.162  0.00  0.00    +0.000 A 
ATOM     18  C   UNL     1       0.044   9.288  21.824  0.00  0.00    +0.000 A 
ATOM     19  C   UNL     1       0.899   8.355  21.220  0.00  0.00    +0.000 A 
ENDBRANCH  12  14
ENDBRANCH   5  10
BRANCH   1  21
ATOM     20  C   UNL     1       6.871   7.565  17.529  0.00  0.00    +0.000 C 
ATOM     21  N   UNL     1       5.719   7.587  16.927  0.00  0.00    +0.000 NA
BRANCH  20  23
ATOM     22  C   UNL     1       8.669   8.741  18.762  0.00  0.00    +0.000 C 
ATOM     23  C   UNL     1       7.770   8.772  17.541  0.00  0.00    +0.000 C 
ENDBRANCH  20  23
ENDBRANCH   1  21
BRANCH   2  24
ATOM     24  C   UNL     1       6.639   4.563  16.820  0.00  0.00    +0.000 C 
ATOM     25  N   UNL     1       7.704   4.168  16.565  0.00  0.00    +0.000 NA
ENDBRANCH   2  24
TORSDOF 5
ENDMDL
MODEL 5
REMARK VINA RESULT:      -6.7      2.724      6.090
REMARK  Name = 
REMARK  6 active torsions:
REMARK  status: ('A' for Active; 'I' for Inactive)
REMARK    1  A    between atoms: C_1  and  C_2
REMARK    2  A    between atoms: C_2  and  C_3
REMARK    3  A    between atoms: N_4  and  C_5
REMARK    4  A    between atoms: C_6  and  C_7
REMARK    5  A    between atoms: C_11  and  C_12
REMARK    6  A    between atoms: N_14  and  C_15
REMARK                            x       y       z     vdW  Elec       q    Type
REMARK                         _______ _______ _______ _____ _____    ______ ____
ROOT
ATOM      1  C   UNL     1       4.567   6.265  17.244  0.00  0.00    +0.000 A 
ATOM      2  C   UNL     1       4.925   4.899  17.052  0.00  0.00    +0.000 A 
ATOM      3  C   UNL     1       3.878   4.129  17.505  0.00  0.00    +0.000 A 
ATOM      4  N   UNL     1       2.972   4.979  18.101  0.00  0.00    +0.000 N 
ATOM      5  C   UNL     1       3.379   6.312  17.970  0.00  0.00    +0.000 A 
ATOM      6  C   UNL     1       1.749   4.506  18.743  0.00  0.00    +0.000 C 
ATOM      7  C   UNL     1       1.694   2.988  18.934  0.00  0.00    +0.000 C 
ATOM      8  C   UNL     1       2.229   2.258  17.709  0.00  0.00    +0.000 C 
ATOM      9  C   UNL     1       3.684   2.645  17.475  0.00  0.00    +0.000 C 
ENDROOT
BRANCH   5  10
ATOM     10  C   UNL     1       2.629   7.428  18.552  0.00  0.00    +0.000 C 
ATOM     11  O   UNL     1       2.378   7.457  19.757  0.00  0.00    +0.000 OA
ATOM     12  N   UNL     1       2.195   8.411  17.679  0.00  0.00    +0.000 N 
ATOM     13  H   UNL     1       2.311   8.210  16.690  0.00  0.00    +0.000 HD
BRANCH  12  14
ATOM     14  C   UNL     1       1.517   9.601  18.048  0.00  0.00    +0.000 A 
ATOM     15  C   UNL     1       0.127   9.671  18.213  0.00  0.00    +0.000 A 
ATOM     16  C   UNL     1      -0.504  10.873  18.556  0.00  0.00    +0.000 A 
ATOM     17  C   UNL     1       0.249  12.027  18.737  0.00  0.00    +0.000 A 
ATOM     18  C   UNL     1       1.635  11.971  18.597  0.00  0.00    +0.000 A 
ATOM     19  C   UNL     1       2.267  10.762  18.271  0.00  0.00    +0.000 A 
ENDBRANCH  12  14
ENDBRANCH   5  10
BRANCH   1  21
ATOM     20  C   UNL     1       6.513   7.406  17.482  0.00  0.00    +0.000 C 
ATOM     21  N   UNL     1       5.347   7.391  16.907  0.00  0.00    +0.000 NA
BRANCH  20  23
ATOM     22  C   UNL     1       8.492   8.524  18.466  0.00  0.00    +0.000 C 
ATOM     23  C   UNL     1       7.403   8.618  17.415  0.00  0.00    +0.000 C 
ENDBRANCH  20  23
ENDBRANCH   1  21
BRANCH   2  24
ATOM     24  C   UNL     1       6.123   4.354  16.490  0.00  0.00    +0.000 C 
ATOM     25  N   UNL     1       7.085   3.875  16.040  0.00  0.00    +0.000 NA
ENDBRANCH   2  24
TORSDOF 5
ENDMDL
MODEL 6
REMARK VINA RESULT:      -6.5      2.462      7.370
REMARK  Name = 
REMARK  6 active torsions:
REMARK  status: ('A' for Active; 'I' for Inactive)
REMARK    1  A    between atoms: C_1  and  C_2
REMARK    2  A    between atoms: C_2  and  C_3
REMARK    3  A    between atoms: N_4  and  C_5
REMARK    4  A    between atoms: C_6  and  C_7
REMARK    5  A    between atoms: C_11  and  C_12
REMARK    6  A    between atoms: N_14  and  C_15
REMARK                            x       y       z     vdW  Elec       q    Type
REMARK                         _______ _______ _______ _____ _____    ______ ____
ROOT
ATOM      1  C   UNL     1       3.169   4.652  18.617  0.00  0.00    +0.000 A 
ATOM      2  C   UNL     1       3.856   3.672  17.843  0.00  0.00    +0.000 A 
ATOM      3  C   UNL     1       4.628   4.340  16.920  0.00  0.00    +0.000 A 
ATOM      4  N   UNL     1       4.312   5.678  17.013  0.00  0.00    +0.000 N 
ATOM      5  C   UNL     1       3.396   5.903  18.047  0.00  0.00    +0.000 A 
ATOM      6  C   UNL     1       4.905   6.692  16.145  0.00  0.00    +0.000 C 
ATOM      7  C   UNL     1       5.689   6.117  14.962  0.00  0.00    +0.000 C 
ATOM      8  C   UNL     1       6.519   4.912  15.385  0.00  0.00    +0.000 C 
ATOM      9  C   UNL     1       5.603   3.815  15.912  0.00  0.00    +0.000 C 
ENDROOT
BRANCH   5  10
ATOM     10  C   UNL     1       2.848   7.229  18.342  0.00  0.00    +0.000 C 
ATOM     11  O   UNL     1       3.034   8.173  17.574  0.00  0.00    +0.000 OA
ATOM     12  N   UNL     1       2.153   7.367  19.532  0.00  0.00    +0.000 N 
ATOM     13  H   UNL     1       2.198   6.574  20.168  0.00  0.00    +0.000 HD
BRANCH  12  14
ATOM     14  C   UNL     1       1.490   8.542  19.969  0.00  0.00    +0.000 A 
ATOM     15  C   UNL     1       1.057   9.548  19.094  0.00  0.00    +0.000 A 
ATOM     16  C   UNL     1       0.427  10.703  19.571  0.00  0.00    +0.000 A 
ATOM     17  C   UNL     1       0.223  10.871  20.936  0.00  0.00    +0.000 A 
ATOM     18  C   UNL     1       0.630   9.872  21.819  0.00  0.00    +0.000 A 
ATOM     19  C   UNL     1       1.245   8.708  21.337  0.00  0.00    +0.000 A 
ENDBRANCH  12  14
ENDBRANCH   5  10
BRANCH   1  21
ATOM     20  C   UNL     1       2.874   4.091  20.795  0.00  0.00    +0.000 C 
ATOM     21  N   UNL     1       2.279   4.406  19.683  0.00  0.00    +0.000 NA
BRANCH  20  23
ATOM     22  C   UNL     1       1.253   2.397  21.592  0.00  0.00    +0.000 C 
ATOM     23  C   UNL     1       2.098   3.593  21.984  0.00  0.00    +0.000 C 
ENDBRANCH  20  23
ENDBRANCH   1  21
BRANCH   2  24
ATOM     24  C   UNL     1       3.809   2.246  17.953  0.00  0.00    +0.000 C 
ATOM     25  N   UNL     1       3.734   1.087  18.037  0.00  0.00    +0.000 NA
ENDBRANCH   2  24
TORSDOF 5
ENDMDL
MODEL 7
REMARK VINA RESULT:      -6.5      3.089      6.313
REMARK  Name = 
REMARK  6 active torsions:
REMARK  status: ('A' for Active; 'I' for Inactive)
REMARK    1  A    between atoms: C_1  and  C_2
REMARK    2  A    between atoms: C_2  and  C_3
REMARK    3  A    between atoms: N_4  and  C_5
REMARK    4  A    between atoms: C_6  and  C_7
REMARK    5  A    between atoms: C_11  and  C_12
REMARK    6  A    between atoms: N_14  and  C_15
REMARK                            x       y       z     vdW  Elec       q    Type
REMARK                         _______ _______ _______ _____ _____    ______ ____
ROOT
ATOM      1  C   UNL     1       5.314   6.435  17.498  0.00  0.00    +0.000 A 
ATOM      2  C   UNL     1       5.773   5.121  17.809  0.00  0.00    +0.000 A 
ATOM      3  C   UNL     1       4.681   4.386  18.212  0.00  0.00    +0.000 A 
ATOM      4  N   UNL     1       3.613   5.253  18.300  0.00  0.00    +0.000 N 
ATOM      5  C   UNL     1       3.978   6.537  17.879  0.00  0.00    +0.000 A 
ATOM      6  C   UNL     1       2.289   4.832  18.749  0.00  0.00    +0.000 C 
ATOM      7  C   UNL     1       2.257   3.430  19.363  0.00  0.00    +0.000 C 
ATOM      8  C   UNL     1       3.124   2.461  18.571  0.00  0.00    +0.000 C 
ATOM      9  C   UNL     1       4.570   2.939  18.579  0.00  0.00    +0.000 C 
ENDROOT
BRANCH   5  10
ATOM     10  C   UNL     1       3.052   7.672  17.911  0.00  0.00    +0.000 C 
ATOM     11  O   UNL     1       2.945   8.425  16.943  0.00  0.00    +0.000 OA
ATOM     12  N   UNL     1       2.344   7.867  19.086  0.00  0.00    +0.000 N 
ATOM     13  H   UNL     1       2.627   7.292  19.875  0.00  0.00    +0.000 HD
BRANCH  12  14
ATOM     14  C   UNL     1       1.355   8.861  19.297  0.00  0.00    +0.000 A 
ATOM     15  C   UNL     1       0.947   9.279  20.571  0.00  0.00    +0.000 A 
ATOM     16  C   UNL     1      -0.051  10.247  20.733  0.00  0.00    +0.000 A 
ATOM     17  C   UNL     1      -0.660  10.812  19.618  0.00  0.00    +0.000 A 
ATOM     18  C   UNL     1      -0.252  10.423  18.343  0.00  0.00    +0.000 A 
ATOM     19  C   UNL     1       0.760   9.466  18.183  0.00  0.00    +0.000 A 
ENDBRANCH  12  14
ENDBRANCH   5  10
BRANCH   1  21
ATOM     20  C   UNL     1       7.155   7.734  17.763  0.00  0.00    +0.000 C 
ATOM     21  N   UNL     1       6.101   7.510  17.035  0.00  0.00    +0.000 NA
BRANCH  20  23
ATOM     22  C   UNL     1       8.774   9.280  18.821  0.00  0.00    +0.000 C 
ATOM     23  C   UNL     1       8.003   8.959  17.555  0.00  0.00    +0.000 C 
ENDBRANCH  20  23
ENDBRANCH   1  21
BRANCH   2  24
ATOM     24  C   UNL     1       7.100   4.591  17.731  0.00  0.00    +0.000 C 
ATOM     25  N   UNL     1       8.169   4.141  17.635  0.00  0.00    +0.000 NA
ENDBRANCH   2  24
TORSDOF 5
ENDMDL
MODEL 8
REMARK VINA RESULT:      -6.4      2.451      7.245
REMARK  Name = 
REMARK  6 active torsions:
REMARK  status: ('A' for Active; 'I' for Inactive)
REMARK    1  A    between atoms: C_1  and  C_2
REMARK    2  A    between atoms: C_2  and  C_3
REMARK    3  A    between atoms: N_4  and  C_5
REMARK    4  A    between atoms: C_6  and  C_7
REMARK    5  A    between atoms: C_11  and  C_12
REMARK    6  A    between atoms: N_14  and  C_15
REMARK                            x       y       z     vdW  Elec       q    Type
REMARK                         _______ _______ _______ _____ _____    ______ ____
ROOT
ATOM      1  C   UNL     1       3.215   4.688  18.477  0.00  0.00    +0.000 A 
ATOM      2  C   UNL     1       3.923   3.666  17.781  0.00  0.00    +0.000 A 
ATOM      3  C   UNL     1       4.736   4.283  16.857  0.00  0.00    +0.000 A 
ATOM      4  N   UNL     1       4.427   5.625  16.869  0.00  0.00    +0.000 N 
ATOM      5  C   UNL     1       3.473   5.908  17.854  0.00  0.00    +0.000 A 
ATOM      6  C   UNL     1       5.062   6.590  15.975  0.00  0.00    +0.000 C 
ATOM      7  C   UNL     1       5.887   5.951  14.855  0.00  0.00    +0.000 C 
ATOM      8  C   UNL     1       6.690   4.764  15.370  0.00  0.00    +0.000 C 
ATOM      9  C   UNL     1       5.745   3.701  15.916  0.00  0.00    +0.000 C 
ENDROOT
BRANCH   5  10
ATOM     10  C   UNL     1       2.925   7.251  18.060  0.00  0.00    +0.000 C 
ATOM     11  O   UNL     1       3.132   8.147  17.242  0.00  0.00    +0.000 OA
ATOM     12  N   UNL     1       2.205   7.459  19.225  0.00  0.00    +0.000 N 
ATOM     13  H   UNL     1       2.233   6.704  19.905  0.00  0.00    +0.000 HD
BRANCH  12  14
ATOM     14  C   UNL     1       1.538   8.659  19.578  0.00  0.00    +0.000 A 
ATOM     15  C   UNL     1       1.169   8.973  20.893  0.00  0.00    +0.000 A 
ATOM     16  C   UNL     1       0.491  10.160  21.193  0.00  0.00    +0.000 A 
ATOM     17  C   UNL     1       0.168  11.052  20.179  0.00  0.00    +0.000 A 
ATOM     18  C   UNL     1       0.545  10.766  18.867  0.00  0.00    +0.000 A 
ATOM     19  C   UNL     1       1.240   9.585  18.571  0.00  0.00    +0.000 A 
ENDBRANCH  12  14
ENDBRANCH   5  10
BRANCH   1  21
ATOM     20  C   UNL     1       2.830   4.239  20.666  0.00  0.00    +0.000 C 
ATOM     21  N   UNL     1       2.281   4.502  19.518  0.00  0.00    +0.000 NA
BRANCH  20  23
ATOM     22  C   UNL     1       1.338   2.475  21.560  0.00  0.00    +0.000 C 
ATOM     23  C   UNL     1       2.004   3.807  21.848  0.00  0.00    +0.000 C 
ENDBRANCH  20  23
ENDBRANCH   1  21
BRANCH   2  24
ATOM     24  C   UNL     1       3.861   2.248  17.960  0.00  0.00    +0.000 C 
ATOM     25  N   UNL     1       3.793   1.100  18.140  0.00  0.00    +0.000 NA
ENDBRANCH   2  24
TORSDOF 5
ENDMDL
MODEL 9
REMARK VINA RESULT:      -6.2      3.795      7.662
REMARK  Name = 
REMARK  6 active torsions:
REMARK  status: ('A' for Active; 'I' for Inactive)
REMARK    1  A    between atoms: C_1  and  C_2
REMARK    2  A    between atoms: C_2  and  C_3
REMARK    3  A    between atoms: N_4  and  C_5
REMARK    4  A    between atoms: C_6  and  C_7
REMARK    5  A    between atoms: C_11  and  C_12
REMARK    6  A    between atoms: N_14  and  C_15
REMARK                            x       y       z     vdW  Elec       q    Type
REMARK                         _______ _______ _______ _____ _____    ______ ____
ROOT
ATOM      1  C   UNL     1       1.869   6.906  20.220  0.00  0.00    +0.000 A 
ATOM      2  C   UNL     1       2.513   5.635  20.261  0.00  0.00    +0.000 A 
ATOM      3  C   UNL     1       3.449   5.613  19.251  0.00  0.00    +0.000 A 
ATOM      4  N   UNL     1       3.281   6.764  18.512  0.00  0.00    +0.000 N 
ATOM      5  C   UNL     1       2.296   7.581  19.078  0.00  0.00    +0.000 A 
ATOM      6  C   UNL     1       4.074   7.061  17.322  0.00  0.00    +0.000 C 
ATOM      7  C   UNL     1       4.904   5.877  16.817  0.00  0.00    +0.000 C 
ATOM      8  C   UNL     1       5.541   5.118  17.972  0.00  0.00    +0.000 C 
ATOM      9  C   UNL     1       4.455   4.566  18.887  0.00  0.00    +0.000 C 
ENDROOT
BRANCH   5  10
ATOM     10  C   UNL     1       1.877   8.848  18.474  0.00  0.00    +0.000 C 
ATOM     11  O   UNL     1       2.015   9.046  17.267  0.00  0.00    +0.000 OA
ATOM     12  N   UNL     1       1.361   9.808  19.330  0.00  0.00    +0.000 N 
ATOM     13  H   UNL     1       1.443   9.607  20.323  0.00  0.00    +0.000 HD
BRANCH  12  14
ATOM     14  C   UNL     1       0.839  11.066  18.938  0.00  0.00    +0.000 A 
ATOM     15  C   UNL     1       1.625  12.221  18.825  0.00  0.00    +0.000 A 
ATOM     16  C   UNL     1       1.063  13.449  18.457  0.00  0.00    +0.000 A 
ATOM     17  C   UNL     1      -0.300  13.541  18.198  0.00  0.00    +0.000 A 
ATOM     18  C   UNL     1      -1.093  12.398  18.286  0.00  0.00    +0.000 A 
ATOM     19  C   UNL     1      -0.525  11.165  18.637  0.00  0.00    +0.000 A 
ENDBRANCH  12  14
ENDBRANCH   5  10
BRANCH   1  21
ATOM     20  C   UNL     1       1.160   8.445  21.728  0.00  0.00    +0.000 C 
ATOM     21  N   UNL     1       0.850   7.358  21.085  0.00  0.00    +0.000 NA
BRANCH  20  23
ATOM     22  C   UNL     1      -0.277  10.321  22.471  0.00  0.00    +0.000 C 
ATOM     23  C   UNL     1       0.296   8.967  22.844  0.00  0.00    +0.000 C 
ENDBRANCH  20  23
ENDBRANCH   1  21
BRANCH   2  24
ATOM     24  C   UNL     1       2.291   4.543  21.159  0.00  0.00    +0.000 C 
ATOM     25  N   UNL     1       2.128   3.631  21.864  0.00  0.00    +0.000 NA
ENDBRANCH   2  24
TORSDOF 5
ENDMDL
