MODEL 1
REMARK VINA RESULT:      -7.9      0.000      0.000
REMARK  Name = 
REMARK  5 active torsions:
REMARK  status: ('A' for Active; 'I' for Inactive)
REMARK    1  A    between atoms: C_1  and  C_2
REMARK    2  A    between atoms: C_4  and  C_5
REMARK    3  A    between atoms: C_13  and  C_14
REMARK    4  A    between atoms: N_16  and  C_17
REMARK    5  A    between atoms: C_17  and  C_18
REMARK                            x       y       z     vdW  Elec       q    Type
REMARK                         _______ _______ _______ _____ _____    ______ ____
ROOT
ATOM      1  C   UNL     1       1.173   8.351  21.415  0.00  0.00    +0.000 C 
ATOM      2  C   UNL     1       1.609   8.293  20.000  0.00  0.00    +0.000 A 
ATOM      3  O   UNL     1       2.331   7.189  19.649  0.00  0.00    +0.000 OA
ATOM      4  C   UNL     1       2.647   7.300  18.326  0.00  0.00    +0.000 A 
ATOM      5  C   UNL     1       2.156   8.494  17.848  0.00  0.00    +0.000 A 
ATOM      6  C   UNL     1       1.449   9.136  18.909  0.00  0.00    +0.000 A 
ENDROOT
BRANCH   4   7
ATOM      7  C   UNL     1       3.402   6.193  17.740  0.00  0.00    +0.000 A 
ATOM      8  C   UNL     1       4.636   6.464  17.121  0.00  0.00    +0.000 A 
ATOM      9  C   UNL     1       5.394   5.444  16.537  0.00  0.00    +0.000 A 
ATOM     10  C   UNL     1       4.934   4.132  16.558  0.00  0.00    +0.000 A 
ATOM     11  C   UNL     1       3.712   3.842  17.162  0.00  0.00    +0.000 A 
ATOM     12  C   UNL     1       2.949   4.859  17.750  0.00  0.00    +0.000 A 
ATOM     13 CL   UNL     1       1.472   4.355  18.502  0.00  0.00    +0.000 Cl
ENDBRANCH   4   7
BRANCH   6  14
ATOM     14  C   UNL     1       0.734  10.410  18.894  0.00  0.00    +0.000 C 
ATOM     15  O   UNL     1       1.298  11.488  18.746  0.00  0.00    +0.000 OA
ATOM     16  N   UNL     1      -0.629  10.291  19.045  0.00  0.00    +0.000 N 
ATOM     17  H   UNL     1      -1.028   9.415  19.343  0.00  0.00    +0.000 HD
BRANCH  16  18
ATOM     18  C   UNL     1      -1.522  11.424  19.041  0.00  0.00    +0.000 C 
BRANCH  18  19
ATOM     19  C   UNL     1      -2.504  11.282  17.926  0.00  0.00    +0.000 A 
ATOM     20  C   UNL     1      -2.230  10.810  16.658  0.00  0.00    +0.000 A 
ATOM     21  S   UNL     1      -3.659  10.787  15.718  0.00  0.00    +0.000 S 
ATOM     22  C   UNL     1      -4.535  11.430  17.046  0.00  0.00    +0.000 A 
ATOM     23  N   UNL     1      -5.852  11.674  16.955  0.00  0.00    +0.000 N 
ATOM     24  N   UNL     1      -3.837  11.640  18.135  0.00  0.00    +0.000 NA
ATOM     25  H   UNL     1      -6.373  11.208  16.223  0.00  0.00    +0.000 HD
ATOM     26  H   UNL     1      -6.351  11.779  17.829  0.00  0.00    +0.000 HD
ENDBRANCH  18  19
ENDBRANCH  16  18
ENDBRANCH   6  14
TORSDOF 4
ENDMDL
MODEL 2
REMARK VINA RESULT:      -7.8      1.027      1.141
REMARK  Name = 
REMARK  5 active torsions:
REMARK  status: ('A' for Active; 'I' for Inactive)
REMARK    1  A    between atoms: C_1  and  C_2
REMARK    2  A    between atoms: C_4  and  C_5
REMARK    3  A    between atoms: C_13  and  C_14
REMARK    4  A    between atoms: N_16  and  C_17
REMARK    5  A    between atoms: C_17  and  C_18
REMARK                            x       y       z     vdW  Elec       q    Type
REMARK                         _______ _______ _______ _____ _____    ______ ____
ROOT
ATOM      1  C   UNL     1       1.167   8.402  21.455  0.00  0.00    +0.000 C 
ATOM      2  C   UNL     1       1.606   8.378  20.040  0.00  0.00    +0.000 A 
ATOM      3  O   UNL     1       2.324   7.281  19.663  0.00  0.00    +0.000 OA
ATOM      4  C   UNL     1       2.643   7.423  18.344  0.00  0.00    +0.000 A 
ATOM      5  C   UNL     1       2.158   8.631  17.895  0.00  0.00    +0.000 A 
ATOM      6  C   UNL     1       1.451   9.249  18.970  0.00  0.00    +0.000 A 
ENDROOT
BRANCH   4   7
ATOM      7  C   UNL     1       3.395   6.329  17.732  0.00  0.00    +0.000 A 
ATOM      8  C   UNL     1       4.575   6.625  17.024  0.00  0.00    +0.000 A 
ATOM      9  C   UNL     1       5.328   5.618  16.413  0.00  0.00    +0.000 A 
ATOM     10  C   UNL     1       4.916   4.292  16.494  0.00  0.00    +0.000 A 
ATOM     11  C   UNL     1       3.748   3.976  17.186  0.00  0.00    +0.000 A 
ATOM     12  C   UNL     1       2.991   4.981  17.802  0.00  0.00    +0.000 A 
ATOM     13 CL   UNL     1       1.586   4.446  18.663  0.00  0.00    +0.000 Cl
ENDBRANCH   4   7
BRANCH   6  14
ATOM     14  C   UNL     1       0.740  10.525  18.985  0.00  0.00    +0.000 C 
ATOM     15  O   UNL     1       1.299  11.600  18.799  0.00  0.00    +0.000 OA
ATOM     16  N   UNL     1      -0.613  10.413  19.211  0.00  0.00    +0.000 N 
ATOM     17  H   UNL     1      -0.998   9.540  19.536  0.00  0.00    +0.000 HD
BRANCH  16  18
ATOM     18  C   UNL     1      -1.500  11.549  19.248  0.00  0.00    +0.000 C 
BRANCH  18  19
ATOM     19  C   UNL     1      -2.546  11.401  18.193  0.00  0.00    +0.000 A 
ATOM     20  C   UNL     1      -3.898  11.633  18.352  0.00  0.00    +0.000 A 
ATOM     21  S   UNL     1      -4.716  11.374  16.872  0.00  0.00    +0.000 S 
ATOM     22  C   UNL     1      -3.228  10.945  16.132  0.00  0.00    +0.000 A 
ATOM     23  N   UNL     1      -3.173  10.598  14.837  0.00  0.00    +0.000 N 
ATOM     24  N   UNL     1      -2.174  11.001  16.909  0.00  0.00    +0.000 NA
ATOM     25  H   UNL     1      -3.940  10.875  14.237  0.00  0.00    +0.000 HD
ATOM     26  H   UNL     1      -2.260  10.633  14.401  0.00  0.00    +0.000 HD
ENDBRANCH  18  19
ENDBRANCH  16  18
ENDBRANCH   6  14
TORSDOF 4
ENDMDL
MODEL 3
REMARK VINA RESULT:      -7.8      1.529      1.893
REMARK  Name = 
REMARK  5 active torsions:
REMARK  status: ('A' for Active; 'I' for Inactive)
REMARK    1  A    between atoms: C_1  and  C_2
REMARK    2  A    between atoms: C_4  and  C_5
REMARK    3  A    between atoms: C_13  and  C_14
REMARK    4  A    between atoms: N_16  and  C_17
REMARK    5  A    between atoms: C_17  and  C_18
REMARK                            x       y       z     vdW  Elec       q    Type
REMARK                         _______ _______ _______ _____ _____    ______ ____
ROOT
ATOM      1  C   UNL     1       1.267   8.529  21.444  0.00  0.00    +0.000 C 
ATOM      2  C   UNL     1       1.629   8.288  20.028  0.00  0.00    +0.000 A 
ATOM      3  O   UNL     1       2.186   7.071  19.759  0.00  0.00    +0.000 OA
ATOM      4  C   UNL     1       2.454   7.021  18.422  0.00  0.00    +0.000 A 
ATOM      5  C   UNL     1       2.101   8.223  17.849  0.00  0.00    +0.000 A 
ATOM      6  C   UNL     1       1.531   9.045  18.868  0.00  0.00    +0.000 A 
ENDROOT
BRANCH   4   7
ATOM      7  C   UNL     1       3.034   5.777  17.918  0.00  0.00    +0.000 A 
ATOM      8  C   UNL     1       2.258   4.604  17.944  0.00  0.00    +0.000 A 
ATOM      9  C   UNL     1       2.766   3.386  17.483  0.00  0.00    +0.000 A 
ATOM     10  C   UNL     1       4.064   3.314  16.988  0.00  0.00    +0.000 A 
ATOM     11  C   UNL     1       4.853   4.462  16.957  0.00  0.00    +0.000 A 
ATOM     12  C   UNL     1       4.347   5.686  17.416  0.00  0.00    +0.000 A 
ATOM     13 CL   UNL     1       5.418   7.041  17.283  0.00  0.00    +0.000 Cl
ENDBRANCH   4   7
BRANCH   6  14
ATOM     14  C   UNL     1       0.985  10.395  18.756  0.00  0.00    +0.000 C 
ATOM     15  O   UNL     1       1.689  11.386  18.596  0.00  0.00    +0.000 OA
ATOM     16  N   UNL     1      -0.388  10.455  18.830  0.00  0.00    +0.000 N 
ATOM     17  H   UNL     1      -0.910   9.651  19.141  0.00  0.00    +0.000 HD
BRANCH  16  18
ATOM     18  C   UNL     1      -1.128  11.689  18.726  0.00  0.00    +0.000 C 
BRANCH  18  19
ATOM     19  C   UNL     1      -2.330  11.479  17.866  0.00  0.00    +0.000 A 
ATOM     20  C   UNL     1      -3.638  11.741  18.222  0.00  0.00    +0.000 A 
ATOM     21  S   UNL     1      -4.685  11.387  16.917  0.00  0.00    +0.000 S 
ATOM     22  C   UNL     1      -3.336  10.883  15.981  0.00  0.00    +0.000 A 
ATOM     23  N   UNL     1      -3.492  10.443  14.723  0.00  0.00    +0.000 N 
ATOM     24  N   UNL     1      -2.170  10.981  16.572  0.00  0.00    +0.000 NA
ATOM     25  H   UNL     1      -4.344  10.685  14.235  0.00  0.00    +0.000 HD
ATOM     26  H   UNL     1      -2.661  10.432  14.145  0.00  0.00    +0.000 HD
ENDBRANCH  18  19
ENDBRANCH  16  18
ENDBRANCH   6  14
TORSDOF 4
ENDMDL
MODEL 4
REMARK VINA RESULT:      -7.8      5.306      8.526
REMARK  Name = 
REMARK  5 active torsions:
REMARK  status: ('A' for Active; 'I' for Inactive)
REMARK    1  A    between atoms: C_1  and  C_2
REMARK    2  A    between atoms: C_4  and  C_5
REMARK    3  A    between atoms: C_13  and  C_14
REMARK    4  A    between atoms: N_16  and  C_17
REMARK    5  A    between atoms: C_17  and  C_18
REMARK                            x       y       z     vdW  Elec       q    Type
REMARK                         _______ _______ _______ _____ _____    ______ ____
ROOT
ATOM      1  C   UNL     1       1.409   3.690  20.756  0.00  0.00    +0.000 C 
ATOM      2  C   UNL     1       1.990   5.000  20.380  0.00  0.00    +0.000 A 
ATOM      3  O   UNL     1       1.217   6.090  20.655  0.00  0.00    +0.000 OA
ATOM      4  C   UNL     1       1.899   7.200  20.247  0.00  0.00    +0.000 A 
ATOM      5  C   UNL     1       3.090   6.808  19.677  0.00  0.00    +0.000 A 
ATOM      6  C   UNL     1       3.183   5.388  19.786  0.00  0.00    +0.000 A 
ENDROOT
BRANCH   4   7
ATOM      7  C   UNL     1       1.250   8.488  20.482  0.00  0.00    +0.000 A 
ATOM      8  C   UNL     1       0.877   8.836  21.794  0.00  0.00    +0.000 A 
ATOM      9  C   UNL     1       0.246  10.051  22.072  0.00  0.00    +0.000 A 
ATOM     10  C   UNL     1      -0.029  10.947  21.043  0.00  0.00    +0.000 A 
ATOM     11  C   UNL     1       0.327  10.622  19.736  0.00  0.00    +0.000 A 
ATOM     12  C   UNL     1       0.961   9.406  19.452  0.00  0.00    +0.000 A 
ATOM     13 CL   UNL     1       1.385   9.146  17.792  0.00  0.00    +0.000 Cl
ENDBRANCH   4   7
BRANCH   6  14
ATOM     14  C   UNL     1       4.264   4.505  19.352  0.00  0.00    +0.000 C 
ATOM     15  O   UNL     1       4.250   3.295  19.541  0.00  0.00    +0.000 OA
ATOM     16  N   UNL     1       5.289   5.151  18.699  0.00  0.00    +0.000 N 
ATOM     17  H   UNL     1       5.348   6.157  18.726  0.00  0.00    +0.000 HD
BRANCH  16  18
ATOM     18  C   UNL     1       6.443   4.464  18.175  0.00  0.00    +0.000 C 
BRANCH  18  19
ATOM     19  C   UNL     1       6.392   4.467  16.683  0.00  0.00    +0.000 A 
ATOM     20  C   UNL     1       5.415   3.879  15.903  0.00  0.00    +0.000 A 
ATOM     21  S   UNL     1       5.737   4.160  14.247  0.00  0.00    +0.000 S 
ATOM     22  C   UNL     1       7.162   5.016  14.677  0.00  0.00    +0.000 A 
ATOM     23  N   UNL     1       7.956   5.554  13.737  0.00  0.00    +0.000 N 
ATOM     24  N   UNL     1       7.395   5.116  15.962  0.00  0.00    +0.000 NA
ATOM     25  H   UNL     1       7.566   5.712  12.817  0.00  0.00    +0.000 HD
ATOM     26  H   UNL     1       8.603   6.266  14.052  0.00  0.00    +0.000 HD
ENDBRANCH  18  19
ENDBRANCH  16  18
ENDBRANCH   6  14
TORSDOF 4
ENDMDL
MODEL 5
REMARK VINA RESULT:      -7.7      1.122      1.522
REMARK  Name = 
REMARK  5 active torsions:
REMARK  status: ('A' for Active; 'I' for Inactive)
REMARK    1  A    between atoms: C_1  and  C_2
REMARK    2  A    between atoms: C_4  and  C_5
REMARK    3  A    between atoms: C_13  and  C_14
REMARK    4  A    between atoms: N_16  and  C_17
REMARK    5  A    between atoms: C_17  and  C_18
REMARK                            x       y       z     vdW  Elec       q    Type
REMARK                         _______ _______ _______ _____ _____    ______ ____
ROOT
ATOM      1  C   UNL     1       1.281   8.579  21.478  0.00  0.00    +0.000 C 
ATOM      2  C   UNL     1       1.599   8.326  20.054  0.00  0.00    +0.000 A 
ATOM      3  O   UNL     1       2.181   7.122  19.783  0.00  0.00    +0.000 OA
ATOM      4  C   UNL     1       2.404   7.058  18.438  0.00  0.00    +0.000 A 
ATOM      5  C   UNL     1       1.996   8.240  17.861  0.00  0.00    +0.000 A 
ATOM      6  C   UNL     1       1.438   9.061  18.887  0.00  0.00    +0.000 A 
ENDROOT
BRANCH   4   7
ATOM      7  C   UNL     1       3.001   5.823  17.933  0.00  0.00    +0.000 A 
ATOM      8  C   UNL     1       2.237   4.642  17.945  0.00  0.00    +0.000 A 
ATOM      9  C   UNL     1       2.763   3.432  17.482  0.00  0.00    +0.000 A 
ATOM     10  C   UNL     1       4.066   3.377  16.997  0.00  0.00    +0.000 A 
ATOM     11  C   UNL     1       4.842   4.533  16.979  0.00  0.00    +0.000 A 
ATOM     12  C   UNL     1       4.320   5.749  17.441  0.00  0.00    +0.000 A 
ATOM     13 CL   UNL     1       5.377   7.117  17.325  0.00  0.00    +0.000 Cl
ENDBRANCH   4   7
BRANCH   6  14
ATOM     14  C   UNL     1       0.851  10.394  18.775  0.00  0.00    +0.000 C 
ATOM     15  O   UNL     1       1.525  11.412  18.677  0.00  0.00    +0.000 OA
ATOM     16  N   UNL     1      -0.526  10.404  18.773  0.00  0.00    +0.000 N 
ATOM     17  H   UNL     1      -1.035   9.574  19.035  0.00  0.00    +0.000 HD
BRANCH  16  18
ATOM     18  C   UNL     1      -1.303  11.612  18.654  0.00  0.00    +0.000 C 
BRANCH  18  19
ATOM     19  C   UNL     1      -2.415  11.397  17.681  0.00  0.00    +0.000 A 
ATOM     20  C   UNL     1      -2.288  10.899  16.400  0.00  0.00    +0.000 A 
ATOM     21  S   UNL     1      -3.825  10.789  15.658  0.00  0.00    +0.000 S 
ATOM     22  C   UNL     1      -4.548  11.436  17.074  0.00  0.00    +0.000 A 
ATOM     23  N   UNL     1      -5.875  11.623  17.150  0.00  0.00    +0.000 N 
ATOM     24  N   UNL     1      -3.724  11.707  18.056  0.00  0.00    +0.000 NA
ATOM     25  H   UNL     1      -6.466  11.114  16.505  0.00  0.00    +0.000 HD
ATOM     26  H   UNL     1      -6.260  11.734  18.080  0.00  0.00    +0.000 HD
ENDBRANCH  18  19
ENDBRANCH  16  18
ENDBRANCH   6  14
TORSDOF 4
ENDMDL
MODEL 6
REMARK VINA RESULT:      -7.6      7.033      9.121
REMARK  Name = 
REMARK  5 active torsions:
REMARK  status: ('A' for Active; 'I' for Inactive)
REMARK    1  A    between atoms: C_1  and  C_2
REMARK    2  A    between atoms: C_4  and  C_5
REMARK    3  A    between atoms: C_13  and  C_14
REMARK    4  A    between atoms: N_16  and  C_17
REMARK    5  A    between atoms: C_17  and  C_18
REMARK                            x       y       z     vdW  Elec       q    Type
REMARK                         _______ _______ _______ _____ _____    ______ ____
ROOT
ATOM      1  C   UNL     1       7.800   5.822  19.099  0.00  0.00    +0.000 C 
ATOM      2  C   UNL     1       6.530   5.266  18.578  0.00  0.00    +0.000 A 
ATOM      3  O   UNL     1       5.622   4.882  19.522  0.00  0.00    +0.000 OA
ATOM      4  C   UNL     1       4.523   4.398  18.871  0.00  0.00    +0.000 A 
ATOM      5  C   UNL     1       4.752   4.441  17.514  0.00  0.00    +0.000 A 
ATOM      6  C   UNL     1       6.034   5.033  17.302  0.00  0.00    +0.000 A 
ENDROOT
BRANCH   4   7
ATOM      7  C   UNL     1       3.410   3.957  19.710  0.00  0.00    +0.000 A 
ATOM      8  C   UNL     1       2.225   4.717  19.725  0.00  0.00    +0.000 A 
ATOM      9  C   UNL     1       1.134   4.345  20.516  0.00  0.00    +0.000 A 
ATOM     10  C   UNL     1       1.204   3.205  21.310  0.00  0.00    +0.000 A 
ATOM     11  C   UNL     1       2.368   2.440  21.314  0.00  0.00    +0.000 A 
ATOM     12  C   UNL     1       3.464   2.808  20.522  0.00  0.00    +0.000 A 
ATOM     13 CL   UNL     1       4.833   1.747  20.590  0.00  0.00    +0.000 Cl
ENDBRANCH   4   7
BRANCH   6  14
ATOM     14  C   UNL     1       6.715   5.316  16.041  0.00  0.00    +0.000 C 
ATOM     15  O   UNL     1       7.547   6.207  15.920  0.00  0.00    +0.000 OA
ATOM     16  N   UNL     1       6.350   4.484  15.006  0.00  0.00    +0.000 N 
ATOM     17  H   UNL     1       5.540   3.891  15.099  0.00  0.00    +0.000 HD
BRANCH  16  18
ATOM     18  C   UNL     1       6.915   4.582  13.683  0.00  0.00    +0.000 C 
BRANCH  18  19
ATOM     19  C   UNL     1       6.148   3.708  12.747  0.00  0.00    +0.000 A 
ATOM     20  C   UNL     1       4.890   3.967  12.240  0.00  0.00    +0.000 A 
ATOM     21  S   UNL     1       4.414   2.713  11.179  0.00  0.00    +0.000 S 
ATOM     22  C   UNL     1       5.895   1.900  11.487  0.00  0.00    +0.000 A 
ATOM     23  N   UNL     1       6.177   0.728  10.896  0.00  0.00    +0.000 N 
ATOM     24  N   UNL     1       6.715   2.511  12.307  0.00  0.00    +0.000 NA
ATOM     25  H   UNL     1       5.663   0.480  10.061  0.00  0.00    +0.000 HD
ATOM     26  H   UNL     1       7.150   0.450  10.894  0.00  0.00    +0.000 HD
ENDBRANCH  18  19
ENDBRANCH  16  18
ENDBRANCH   6  14
TORSDOF 4
ENDMDL
MODEL 7
REMARK VINA RESULT:      -7.5      7.326      8.847
REMARK  Name = 
REMARK  5 active torsions:
REMARK  status: ('A' for Active; 'I' for Inactive)
REMARK    1  A    between atoms: C_1  and  C_2
REMARK    2  A    between atoms: C_4  and  C_5
REMARK    3  A    between atoms: C_13  and  C_14
REMARK    4  A    between atoms: N_16  and  C_17
REMARK    5  A    between atoms: C_17  and  C_18
REMARK                            x       y       z     vdW  Elec       q    Type
REMARK                         _______ _______ _______ _____ _____    ______ ____
ROOT
ATOM      1  C   UNL     1       7.701   5.446  19.039  0.00  0.00    +0.000 C 
ATOM      2  C   UNL     1       6.413   4.988  18.470  0.00  0.00    +0.000 A 
ATOM      3  O   UNL     1       5.476   4.586  19.377  0.00  0.00    +0.000 OA
ATOM      4  C   UNL     1       4.364   4.199  18.686  0.00  0.00    +0.000 A 
ATOM      5  C   UNL     1       4.611   4.322  17.337  0.00  0.00    +0.000 A 
ATOM      6  C   UNL     1       5.922   4.865  17.177  0.00  0.00    +0.000 A 
ENDROOT
BRANCH   4   7
ATOM      7  C   UNL     1       3.221   3.756  19.482  0.00  0.00    +0.000 A 
ATOM      8  C   UNL     1       3.445   3.260  20.780  0.00  0.00    +0.000 A 
ATOM      9  C   UNL     1       2.389   2.815  21.580  0.00  0.00    +0.000 A 
ATOM     10  C   UNL     1       1.084   2.855  21.099  0.00  0.00    +0.000 A 
ATOM     11  C   UNL     1       0.839   3.339  19.816  0.00  0.00    +0.000 A 
ATOM     12  C   UNL     1       1.894   3.787  19.010  0.00  0.00    +0.000 A 
ATOM     13 CL   UNL     1       1.445   4.401  17.453  0.00  0.00    +0.000 Cl
ENDBRANCH   4   7
BRANCH   6  14
ATOM     14  C   UNL     1       6.631   5.200  15.944  0.00  0.00    +0.000 C 
ATOM     15  O   UNL     1       7.485   6.077  15.885  0.00  0.00    +0.000 OA
ATOM     16  N   UNL     1       6.265   4.434  14.860  0.00  0.00    +0.000 N 
ATOM     17  H   UNL     1       5.441   3.856  14.907  0.00  0.00    +0.000 HD
BRANCH  16  18
ATOM     18  C   UNL     1       6.855   4.590  13.553  0.00  0.00    +0.000 C 
BRANCH  18  19
ATOM     19  C   UNL     1       6.219   3.632  12.601  0.00  0.00    +0.000 A 
ATOM     20  C   UNL     1       6.796   2.482  12.099  0.00  0.00    +0.000 A 
ATOM     21  S   UNL     1       5.695   1.672  11.071  0.00  0.00    +0.000 S 
ATOM     22  C   UNL     1       4.542   2.916  11.339  0.00  0.00    +0.000 A 
ATOM     23  N   UNL     1       3.332   2.875  10.758  0.00  0.00    +0.000 N 
ATOM     24  N   UNL     1       4.920   3.872  12.151  0.00  0.00    +0.000 NA
ATOM     25  H   UNL     1       2.999   1.984  10.413  0.00  0.00    +0.000 HD
ATOM     26  H   UNL     1       2.618   3.465  11.165  0.00  0.00    +0.000 HD
ENDBRANCH  18  19
ENDBRANCH  16  18
ENDBRANCH   6  14
TORSDOF 4
ENDMDL
MODEL 8
REMARK VINA RESULT:      -7.4      5.306      8.517
REMARK  Name = 
REMARK  5 active torsions:
REMARK  status: ('A' for Active; 'I' for Inactive)
REMARK    1  A    between atoms: C_1  and  C_2
REMARK    2  A    between atoms: C_4  and  C_5
REMARK    3  A    between atoms: C_13  and  C_14
REMARK    4  A    between atoms: N_16  and  C_17
REMARK    5  A    between atoms: C_17  and  C_18
REMARK                            x       y       z     vdW  Elec       q    Type
REMARK                         _______ _______ _______ _____ _____    ______ ____
ROOT
ATOM      1  C   UNL     1       2.326   4.181  20.895  0.00  0.00    +0.000 C 
ATOM      2  C   UNL     1       2.616   5.354  20.039  0.00  0.00    +0.000 A 
ATOM      3  O   UNL     1       1.771   6.416  20.185  0.00  0.00    +0.000 OA
ATOM      4  C   UNL     1       2.181   7.397  19.329  0.00  0.00    +0.000 A 
ATOM      5  C   UNL     1       3.265   6.941  18.613  0.00  0.00    +0.000 A 
ATOM      6  C   UNL     1       3.585   5.632  19.084  0.00  0.00    +0.000 A 
ENDROOT
BRANCH   4   7
ATOM      7  C   UNL     1       1.418   8.644  19.352  0.00  0.00    +0.000 A 
ATOM      8  C   UNL     1       1.057   9.244  18.131  0.00  0.00    +0.000 A 
ATOM      9  C   UNL     1       0.335  10.441  18.095  0.00  0.00    +0.000 A 
ATOM     10  C   UNL     1      -0.041  11.065  19.281  0.00  0.00    +0.000 A 
ATOM     11  C   UNL     1       0.309  10.491  20.501  0.00  0.00    +0.000 A 
ATOM     12  C   UNL     1       1.032   9.291  20.542  0.00  0.00    +0.000 A 
ATOM     13 CL   UNL     1       1.365   8.666  22.123  0.00  0.00    +0.000 Cl
ENDBRANCH   4   7
BRANCH   6  14
ATOM     14  C   UNL     1       4.663   4.743  18.656  0.00  0.00    +0.000 C 
ATOM     15  O   UNL     1       4.605   3.525  18.772  0.00  0.00    +0.000 OA
ATOM     16  N   UNL     1       5.740   5.394  18.099  0.00  0.00    +0.000 N 
ATOM     17  H   UNL     1       5.825   6.394  18.189  0.00  0.00    +0.000 HD
BRANCH  16  18
ATOM     18  C   UNL     1       6.902   4.702  17.598  0.00  0.00    +0.000 C 
BRANCH  18  19
ATOM     19  C   UNL     1       6.791   4.548  16.117  0.00  0.00    +0.000 A 
ATOM     20  C   UNL     1       5.935   3.693  15.452  0.00  0.00    +0.000 A 
ATOM     21  S   UNL     1       6.122   3.873  13.761  0.00  0.00    +0.000 S 
ATOM     22  C   UNL     1       7.344   5.049  14.028  0.00  0.00    +0.000 A 
ATOM     23  N   UNL     1       7.964   5.649  13.000  0.00  0.00    +0.000 N 
ATOM     24  N   UNL     1       7.601   5.322  15.284  0.00  0.00    +0.000 NA
ATOM     25  H   UNL     1       7.513   5.630  12.094  0.00  0.00    +0.000 HD
ATOM     26  H   UNL     1       8.454   6.510  13.211  0.00  0.00    +0.000 HD
ENDBRANCH  18  19
ENDBRANCH  16  18
ENDBRANCH   6  14
TORSDOF 4
ENDMDL
MODEL 9
REMARK VINA RESULT:      -7.4      6.913      8.550
REMARK  Name = 
REMARK  5 active torsions:
REMARK  status: ('A' for Active; 'I' for Inactive)
REMARK    1  A    between atoms: C_1  and  C_2
REMARK    2  A    between atoms: C_4  and  C_5
REMARK    3  A    between atoms: C_13  and  C_14
REMARK    4  A    between atoms: N_16  and  C_17
REMARK    5  A    between atoms: C_17  and  C_18
REMARK                            x       y       z     vdW  Elec       q    Type
REMARK                         _______ _______ _______ _____ _____    ______ ____
ROOT
ATOM      1  C   UNL     1       8.211   5.385  20.076  0.00  0.00    +0.000 C 
ATOM      2  C   UNL     1       6.931   5.518  19.344  0.00  0.00    +0.000 A 
ATOM      3  O   UNL     1       5.879   4.819  19.862  0.00  0.00    +0.000 OA
ATOM      4  C   UNL     1       4.791   5.053  19.071  0.00  0.00    +0.000 A 
ATOM      5  C   UNL     1       5.165   5.872  18.029  0.00  0.00    +0.000 A 
ATOM      6  C   UNL     1       6.539   6.214  18.208  0.00  0.00    +0.000 A 
ENDROOT
BRANCH   4   7
ATOM      7  C   UNL     1       3.541   4.413  19.475  0.00  0.00    +0.000 A 
ATOM      8  C   UNL     1       3.438   3.011  19.403  0.00  0.00    +0.000 A 
ATOM      9  C   UNL     1       2.262   2.349  19.767  0.00  0.00    +0.000 A 
ATOM     10  C   UNL     1       1.162   3.075  20.211  0.00  0.00    +0.000 A 
ATOM     11  C   UNL     1       1.239   4.464  20.287  0.00  0.00    +0.000 A 
ATOM     12  C   UNL     1       2.415   5.132  19.923  0.00  0.00    +0.000 A 
ATOM     13 CL   UNL     1       2.390   6.855  20.104  0.00  0.00    +0.000 Cl
ENDBRANCH   4   7
BRANCH   6  14
ATOM     14  C   UNL     1       7.384   7.073  17.382  0.00  0.00    +0.000 C 
ATOM     15  O   UNL     1       7.752   6.761  16.256  0.00  0.00    +0.000 OA
ATOM     16  N   UNL     1       7.717   8.270  17.975  0.00  0.00    +0.000 N 
ATOM     17  H   UNL     1       7.549   8.408  18.959  0.00  0.00    +0.000 HD
BRANCH  16  18
ATOM     18  C   UNL     1       8.529   9.270  17.326  0.00  0.00    +0.000 C 
BRANCH  18  19
ATOM     19  C   UNL     1       8.892  10.334  18.307  0.00  0.00    +0.000 A 
ATOM     20  C   UNL     1       9.177  11.652  18.008  0.00  0.00    +0.000 A 
ATOM     21  S   UNL     1       9.505  12.522  19.443  0.00  0.00    +0.000 S 
ATOM     22  C   UNL     1       9.276  11.087  20.358  0.00  0.00    +0.000 A 
ATOM     23  N   UNL     1       9.401  11.091  21.694  0.00  0.00    +0.000 N 
ATOM     24  N   UNL     1       8.956  10.021  19.666  0.00  0.00    +0.000 NA
ATOM     25  H   UNL     1       9.335  11.978  22.177  0.00  0.00    +0.000 HD
ATOM     26  H   UNL     1       8.987  10.309  22.186  0.00  0.00    +0.000 HD
ENDBRANCH  18  19
ENDBRANCH  16  18
ENDBRANCH   6  14
TORSDOF 4
ENDMDL
