MODEL 1
REMARK VINA RESULT:      -7.2      0.000      0.000
REMARK  Name = 
REMARK  6 active torsions:
REMARK  status: ('A' for Active; 'I' for Inactive)
REMARK    1  A    between atoms: C_2  and  C_16
REMARK    2  A    between atoms: N_3  and  C_4
REMARK    3  A    between atoms: C_4  and  C_5
REMARK    4  A    between atoms: C_5  and  O_6
REMARK    5  A    between atoms: O_6  and  C_7
REMARK    6  A    between atoms: C_7  and  C_8
REMARK                            x       y       z     vdW  Elec       q    Type
REMARK                         _______ _______ _______ _____ _____    ______ ____
ROOT
ATOM      1  C   UNL     1       4.681   2.692  19.640  0.00  0.00    +0.000 C 
ENDROOT
BRANCH   1   4
ATOM      2  O   UNL     1       5.145   5.451  19.757  0.00  0.00    +0.000 OA
ATOM      3  C   UNL     1       5.803   4.785  18.962  0.00  0.00    +0.000 C 
ATOM      4  N   UNL     1       5.630   3.427  18.822  0.00  0.00    +0.000 N 
ATOM      5  H   UNL     1       6.203   2.909  18.169  0.00  0.00    +0.000 HD
BRANCH   3   6
ATOM      6  C   UNL     1       6.849   5.386  18.022  0.00  0.00    +0.000 C 
ATOM      7  C   UNL     1       6.433   6.767  17.495  0.00  0.00    +0.000 C 
ATOM      8  C   UNL     1       5.370   6.671  16.401  0.00  0.00    +0.000 C 
ATOM      9  N   UNL     1       5.790   5.796  15.309  0.00  0.00    +0.000 NA
ATOM     10  C   UNL     1       6.057   4.442  15.799  0.00  0.00    +0.000 C 
ATOM     11  C   UNL     1       7.166   4.444  16.852  0.00  0.00    +0.000 C 
ATOM     12  H   UNL     1       6.636   6.167  14.877  0.00  0.00    +0.000 HD
ENDBRANCH   3   6
ENDBRANCH   1   4
BRANCH   1  13
ATOM     13  C   UNL     1       3.720   1.853  18.798  0.00  0.00    +0.000 C 
BRANCH  13  14
ATOM     14  O   UNL     1       3.225   2.645  17.719  0.00  0.00    +0.000 OA
BRANCH  14  15
ATOM     15  C   UNL     1       1.897   3.109  17.975  0.00  0.00    +0.000 C 
BRANCH  15  16
ATOM     16  C   UNL     1       1.908   4.446  18.688  0.00  0.00    +0.000 A 
ATOM     17  C   UNL     1       2.261   5.626  18.011  0.00  0.00    +0.000 A 
ATOM     18  C   UNL     1       2.236   6.862  18.658  0.00  0.00    +0.000 A 
ATOM     19  C   UNL     1       1.861   6.933  19.995  0.00  0.00    +0.000 A 
ATOM     20 CL   UNL     1       1.803   8.463  20.784  0.00  0.00    +0.000 Cl
ATOM     21  C   UNL     1       1.526   5.780  20.696  0.00  0.00    +0.000 A 
ATOM     22  C   UNL     1       1.553   4.544  20.046  0.00  0.00    +0.000 A 
ATOM     23 CL   UNL     1       1.129   3.145  20.972  0.00  0.00    +0.000 Cl
ENDBRANCH  15  16
ENDBRANCH  14  15
ENDBRANCH  13  14
ENDBRANCH   1  13
TORSDOF 6
ENDMDL
MODEL 2
REMARK VINA RESULT:      -6.7      1.516      2.128
REMARK  Name = 
REMARK  6 active torsions:
REMARK  status: ('A' for Active; 'I' for Inactive)
REMARK    1  A    between atoms: C_2  and  C_16
REMARK    2  A    between atoms: N_3  and  C_4
REMARK    3  A    between atoms: C_4  and  C_5
REMARK    4  A    between atoms: C_5  and  O_6
REMARK    5  A    between atoms: O_6  and  C_7
REMARK    6  A    between atoms: C_7  and  C_8
REMARK                            x       y       z     vdW  Elec       q    Type
REMARK                         _______ _______ _______ _____ _____    ______ ____
ROOT
ATOM      1  C   UNL     1       4.414   2.273  19.783  0.00  0.00    +0.000 C 
ENDROOT
BRANCH   1   4
ATOM      2  O   UNL     1       4.436   3.349  17.198  0.00  0.00    +0.000 OA
ATOM      3  C   UNL     1       4.988   3.981  18.095  0.00  0.00    +0.000 C 
ATOM      4  N   UNL     1       5.044   3.522  19.391  0.00  0.00    +0.000 N 
ATOM      5  H   UNL     1       5.492   4.079  20.106  0.00  0.00    +0.000 HD
BRANCH   3   6
ATOM      6  C   UNL     1       5.699   5.316  17.869  0.00  0.00    +0.000 C 
ATOM      7  C   UNL     1       5.205   6.032  16.605  0.00  0.00    +0.000 C 
ATOM      8  C   UNL     1       5.772   5.409  15.329  0.00  0.00    +0.000 C 
ATOM      9  N   UNL     1       7.231   5.341  15.359  0.00  0.00    +0.000 NA
ATOM     10  C   UNL     1       7.692   4.541  16.496  0.00  0.00    +0.000 C 
ATOM     11  C   UNL     1       7.224   5.143  17.821  0.00  0.00    +0.000 C 
ATOM     12  H   UNL     1       7.618   6.280  15.434  0.00  0.00    +0.000 HD
ENDBRANCH   3   6
ENDBRANCH   1   4
BRANCH   1  13
ATOM     13  C   UNL     1       3.485   2.447  20.985  0.00  0.00    +0.000 C 
BRANCH  13  14
ATOM     14  O   UNL     1       2.131   2.292  20.560  0.00  0.00    +0.000 OA
BRANCH  14  15
ATOM     15  C   UNL     1       1.321   3.392  20.979  0.00  0.00    +0.000 C 
BRANCH  15  16
ATOM     16  C   UNL     1       1.613   4.635  20.164  0.00  0.00    +0.000 A 
ATOM     17  C   UNL     1       1.923   5.855  20.788  0.00  0.00    +0.000 A 
ATOM     18  C   UNL     1       2.229   6.991  20.037  0.00  0.00    +0.000 A 
ATOM     19  C   UNL     1       2.221   6.922  18.648  0.00  0.00    +0.000 A 
ATOM     20 CL   UNL     1       2.624   8.318  17.723  0.00  0.00    +0.000 Cl
ATOM     21  C   UNL     1       1.897   5.735  18.002  0.00  0.00    +0.000 A 
ATOM     22  C   UNL     1       1.591   4.599  18.757  0.00  0.00    +0.000 A 
ATOM     23 CL   UNL     1       1.193   3.151  17.897  0.00  0.00    +0.000 Cl
ENDBRANCH  15  16
ENDBRANCH  14  15
ENDBRANCH  13  14
ENDBRANCH   1  13
TORSDOF 6
ENDMDL
MODEL 3
REMARK VINA RESULT:      -6.4      1.058      1.587
REMARK  Name = 
REMARK  6 active torsions:
REMARK  status: ('A' for Active; 'I' for Inactive)
REMARK    1  A    between atoms: C_2  and  C_16
REMARK    2  A    between atoms: N_3  and  C_4
REMARK    3  A    between atoms: C_4  and  C_5
REMARK    4  A    between atoms: C_5  and  O_6
REMARK    5  A    between atoms: O_6  and  C_7
REMARK    6  A    between atoms: C_7  and  C_8
REMARK                            x       y       z     vdW  Elec       q    Type
REMARK                         _______ _______ _______ _____ _____    ______ ____
ROOT
ATOM      1  C   UNL     1       4.502   2.147  19.073  0.00  0.00    +0.000 C 
ENDROOT
BRANCH   1   4
ATOM      2  O   UNL     1       5.943   4.544  19.198  0.00  0.00    +0.000 OA
ATOM      3  C   UNL     1       5.219   4.352  18.225  0.00  0.00    +0.000 C 
ATOM      4  N   UNL     1       4.459   3.213  18.088  0.00  0.00    +0.000 N 
ATOM      5  H   UNL     1       3.888   3.081  17.263  0.00  0.00    +0.000 HD
BRANCH   3   6
ATOM      6  C   UNL     1       5.051   5.360  17.088  0.00  0.00    +0.000 C 
ATOM      7  C   UNL     1       5.452   4.775  15.727  0.00  0.00    +0.000 C 
ATOM      8  C   UNL     1       6.970   4.695  15.556  0.00  0.00    +0.000 C 
ATOM      9  N   UNL     1       7.611   5.988  15.782  0.00  0.00    +0.000 NA
ATOM     10  C   UNL     1       7.333   6.479  17.134  0.00  0.00    +0.000 C 
ATOM     11  C   UNL     1       5.831   6.655  17.360  0.00  0.00    +0.000 C 
ATOM     12  H   UNL     1       7.266   6.666  15.104  0.00  0.00    +0.000 HD
ENDBRANCH   3   6
ENDBRANCH   1   4
BRANCH   1  13
ATOM     13  C   UNL     1       3.393   1.116  18.858  0.00  0.00    +0.000 C 
BRANCH  13  14
ATOM     14  O   UNL     1       2.410   1.659  17.976  0.00  0.00    +0.000 OA
BRANCH  14  15
ATOM     15  C   UNL     1       1.285   2.169  18.695  0.00  0.00    +0.000 C 
BRANCH  15  16
ATOM     16  C   UNL     1       1.491   3.618  19.086  0.00  0.00    +0.000 A 
ATOM     17  C   UNL     1       1.622   4.620  18.109  0.00  0.00    +0.000 A 
ATOM     18  C   UNL     1       1.774   5.960  18.469  0.00  0.00    +0.000 A 
ATOM     19  C   UNL     1       1.805   6.315  19.813  0.00  0.00    +0.000 A 
ATOM     20 CL   UNL     1       1.966   7.972  20.255  0.00  0.00    +0.000 Cl
ATOM     21  C   UNL     1       1.699   5.343  20.802  0.00  0.00    +0.000 A 
ATOM     22  C   UNL     1       1.546   4.002  20.439  0.00  0.00    +0.000 A 
ATOM     23 CL   UNL     1       1.423   2.838  21.713  0.00  0.00    +0.000 Cl
ENDBRANCH  15  16
ENDBRANCH  14  15
ENDBRANCH  13  14
ENDBRANCH   1  13
TORSDOF 6
ENDMDL
MODEL 4
REMARK VINA RESULT:      -6.4      3.054      6.072
REMARK  Name = 
REMARK  6 active torsions:
REMARK  status: ('A' for Active; 'I' for Inactive)
REMARK    1  A    between atoms: C_2  and  C_16
REMARK    2  A    between atoms: N_3  and  C_4
REMARK    3  A    between atoms: C_4  and  C_5
REMARK    4  A    between atoms: C_5  and  O_6
REMARK    5  A    between atoms: O_6  and  C_7
REMARK    6  A    between atoms: C_7  and  C_8
REMARK                            x       y       z     vdW  Elec       q    Type
REMARK                         _______ _______ _______ _____ _____    ______ ____
ROOT
ATOM      1  C   UNL     1       2.343   6.220  18.067  0.00  0.00    +0.000 C 
ENDROOT
BRANCH   1   4
ATOM      2  O   UNL     1       1.648   3.732  16.986  0.00  0.00    +0.000 OA
ATOM      3  C   UNL     1       1.642   3.857  18.208  0.00  0.00    +0.000 C 
ATOM      4  N   UNL     1       1.951   5.046  18.827  0.00  0.00    +0.000 N 
ATOM      5  H   UNL     1       1.953   5.106  19.837  0.00  0.00    +0.000 HD
BRANCH   3   6
ATOM      6  C   UNL     1       1.259   2.729  19.167  0.00  0.00    +0.000 C 
ATOM      7  C   UNL     1       0.819   3.258  20.540  0.00  0.00    +0.000 C 
ATOM      8  C   UNL     1       2.005   3.707  21.394  0.00  0.00    +0.000 C 
ATOM      9  N   UNL     1       3.006   2.652  21.533  0.00  0.00    +0.000 NA
ATOM     10  C   UNL     1       3.520   2.245  20.223  0.00  0.00    +0.000 C 
ATOM     11  C   UNL     1       2.399   1.713  19.329  0.00  0.00    +0.000 C 
ATOM     12  H   UNL     1       2.591   1.842  21.993  0.00  0.00    +0.000 HD
ENDBRANCH   3   6
ENDBRANCH   1   4
BRANCH   1  13
ATOM     13  C   UNL     1       3.788   6.633  18.346  0.00  0.00    +0.000 C 
BRANCH  13  14
ATOM     14  O   UNL     1       4.341   5.772  19.341  0.00  0.00    +0.000 OA
BRANCH  14  15
ATOM     15  C   UNL     1       5.709   5.462  19.067  0.00  0.00    +0.000 C 
BRANCH  15  16
ATOM     16  C   UNL     1       5.900   5.036  17.625  0.00  0.00    +0.000 A 
ATOM     17  C   UNL     1       5.217   3.925  17.101  0.00  0.00    +0.000 A 
ATOM     18  C   UNL     1       5.364   3.556  15.763  0.00  0.00    +0.000 A 
ATOM     19  C   UNL     1       6.203   4.290  14.932  0.00  0.00    +0.000 A 
ATOM     20 CL   UNL     1       6.363   3.849  13.275  0.00  0.00    +0.000 Cl
ATOM     21  C   UNL     1       6.908   5.381  15.428  0.00  0.00    +0.000 A 
ATOM     22  C   UNL     1       6.759   5.749  16.768  0.00  0.00    +0.000 A 
ATOM     23 CL   UNL     1       7.664   7.114  17.328  0.00  0.00    +0.000 Cl
ENDBRANCH  15  16
ENDBRANCH  14  15
ENDBRANCH  13  14
ENDBRANCH   1  13
TORSDOF 6
ENDMDL
MODEL 5
REMARK VINA RESULT:      -6.2      2.361      3.726
REMARK  Name = 
REMARK  6 active torsions:
REMARK  status: ('A' for Active; 'I' for Inactive)
REMARK    1  A    between atoms: C_2  and  C_16
REMARK    2  A    between atoms: N_3  and  C_4
REMARK    3  A    between atoms: C_4  and  C_5
REMARK    4  A    between atoms: C_5  and  O_6
REMARK    5  A    between atoms: O_6  and  C_7
REMARK    6  A    between atoms: C_7  and  C_8
REMARK                            x       y       z     vdW  Elec       q    Type
REMARK                         _______ _______ _______ _____ _____    ______ ____
ROOT
ATOM      1  C   UNL     1       2.922   3.622  19.875  0.00  0.00    +0.000 C 
ENDROOT
BRANCH   1   4
ATOM      2  O   UNL     1       5.533   3.951  18.919  0.00  0.00    +0.000 OA
ATOM      3  C   UNL     1       4.601   4.157  18.146  0.00  0.00    +0.000 C 
ATOM      4  N   UNL     1       3.286   4.039  18.532  0.00  0.00    +0.000 N 
ATOM      5  H   UNL     1       2.545   4.200  17.862  0.00  0.00    +0.000 HD
BRANCH   3   6
ATOM      6  C   UNL     1       4.793   4.600  16.695  0.00  0.00    +0.000 C 
ATOM      7  C   UNL     1       6.048   3.985  16.060  0.00  0.00    +0.000 C 
ATOM      8  C   UNL     1       7.331   4.667  16.535  0.00  0.00    +0.000 C 
ATOM      9  N   UNL     1       7.289   6.112  16.323  0.00  0.00    +0.000 NA
ATOM     10  C   UNL     1       6.163   6.712  17.043  0.00  0.00    +0.000 C 
ATOM     11  C   UNL     1       4.830   6.130  16.570  0.00  0.00    +0.000 C 
ATOM     12  H   UNL     1       7.191   6.311  15.328  0.00  0.00    +0.000 HD
ENDBRANCH   3   6
ENDBRANCH   1   4
BRANCH   1  13
ATOM     13  C   UNL     1       2.381   4.780  20.713  0.00  0.00    +0.000 C 
BRANCH  13  14
ATOM     14  O   UNL     1       1.800   5.757  19.849  0.00  0.00    +0.000 OA
BRANCH  14  15
ATOM     15  C   UNL     1       2.493   7.005  19.927  0.00  0.00    +0.000 C 
BRANCH  15  16
ATOM     16  C   UNL     1       1.540   8.148  20.214  0.00  0.00    +0.000 A 
ATOM     17  C   UNL     1       0.890   8.255  21.456  0.00  0.00    +0.000 A 
ATOM     18  C   UNL     1       0.041   9.327  21.734  0.00  0.00    +0.000 A 
ATOM     19  C   UNL     1      -0.175  10.305  20.768  0.00  0.00    +0.000 A 
ATOM     20 CL   UNL     1      -1.202  11.641  21.122  0.00  0.00    +0.000 Cl
ATOM     21  C   UNL     1       0.437  10.213  19.523  0.00  0.00    +0.000 A 
ATOM     22  C   UNL     1       1.287   9.139  19.248  0.00  0.00    +0.000 A 
ATOM     23 CL   UNL     1       2.017   9.078  17.680  0.00  0.00    +0.000 Cl
ENDBRANCH  15  16
ENDBRANCH  14  15
ENDBRANCH  13  14
ENDBRANCH   1  13
TORSDOF 6
ENDMDL
MODEL 6
REMARK VINA RESULT:      -6.2      2.458      4.556
REMARK  Name = 
REMARK  6 active torsions:
REMARK  status: ('A' for Active; 'I' for Inactive)
REMARK    1  A    between atoms: C_2  and  C_16
REMARK    2  A    between atoms: N_3  and  C_4
REMARK    3  A    between atoms: C_4  and  C_5
REMARK    4  A    between atoms: C_5  and  O_6
REMARK    5  A    between atoms: O_6  and  C_7
REMARK    6  A    between atoms: C_7  and  C_8
REMARK                            x       y       z     vdW  Elec       q    Type
REMARK                         _______ _______ _______ _____ _____    ______ ____
ROOT
ATOM      1  C   UNL     1       4.925   4.548  17.222  0.00  0.00    +0.000 C 
ENDROOT
BRANCH   1   4
ATOM      2  O   UNL     1       5.286   3.358  19.731  0.00  0.00    +0.000 OA
ATOM      3  C   UNL     1       4.242   3.130  19.125  0.00  0.00    +0.000 C 
ATOM      4  N   UNL     1       3.986   3.656  17.879  0.00  0.00    +0.000 N 
ATOM      5  H   UNL     1       3.107   3.460  17.418  0.00  0.00    +0.000 HD
BRANCH   3   6
ATOM      6  C   UNL     1       3.138   2.218  19.662  0.00  0.00    +0.000 C 
ATOM      7  C   UNL     1       1.888   2.230  18.771  0.00  0.00    +0.000 C 
ATOM      8  C   UNL     1       1.058   3.500  18.957  0.00  0.00    +0.000 C 
ATOM      9  N   UNL     1       0.707   3.719  20.358  0.00  0.00    +0.000 NA
ATOM     10  C   UNL     1       1.911   3.841  21.184  0.00  0.00    +0.000 C 
ATOM     11  C   UNL     1       2.764   2.574  21.108  0.00  0.00    +0.000 C 
ATOM     12  H   UNL     1       0.147   2.939  20.699  0.00  0.00    +0.000 HD
ENDBRANCH   3   6
ENDBRANCH   1   4
BRANCH   1  13
ATOM     13  C   UNL     1       4.588   6.020  17.463  0.00  0.00    +0.000 C 
BRANCH  13  14
ATOM     14  O   UNL     1       3.179   6.157  17.646  0.00  0.00    +0.000 OA
BRANCH  14  15
ATOM     15  C   UNL     1       2.862   6.617  18.962  0.00  0.00    +0.000 C 
BRANCH  15  16
ATOM     16  C   UNL     1       2.213   7.986  18.927  0.00  0.00    +0.000 A 
ATOM     17  C   UNL     1       2.375   8.837  17.820  0.00  0.00    +0.000 A 
ATOM     18  C   UNL     1       1.746  10.082  17.771  0.00  0.00    +0.000 A 
ATOM     19  C   UNL     1       0.951  10.495  18.835  0.00  0.00    +0.000 A 
ATOM     20 CL   UNL     1       0.154  12.020  18.762  0.00  0.00    +0.000 Cl
ATOM     21  C   UNL     1       0.789   9.683  19.952  0.00  0.00    +0.000 A 
ATOM     22  C   UNL     1       1.420   8.437  19.998  0.00  0.00    +0.000 A 
ATOM     23 CL   UNL     1       1.183   7.474  21.416  0.00  0.00    +0.000 Cl
ENDBRANCH  15  16
ENDBRANCH  14  15
ENDBRANCH  13  14
ENDBRANCH   1  13
TORSDOF 6
ENDMDL
MODEL 7
REMARK VINA RESULT:      -6.1      5.001      6.596
REMARK  Name = 
REMARK  6 active torsions:
REMARK  status: ('A' for Active; 'I' for Inactive)
REMARK    1  A    between atoms: C_2  and  C_16
REMARK    2  A    between atoms: N_3  and  C_4
REMARK    3  A    between atoms: C_4  and  C_5
REMARK    4  A    between atoms: C_5  and  O_6
REMARK    5  A    between atoms: O_6  and  C_7
REMARK    6  A    between atoms: C_7  and  C_8
REMARK                            x       y       z     vdW  Elec       q    Type
REMARK                         _______ _______ _______ _____ _____    ______ ____
ROOT
ATOM      1  C   UNL     1       7.797   8.785  17.666  0.00  0.00    +0.000 C 
ENDROOT
BRANCH   1   4
ATOM      2  O   UNL     1       8.859  11.373  17.796  0.00  0.00    +0.000 OA
ATOM      3  C   UNL     1       9.204  10.559  18.650  0.00  0.00    +0.000 C 
ATOM      4  N   UNL     1       8.749   9.261  18.655  0.00  0.00    +0.000 N 
ATOM      5  H   UNL     1       9.041   8.625  19.385  0.00  0.00    +0.000 HD
BRANCH   3   6
ATOM      6  C   UNL     1      10.195  10.882  19.769  0.00  0.00    +0.000 C 
ATOM      7  C   UNL     1       9.508  11.502  20.994  0.00  0.00    +0.000 C 
ATOM      8  C   UNL     1       9.141  12.969  20.770  0.00  0.00    +0.000 C 
ATOM      9  N   UNL     1      10.296  13.763  20.357  0.00  0.00    +0.000 NA
ATOM     10  C   UNL     1      10.867  13.244  19.112  0.00  0.00    +0.000 C 
ATOM     11  C   UNL     1      11.328  11.795  19.276  0.00  0.00    +0.000 C 
ATOM     12  H   UNL     1      11.008  13.737  21.086  0.00  0.00    +0.000 HD
ENDBRANCH   3   6
ENDBRANCH   1   4
BRANCH   1  13
ATOM     13  C   UNL     1       7.577   7.275  17.756  0.00  0.00    +0.000 C 
BRANCH  13  14
ATOM     14  O   UNL     1       6.771   6.850  16.656  0.00  0.00    +0.000 OA
BRANCH  14  15
ATOM     15  C   UNL     1       5.395   7.180  16.856  0.00  0.00    +0.000 C 
BRANCH  15  16
ATOM     16  C   UNL     1       4.558   5.938  17.087  0.00  0.00    +0.000 A 
ATOM     17  C   UNL     1       5.016   4.671  16.686  0.00  0.00    +0.000 A 
ATOM     18  C   UNL     1       4.262   3.522  16.932  0.00  0.00    +0.000 A 
ATOM     19  C   UNL     1       3.034   3.628  17.578  0.00  0.00    +0.000 A 
ATOM     20 CL   UNL     1       2.118   2.207  17.904  0.00  0.00    +0.000 Cl
ATOM     21  C   UNL     1       2.546   4.870  17.966  0.00  0.00    +0.000 A 
ATOM     22  C   UNL     1       3.303   6.018  17.719  0.00  0.00    +0.000 A 
ATOM     23 CL   UNL     1       2.642   7.536  18.223  0.00  0.00    +0.000 Cl
ENDBRANCH  15  16
ENDBRANCH  14  15
ENDBRANCH  13  14
ENDBRANCH   1  13
TORSDOF 6
ENDMDL
MODEL 8
REMARK VINA RESULT:      -6.1      2.278      3.476
REMARK  Name = 
REMARK  6 active torsions:
REMARK  status: ('A' for Active; 'I' for Inactive)
REMARK    1  A    between atoms: C_2  and  C_16
REMARK    2  A    between atoms: N_3  and  C_4
REMARK    3  A    between atoms: C_4  and  C_5
REMARK    4  A    between atoms: C_5  and  O_6
REMARK    5  A    between atoms: O_6  and  C_7
REMARK    6  A    between atoms: C_7  and  C_8
REMARK                            x       y       z     vdW  Elec       q    Type
REMARK                         _______ _______ _______ _____ _____    ______ ____
ROOT
ATOM      1  C   UNL     1       2.506   3.448  18.172  0.00  0.00    +0.000 C 
ENDROOT
BRANCH   1   4
ATOM      2  O   UNL     1       5.222   3.542  18.844  0.00  0.00    +0.000 OA
ATOM      3  C   UNL     1       4.891   3.889  17.714  0.00  0.00    +0.000 C 
ATOM      4  N   UNL     1       3.579   3.894  17.301  0.00  0.00    +0.000 N 
ATOM      5  H   UNL     1       3.346   4.170  16.356  0.00  0.00    +0.000 HD
BRANCH   3   6
ATOM      6  C   UNL     1       5.884   4.384  16.661  0.00  0.00    +0.000 C 
ATOM      7  C   UNL     1       7.243   4.753  17.270  0.00  0.00    +0.000 C 
ATOM      8  C   UNL     1       7.205   6.096  18.000  0.00  0.00    +0.000 C 
ATOM      9  N   UNL     1       6.706   7.167  17.142  0.00  0.00    +0.000 NA
ATOM     10  C   UNL     1       5.351   6.870  16.671  0.00  0.00    +0.000 C 
ATOM     11  C   UNL     1       5.319   5.570  15.865  0.00  0.00    +0.000 C 
ATOM     12  H   UNL     1       7.322   7.278  16.337  0.00  0.00    +0.000 HD
ENDBRANCH   3   6
ENDBRANCH   1   4
BRANCH   1  13
ATOM     13  C   UNL     1       2.183   4.471  19.262  0.00  0.00    +0.000 C 
BRANCH  13  14
ATOM     14  O   UNL     1       2.150   5.777  18.687  0.00  0.00    +0.000 OA
BRANCH  14  15
ATOM     15  C   UNL     1       2.787   6.739  19.532  0.00  0.00    +0.000 C 
BRANCH  15  16
ATOM     16  C   UNL     1       1.827   7.839  19.936  0.00  0.00    +0.000 A 
ATOM     17  C   UNL     1       1.191   7.823  21.189  0.00  0.00    +0.000 A 
ATOM     18  C   UNL     1       0.336   8.855  21.576  0.00  0.00    +0.000 A 
ATOM     19  C   UNL     1       0.100   9.917  20.710  0.00  0.00    +0.000 A 
ATOM     20 CL   UNL     1      -0.935  11.204  21.199  0.00  0.00    +0.000 Cl
ATOM     21  C   UNL     1       0.698   9.950  19.455  0.00  0.00    +0.000 A 
ATOM     22  C   UNL     1       1.554   8.915  19.070  0.00  0.00    +0.000 A 
ATOM     23 CL   UNL     1       2.266   9.010  17.496  0.00  0.00    +0.000 Cl
ENDBRANCH  15  16
ENDBRANCH  14  15
ENDBRANCH  13  14
ENDBRANCH   1  13
TORSDOF 6
ENDMDL
MODEL 9
REMARK VINA RESULT:      -6.1      5.549      7.120
REMARK  Name = 
REMARK  6 active torsions:
REMARK  status: ('A' for Active; 'I' for Inactive)
REMARK    1  A    between atoms: C_2  and  C_16
REMARK    2  A    between atoms: N_3  and  C_4
REMARK    3  A    between atoms: C_4  and  C_5
REMARK    4  A    between atoms: C_5  and  O_6
REMARK    5  A    between atoms: O_6  and  C_7
REMARK    6  A    between atoms: C_7  and  C_8
REMARK                            x       y       z     vdW  Elec       q    Type
REMARK                         _______ _______ _______ _____ _____    ______ ____
ROOT
ATOM      1  C   UNL     1       8.228   9.044  17.894  0.00  0.00    +0.000 C 
ENDROOT
BRANCH   1   4
ATOM      2  O   UNL     1       9.625  11.470  17.948  0.00  0.00    +0.000 OA
ATOM      3  C   UNL     1       9.567  10.809  18.982  0.00  0.00    +0.000 C 
ATOM      4  N   UNL     1       8.919   9.597  19.045  0.00  0.00    +0.000 N 
ATOM      5  H   UNL     1       8.877   9.090  19.919  0.00  0.00    +0.000 HD
BRANCH   3   6
ATOM      6  C   UNL     1      10.232  11.236  20.291  0.00  0.00    +0.000 C 
ATOM      7  C   UNL     1       9.282  12.037  21.192  0.00  0.00    +0.000 C 
ATOM      8  C   UNL     1       9.100  13.476  20.708  0.00  0.00    +0.000 C 
ATOM      9  N   UNL     1      10.381  14.162  20.552  0.00  0.00    +0.000 NA
ATOM     10  C   UNL     1      11.232  13.464  19.587  0.00  0.00    +0.000 C 
ATOM     11  C   UNL     1      11.521  12.031  20.039  0.00  0.00    +0.000 C 
ATOM     12  H   UNL     1      10.860  14.204  21.451  0.00  0.00    +0.000 HD
ENDBRANCH   3   6
ENDBRANCH   1   4
BRANCH   1  13
ATOM     13  C   UNL     1       7.918   7.556  18.066  0.00  0.00    +0.000 C 
BRANCH  13  14
ATOM     14  O   UNL     1       7.220   7.084  16.914  0.00  0.00    +0.000 OA
BRANCH  14  15
ATOM     15  C   UNL     1       5.803   7.131  17.104  0.00  0.00    +0.000 C 
BRANCH  15  16
ATOM     16  C   UNL     1       5.251   5.768  17.468  0.00  0.00    +0.000 A 
ATOM     17  C   UNL     1       4.900   5.459  18.794  0.00  0.00    +0.000 A 
ATOM     18  C   UNL     1       4.357   4.216  19.123  0.00  0.00    +0.000 A 
ATOM     19  C   UNL     1       4.163   3.262  18.130  0.00  0.00    +0.000 A 
ATOM     20 CL   UNL     1       3.468   1.739  18.534  0.00  0.00    +0.000 Cl
ATOM     21  C   UNL     1       4.521   3.532  16.814  0.00  0.00    +0.000 A 
ATOM     22  C   UNL     1       5.064   4.777  16.487  0.00  0.00    +0.000 A 
ATOM     23 CL   UNL     1       5.492   5.052  14.832  0.00  0.00    +0.000 Cl
ENDBRANCH  15  16
ENDBRANCH  14  15
ENDBRANCH  13  14
ENDBRANCH   1  13
TORSDOF 6
ENDMDL
