MODEL 1
REMARK VINA RESULT:      -8.0      0.000      0.000
REMARK  Name = 
REMARK  9 active torsions:
REMARK  status: ('A' for Active; 'I' for Inactive)
REMARK    1  A    between atoms: C_1  and  O_2
REMARK    2  A    between atoms: O_2  and  C_3
REMARK    3  A    between atoms: C_6  and  C_7
REMARK    4  A    between atoms: N_9  and  N_10
REMARK    5  A    between atoms: C_11  and  S_12
REMARK    6  A    between atoms: S_12  and  C_13
REMARK    7  A    between atoms: C_13  and  C_14
REMARK    8  A    between atoms: N_16  and  C_17
REMARK    9  A    between atoms: C_17  and  C_18
REMARK                            x       y       z     vdW  Elec       q    Type
REMARK                         _______ _______ _______ _____ _____    ______ ____
ROOT
ATOM      1  N   UNL     1       0.470  10.245  19.899  0.00  0.00    +0.000 N 
ATOM      2  C   UNL     1      -0.504  10.894  19.160  0.00  0.00    +0.000 A 
ATOM      3  N   UNL     1      -0.879  12.112  19.412  0.00  0.00    +0.000 NA
ATOM      4  C   UNL     1      -0.905  12.440  20.780  0.00  0.00    +0.000 A 
ATOM      5  C   UNL     1      -1.832  13.417  21.160  0.00  0.00    +0.000 A 
ATOM      6  C   UNL     1      -2.504  13.290  22.375  0.00  0.00    +0.000 A 
ATOM      7  C   UNL     1      -2.208  12.224  23.227  0.00  0.00    +0.000 A 
ATOM      8  C   UNL     1      -1.148  11.363  22.934  0.00  0.00    +0.000 A 
ATOM      9  C   UNL     1      -0.466  11.509  21.724  0.00  0.00    +0.000 A 
ATOM     10  C   UNL     1       0.506  10.492  21.263  0.00  0.00    +0.000 A 
ATOM     11  O   UNL     1       1.161   9.834  22.069  0.00  0.00    +0.000 OA
ENDROOT
BRANCH   1  14
ATOM     12  C   UNL     1       1.973   9.003  18.417  0.00  0.00    +0.000 C 
ATOM     13  O   UNL     1       2.272   9.981  17.742  0.00  0.00    +0.000 OA
ATOM     14  N   UNL     1       1.077   9.033  19.473  0.00  0.00    +0.000 N 
ATOM     15  H   UNL     1       0.925   8.251  20.098  0.00  0.00    +0.000 HD
BRANCH  12  19
ATOM     16  C   UNL     1       3.768   5.194  17.429  0.00  0.00    +0.000 A 
ATOM     17  C   UNL     1       4.385   6.392  17.087  0.00  0.00    +0.000 A 
ATOM     18  C   UNL     1       3.800   7.628  17.416  0.00  0.00    +0.000 A 
ATOM     19  C   UNL     1       2.560   7.669  18.076  0.00  0.00    +0.000 A 
ATOM     20  C   UNL     1       1.935   6.462  18.396  0.00  0.00    +0.000 A 
ATOM     21  C   UNL     1       2.533   5.228  18.068  0.00  0.00    +0.000 A 
BRANCH  16  23
ATOM     22  C   UNL     1       5.620   4.248  16.287  0.00  0.00    +0.000 C 
ATOM     23  O   UNL     1       4.434   4.056  17.048  0.00  0.00    +0.000 OA
ENDBRANCH  16  23
ENDBRANCH  12  19
ENDBRANCH   1  14
BRANCH   2  24
ATOM     24  S   UNL     1      -1.601   9.862  18.233  0.00  0.00    +0.000 S 
BRANCH  24  25
ATOM     25  C   UNL     1      -2.288  11.103  17.105  0.00  0.00    +0.000 C 
BRANCH  25  26
ATOM     26  C   UNL     1      -3.789  11.002  16.948  0.00  0.00    +0.000 C 
ATOM     27  O   UNL     1      -4.301  10.919  15.826  0.00  0.00    +0.000 OA
ATOM     28  N   UNL     1      -4.553  11.128  18.087  0.00  0.00    +0.000 N 
ATOM     29  H   UNL     1      -4.118  11.352  18.975  0.00  0.00    +0.000 HD
BRANCH  28  30
ATOM     30  C   UNL     1      -5.988  11.271  17.978  0.00  0.00    +0.000 C 
BRANCH  30  31
ATOM     31  C   UNL     1      -6.670  10.586  19.101  0.00  0.00    +0.000 A 
ATOM     32  C   UNL     1      -6.884   9.252  19.386  0.00  0.00    +0.000 A 
ATOM     33  C   UNL     1      -7.692   9.208  20.543  0.00  0.00    +0.000 A 
ATOM     34  C   UNL     1      -7.914  10.519  20.900  0.00  0.00    +0.000 A 
ATOM     35  O   UNL     1      -7.297  11.366  20.034  0.00  0.00    +0.000 OA
ENDBRANCH  30  31
ENDBRANCH  28  30
ENDBRANCH  25  26
ENDBRANCH  24  25
ENDBRANCH   2  24
TORSDOF 8
ENDMDL
MODEL 2
REMARK VINA RESULT:      -7.9      0.917      1.275
REMARK  Name = 
REMARK  9 active torsions:
REMARK  status: ('A' for Active; 'I' for Inactive)
REMARK    1  A    between atoms: C_1  and  O_2
REMARK    2  A    between atoms: O_2  and  C_3
REMARK    3  A    between atoms: C_6  and  C_7
REMARK    4  A    between atoms: N_9  and  N_10
REMARK    5  A    between atoms: C_11  and  S_12
REMARK    6  A    between atoms: S_12  and  C_13
REMARK    7  A    between atoms: C_13  and  C_14
REMARK    8  A    between atoms: N_16  and  C_17
REMARK    9  A    between atoms: C_17  and  C_18
REMARK                            x       y       z     vdW  Elec       q    Type
REMARK                         _______ _______ _______ _____ _____    ______ ____
ROOT
ATOM      1  N   UNL     1       0.951   9.870  20.030  0.00  0.00    +0.000 N 
ATOM      2  C   UNL     1       0.198  10.725  19.244  0.00  0.00    +0.000 A 
ATOM      3  N   UNL     1      -0.070  11.946  19.597  0.00  0.00    +0.000 NA
ATOM      4  C   UNL     1      -0.291  12.116  20.976  0.00  0.00    +0.000 A 
ATOM      5  C   UNL     1      -1.150  13.160  21.336  0.00  0.00    +0.000 A 
ATOM      6  C   UNL     1      -2.028  12.988  22.405  0.00  0.00    +0.000 A 
ATOM      7  C   UNL     1      -2.007  11.801  23.141  0.00  0.00    +0.000 A 
ATOM      8  C   UNL     1      -1.020  10.843  22.901  0.00  0.00    +0.000 A 
ATOM      9  C   UNL     1      -0.129  11.033  21.842  0.00  0.00    +0.000 A 
ATOM     10  C   UNL     1       0.783   9.952  21.403  0.00  0.00    +0.000 A 
ATOM     11  O   UNL     1       1.210   9.123  22.205  0.00  0.00    +0.000 OA
ENDROOT
BRANCH   1  14
ATOM     12  C   UNL     1       2.313   8.600  18.439  0.00  0.00    +0.000 C 
ATOM     13  O   UNL     1       2.621   9.581  17.772  0.00  0.00    +0.000 OA
ATOM     14  N   UNL     1       1.477   8.642  19.542  0.00  0.00    +0.000 N 
ATOM     15  H   UNL     1       1.322   7.853  20.156  0.00  0.00    +0.000 HD
BRANCH  12  19
ATOM     16  C   UNL     1       3.672   4.664  17.267  0.00  0.00    +0.000 A 
ATOM     17  C   UNL     1       2.446   4.846  17.898  0.00  0.00    +0.000 A 
ATOM     18  C   UNL     1       2.006   6.128  18.272  0.00  0.00    +0.000 A 
ATOM     19  C   UNL     1       2.819   7.250  18.035  0.00  0.00    +0.000 A 
ATOM     20  C   UNL     1       4.058   7.058  17.422  0.00  0.00    +0.000 A 
ATOM     21  C   UNL     1       4.488   5.769  17.045  0.00  0.00    +0.000 A 
BRANCH  16  23
ATOM     22  C   UNL     1       3.656   2.388  17.935  0.00  0.00    +0.000 C 
ATOM     23  O   UNL     1       3.992   3.365  16.959  0.00  0.00    +0.000 OA
ENDBRANCH  16  23
ENDBRANCH  12  19
ENDBRANCH   1  14
BRANCH   2  24
ATOM     24  S   UNL     1      -0.837   9.965  18.028  0.00  0.00    +0.000 S 
BRANCH  24  25
ATOM     25  C   UNL     1      -1.943  11.356  17.675  0.00  0.00    +0.000 C 
BRANCH  25  26
ATOM     26  C   UNL     1      -3.406  10.969  17.668  0.00  0.00    +0.000 C 
ATOM     27  O   UNL     1      -3.748   9.800  17.458  0.00  0.00    +0.000 OA
ATOM     28  N   UNL     1      -4.329  11.985  17.783  0.00  0.00    +0.000 N 
ATOM     29  H   UNL     1      -4.027  12.953  17.796  0.00  0.00    +0.000 HD
BRANCH  28  30
ATOM     30  C   UNL     1      -5.730  11.713  17.554  0.00  0.00    +0.000 C 
BRANCH  30  31
ATOM     31  C   UNL     1      -6.392  11.278  18.807  0.00  0.00    +0.000 A 
ATOM     32  C   UNL     1      -6.916  10.066  19.211  0.00  0.00    +0.000 A 
ATOM     33  C   UNL     1      -7.516  10.282  20.470  0.00  0.00    +0.000 A 
ATOM     34  C   UNL     1      -7.311  11.611  20.764  0.00  0.00    +0.000 A 
ATOM     35  O   UNL     1      -6.627  12.227  19.763  0.00  0.00    +0.000 OA
ENDBRANCH  30  31
ENDBRANCH  28  30
ENDBRANCH  25  26
ENDBRANCH  24  25
ENDBRANCH   2  24
TORSDOF 8
ENDMDL
MODEL 3
REMARK VINA RESULT:      -7.7      1.001      1.417
REMARK  Name = 
REMARK  9 active torsions:
REMARK  status: ('A' for Active; 'I' for Inactive)
REMARK    1  A    between atoms: C_1  and  O_2
REMARK    2  A    between atoms: O_2  and  C_3
REMARK    3  A    between atoms: C_6  and  C_7
REMARK    4  A    between atoms: N_9  and  N_10
REMARK    5  A    between atoms: C_11  and  S_12
REMARK    6  A    between atoms: S_12  and  C_13
REMARK    7  A    between atoms: C_13  and  C_14
REMARK    8  A    between atoms: N_16  and  C_17
REMARK    9  A    between atoms: C_17  and  C_18
REMARK                            x       y       z     vdW  Elec       q    Type
REMARK                         _______ _______ _______ _____ _____    ______ ____
ROOT
ATOM      1  N   UNL     1       0.767  10.185  19.937  0.00  0.00    +0.000 N 
ATOM      2  C   UNL     1      -0.128  10.902  19.163  0.00  0.00    +0.000 A 
ATOM      3  N   UNL     1      -0.516  12.102  19.472  0.00  0.00    +0.000 NA
ATOM      4  C   UNL     1      -0.669  12.326  20.853  0.00  0.00    +0.000 A 
ATOM      5  C   UNL     1      -1.619  13.284  21.219  0.00  0.00    +0.000 A 
ATOM      6  C   UNL     1      -2.403  13.075  22.353  0.00  0.00    +0.000 A 
ATOM      7  C   UNL     1      -2.196  11.943  23.145  0.00  0.00    +0.000 A 
ATOM      8  C   UNL     1      -1.120  11.092  22.885  0.00  0.00    +0.000 A 
ATOM      9  C   UNL     1      -0.326  11.320  21.759  0.00  0.00    +0.000 A 
ATOM     10  C   UNL     1       0.678  10.327  21.313  0.00  0.00    +0.000 A 
ATOM     11  O   UNL     1       1.249   9.600  22.125  0.00  0.00    +0.000 OA
ENDROOT
BRANCH   1  14
ATOM     12  C   UNL     1       2.202   8.998  18.346  0.00  0.00    +0.000 C 
ATOM     13  O   UNL     1       2.383   9.978  17.631  0.00  0.00    +0.000 OA
ATOM     14  N   UNL     1       1.403   9.000  19.477  0.00  0.00    +0.000 N 
ATOM     15  H   UNL     1       1.352   8.224  20.126  0.00  0.00    +0.000 HD
BRANCH  12  19
ATOM     16  C   UNL     1       3.927   5.179  17.276  0.00  0.00    +0.000 A 
ATOM     17  C   UNL     1       2.726   5.258  17.973  0.00  0.00    +0.000 A 
ATOM     18  C   UNL     1       2.166   6.502  18.313  0.00  0.00    +0.000 A 
ATOM     19  C   UNL     1       2.832   7.693  17.974  0.00  0.00    +0.000 A 
ATOM     20  C   UNL     1       4.049   7.606  17.295  0.00  0.00    +0.000 A 
ATOM     21  C   UNL     1       4.599   6.353  16.953  0.00  0.00    +0.000 A 
BRANCH  16  23
ATOM     22  C   UNL     1       5.453   3.802  16.091  0.00  0.00    +0.000 C 
ATOM     23  O   UNL     1       4.373   3.908  17.009  0.00  0.00    +0.000 OA
ENDBRANCH  16  23
ENDBRANCH  12  19
ENDBRANCH   1  14
BRANCH   2  24
ATOM     24  S   UNL     1      -1.141   9.959  18.062  0.00  0.00    +0.000 S 
BRANCH  24  25
ATOM     25  C   UNL     1      -2.194  11.288  17.422  0.00  0.00    +0.000 C 
BRANCH  25  26
ATOM     26  C   UNL     1      -3.656  11.111  17.769  0.00  0.00    +0.000 C 
ATOM     27  O   UNL     1      -4.172   9.988  17.772  0.00  0.00    +0.000 OA
ATOM     28  N   UNL     1      -4.402  12.254  17.958  0.00  0.00    +0.000 N 
ATOM     29  H   UNL     1      -3.993  13.167  17.796  0.00  0.00    +0.000 HD
BRANCH  28  30
ATOM     30  C   UNL     1      -5.842  12.162  18.063  0.00  0.00    +0.000 C 
BRANCH  30  31
ATOM     31  C   UNL     1      -6.272  12.267  19.477  0.00  0.00    +0.000 A 
ATOM     32  C   UNL     1      -5.600  12.616  20.632  0.00  0.00    +0.000 A 
ATOM     33  C   UNL     1      -6.504  12.431  21.700  0.00  0.00    +0.000 A 
ATOM     34  C   UNL     1      -7.677  11.991  21.131  0.00  0.00    +0.000 A 
ATOM     35  O   UNL     1      -7.551  11.889  19.781  0.00  0.00    +0.000 OA
ENDBRANCH  30  31
ENDBRANCH  28  30
ENDBRANCH  25  26
ENDBRANCH  24  25
ENDBRANCH   2  24
TORSDOF 8
ENDMDL
MODEL 4
REMARK VINA RESULT:      -7.7      4.757     10.234
REMARK  Name = 
REMARK  9 active torsions:
REMARK  status: ('A' for Active; 'I' for Inactive)
REMARK    1  A    between atoms: C_1  and  O_2
REMARK    2  A    between atoms: O_2  and  C_3
REMARK    3  A    between atoms: C_6  and  C_7
REMARK    4  A    between atoms: N_9  and  N_10
REMARK    5  A    between atoms: C_11  and  S_12
REMARK    6  A    between atoms: S_12  and  C_13
REMARK    7  A    between atoms: C_13  and  C_14
REMARK    8  A    between atoms: N_16  and  C_17
REMARK    9  A    between atoms: C_17  and  C_18
REMARK                            x       y       z     vdW  Elec       q    Type
REMARK                         _______ _______ _______ _____ _____    ______ ____
ROOT
ATOM      1  N   UNL     1       1.926   7.162  19.102  0.00  0.00    +0.000 N 
ATOM      2  C   UNL     1       2.543   6.420  18.110  0.00  0.00    +0.000 A 
ATOM      3  N   UNL     1       2.184   5.207  17.818  0.00  0.00    +0.000 NA
ATOM      4  C   UNL     1       1.785   4.436  18.925  0.00  0.00    +0.000 A 
ATOM      5  C   UNL     1       1.988   3.056  18.818  0.00  0.00    +0.000 A 
ATOM      6  C   UNL     1       2.392   2.332  19.939  0.00  0.00    +0.000 A 
ATOM      7  C   UNL     1       2.537   2.977  21.170  0.00  0.00    +0.000 A 
ATOM      8  C   UNL     1       2.146   4.310  21.315  0.00  0.00    +0.000 A 
ATOM      9  C   UNL     1       1.722   5.022  20.191  0.00  0.00    +0.000 A 
ATOM     10  C   UNL     1       1.518   6.488  20.243  0.00  0.00    +0.000 A 
ATOM     11  O   UNL     1       1.160   7.038  21.283  0.00  0.00    +0.000 OA
ENDROOT
BRANCH   1  14
ATOM     12  C   UNL     1       1.315   9.478  18.590  0.00  0.00    +0.000 C 
ATOM     13  O   UNL     1       0.424   9.171  17.807  0.00  0.00    +0.000 OA
ATOM     14  N   UNL     1       2.121   8.563  19.247  0.00  0.00    +0.000 N 
ATOM     15  H   UNL     1       2.772   8.817  19.979  0.00  0.00    +0.000 HD
BRANCH  12  19
ATOM     16  C   UNL     1       2.176  13.672  19.205  0.00  0.00    +0.000 A 
ATOM     17  C   UNL     1       2.699  12.979  18.118  0.00  0.00    +0.000 A 
ATOM     18  C   UNL     1       2.411  11.618  17.919  0.00  0.00    +0.000 A 
ATOM     19  C   UNL     1       1.606  10.924  18.839  0.00  0.00    +0.000 A 
ATOM     20  C   UNL     1       1.103  11.620  19.941  0.00  0.00    +0.000 A 
ATOM     21  C   UNL     1       1.392  12.987  20.128  0.00  0.00    +0.000 A 
BRANCH  16  23
ATOM     22  C   UNL     1       3.394  15.341  20.370  0.00  0.00    +0.000 C 
ATOM     23  O   UNL     1       2.535  14.994  19.292  0.00  0.00    +0.000 OA
ENDBRANCH  16  23
ENDBRANCH  12  19
ENDBRANCH   1  14
BRANCH   2  24
ATOM     24  S   UNL     1       4.164   6.944  17.635  0.00  0.00    +0.000 S 
BRANCH  24  25
ATOM     25  C   UNL     1       5.142   5.676  18.483  0.00  0.00    +0.000 C 
BRANCH  25  26
ATOM     26  C   UNL     1       6.222   5.072  17.611  0.00  0.00    +0.000 C 
ATOM     27  O   UNL     1       7.180   4.477  18.116  0.00  0.00    +0.000 OA
ATOM     28  N   UNL     1       6.151   5.319  16.258  0.00  0.00    +0.000 N 
ATOM     29  H   UNL     1       5.443   5.940  15.885  0.00  0.00    +0.000 HD
BRANCH  28  30
ATOM     30  C   UNL     1       7.266   4.970  15.405  0.00  0.00    +0.000 C 
BRANCH  30  31
ATOM     31  C   UNL     1       6.787   4.471  14.094  0.00  0.00    +0.000 A 
ATOM     32  C   UNL     1       5.721   3.670  13.735  0.00  0.00    +0.000 A 
ATOM     33  C   UNL     1       5.831   3.445  12.346  0.00  0.00    +0.000 A 
ATOM     34  C   UNL     1       6.953   4.132  11.939  0.00  0.00    +0.000 A 
ATOM     35  O   UNL     1       7.541   4.761  12.990  0.00  0.00    +0.000 OA
ENDBRANCH  30  31
ENDBRANCH  28  30
ENDBRANCH  25  26
ENDBRANCH  24  25
ENDBRANCH   2  24
TORSDOF 8
ENDMDL
MODEL 5
REMARK VINA RESULT:      -7.7      4.668     10.218
REMARK  Name = 
REMARK  9 active torsions:
REMARK  status: ('A' for Active; 'I' for Inactive)
REMARK    1  A    between atoms: C_1  and  O_2
REMARK    2  A    between atoms: O_2  and  C_3
REMARK    3  A    between atoms: C_6  and  C_7
REMARK    4  A    between atoms: N_9  and  N_10
REMARK    5  A    between atoms: C_11  and  S_12
REMARK    6  A    between atoms: S_12  and  C_13
REMARK    7  A    between atoms: C_13  and  C_14
REMARK    8  A    between atoms: N_16  and  C_17
REMARK    9  A    between atoms: C_17  and  C_18
REMARK                            x       y       z     vdW  Elec       q    Type
REMARK                         _______ _______ _______ _____ _____    ______ ____
ROOT
ATOM      1  N   UNL     1       1.935   7.334  19.064  0.00  0.00    +0.000 N 
ATOM      2  C   UNL     1       2.532   6.614  18.043  0.00  0.00    +0.000 A 
ATOM      3  N   UNL     1       2.182   5.399  17.747  0.00  0.00    +0.000 NA
ATOM      4  C   UNL     1       1.832   4.608  18.856  0.00  0.00    +0.000 A 
ATOM      5  C   UNL     1       2.054   3.233  18.725  0.00  0.00    +0.000 A 
ATOM      6  C   UNL     1       2.505   2.503  19.824  0.00  0.00    +0.000 A 
ATOM      7  C   UNL     1       2.679   3.134  21.058  0.00  0.00    +0.000 A 
ATOM      8  C   UNL     1       2.273   4.459  21.231  0.00  0.00    +0.000 A 
ATOM      9  C   UNL     1       1.801   5.178  20.131  0.00  0.00    +0.000 A 
ATOM     10  C   UNL     1       1.575   6.639  20.209  0.00  0.00    +0.000 A 
ATOM     11  O   UNL     1       1.242   7.170  21.267  0.00  0.00    +0.000 OA
ENDROOT
BRANCH   1  14
ATOM     12  C   UNL     1       1.306   9.646  18.558  0.00  0.00    +0.000 C 
ATOM     13  O   UNL     1       0.429   9.334  17.760  0.00  0.00    +0.000 OA
ATOM     14  N   UNL     1       2.112   8.736  19.221  0.00  0.00    +0.000 N 
ATOM     15  H   UNL     1       2.750   8.992  19.963  0.00  0.00    +0.000 HD
BRANCH  12  19
ATOM     16  C   UNL     1       2.066  13.816  19.419  0.00  0.00    +0.000 A 
ATOM     17  C   UNL     1       1.213  13.058  20.216  0.00  0.00    +0.000 A 
ATOM     18  C   UNL     1       0.974  11.701  19.935  0.00  0.00    +0.000 A 
ATOM     19  C   UNL     1       1.577  11.094  18.820  0.00  0.00    +0.000 A 
ATOM     20  C   UNL     1       2.414  11.866  18.011  0.00  0.00    +0.000 A 
ATOM     21  C   UNL     1       2.652  13.224  18.305  0.00  0.00    +0.000 A 
BRANCH  16  23
ATOM     22  C   UNL     1       1.947  16.100  18.788  0.00  0.00    +0.000 C 
ATOM     23  O   UNL     1       2.212  15.129  19.792  0.00  0.00    +0.000 OA
ENDBRANCH  16  23
ENDBRANCH  12  19
ENDBRANCH   1  14
BRANCH   2  24
ATOM     24  S   UNL     1       4.127   7.171  17.522  0.00  0.00    +0.000 S 
BRANCH  24  25
ATOM     25  C   UNL     1       5.162   6.092  18.546  0.00  0.00    +0.000 C 
BRANCH  25  26
ATOM     26  C   UNL     1       5.553   4.805  17.853  0.00  0.00    +0.000 C 
ATOM     27  O   UNL     1       6.102   3.892  18.480  0.00  0.00    +0.000 OA
ATOM     28  N   UNL     1       5.384   4.748  16.487  0.00  0.00    +0.000 N 
ATOM     29  H   UNL     1       5.079   5.566  15.973  0.00  0.00    +0.000 HD
BRANCH  28  30
ATOM     30  C   UNL     1       5.947   3.645  15.739  0.00  0.00    +0.000 C 
BRANCH  30  31
ATOM     31  C   UNL     1       6.469   4.111  14.432  0.00  0.00    +0.000 A 
ATOM     32  C   UNL     1       6.228   3.705  13.135  0.00  0.00    +0.000 A 
ATOM     33  C   UNL     1       7.098   4.448  12.308  0.00  0.00    +0.000 A 
ATOM     34  C   UNL     1       7.810   5.271  13.151  0.00  0.00    +0.000 A 
ATOM     35  O   UNL     1       7.436   5.078  14.443  0.00  0.00    +0.000 OA
ENDBRANCH  30  31
ENDBRANCH  28  30
ENDBRANCH  25  26
ENDBRANCH  24  25
ENDBRANCH   2  24
TORSDOF 8
ENDMDL
MODEL 6
REMARK VINA RESULT:      -7.6      0.929      1.396
REMARK  Name = 
REMARK  9 active torsions:
REMARK  status: ('A' for Active; 'I' for Inactive)
REMARK    1  A    between atoms: C_1  and  O_2
REMARK    2  A    between atoms: O_2  and  C_3
REMARK    3  A    between atoms: C_6  and  C_7
REMARK    4  A    between atoms: N_9  and  N_10
REMARK    5  A    between atoms: C_11  and  S_12
REMARK    6  A    between atoms: S_12  and  C_13
REMARK    7  A    between atoms: C_13  and  C_14
REMARK    8  A    between atoms: N_16  and  C_17
REMARK    9  A    between atoms: C_17  and  C_18
REMARK                            x       y       z     vdW  Elec       q    Type
REMARK                         _______ _______ _______ _____ _____    ______ ____
ROOT
ATOM      1  N   UNL     1       0.629  10.165  20.326  0.00  0.00    +0.000 N 
ATOM      2  C   UNL     1      -0.120  10.934  19.452  0.00  0.00    +0.000 A 
ATOM      3  N   UNL     1      -0.358  12.193  19.657  0.00  0.00    +0.000 NA
ATOM      4  C   UNL     1      -0.552  12.536  21.008  0.00  0.00    +0.000 A 
ATOM      5  C   UNL     1      -1.383  13.635  21.250  0.00  0.00    +0.000 A 
ATOM      6  C   UNL     1      -2.246  13.615  22.345  0.00  0.00    +0.000 A 
ATOM      7  C   UNL     1      -2.235  12.527  23.221  0.00  0.00    +0.000 A 
ATOM      8  C   UNL     1      -1.271  11.526  23.086  0.00  0.00    +0.000 A 
ATOM      9  C   UNL     1      -0.395  11.564  21.998  0.00  0.00    +0.000 A 
ATOM     10  C   UNL     1       0.487  10.418  21.682  0.00  0.00    +0.000 A 
ATOM     11  O   UNL     1       0.912   9.685  22.573  0.00  0.00    +0.000 OA
ENDROOT
BRANCH   1  14
ATOM     12  C   UNL     1       2.037   8.697  18.961  0.00  0.00    +0.000 C 
ATOM     13  O   UNL     1       2.449   9.601  18.243  0.00  0.00    +0.000 OA
ATOM     14  N   UNL     1       1.122   8.876  19.986  0.00  0.00    +0.000 N 
ATOM     15  H   UNL     1       0.877   8.150  20.648  0.00  0.00    +0.000 HD
BRANCH  12  19
ATOM     16  C   UNL     1       3.274   4.608  18.286  0.00  0.00    +0.000 A 
ATOM     17  C   UNL     1       2.382   4.934  19.302  0.00  0.00    +0.000 A 
ATOM     18  C   UNL     1       1.978   6.264  19.514  0.00  0.00    +0.000 A 
ATOM     19  C   UNL     1       2.496   7.295  18.712  0.00  0.00    +0.000 A 
ATOM     20  C   UNL     1       3.410   6.964  17.708  0.00  0.00    +0.000 A 
ATOM     21  C   UNL     1       3.803   5.627  17.500  0.00  0.00    +0.000 A 
BRANCH  16  23
ATOM     22  C   UNL     1       2.556   2.412  17.750  0.00  0.00    +0.000 C 
ATOM     23  O   UNL     1       3.596   3.277  18.185  0.00  0.00    +0.000 OA
ENDBRANCH  16  23
ENDBRANCH  12  19
ENDBRANCH   1  14
BRANCH   2  24
ATOM     24  S   UNL     1      -1.191  10.052  18.356  0.00  0.00    +0.000 S 
BRANCH  24  25
ATOM     25  C   UNL     1      -2.233  11.426  17.798  0.00  0.00    +0.000 C 
BRANCH  25  26
ATOM     26  C   UNL     1      -3.636  10.999  17.425  0.00  0.00    +0.000 C 
ATOM     27  O   UNL     1      -3.884  10.567  16.294  0.00  0.00    +0.000 OA
ATOM     28  N   UNL     1      -4.631  11.226  18.351  0.00  0.00    +0.000 N 
ATOM     29  H   UNL     1      -4.430  11.725  19.209  0.00  0.00    +0.000 HD
BRANCH  28  30
ATOM     30  C   UNL     1      -6.017  11.056  17.972  0.00  0.00    +0.000 C 
BRANCH  30  31
ATOM     31  C   UNL     1      -6.800  10.481  19.091  0.00  0.00    +0.000 A 
ATOM     32  C   UNL     1      -7.407  11.051  20.192  0.00  0.00    +0.000 A 
ATOM     33  C   UNL     1      -7.915   9.989  20.971  0.00  0.00    +0.000 A 
ATOM     34  C   UNL     1      -7.596   8.835  20.292  0.00  0.00    +0.000 A 
ATOM     35  O   UNL     1      -6.920   9.120  19.147  0.00  0.00    +0.000 OA
ENDBRANCH  30  31
ENDBRANCH  28  30
ENDBRANCH  25  26
ENDBRANCH  24  25
ENDBRANCH   2  24
TORSDOF 8
ENDMDL
MODEL 7
REMARK VINA RESULT:      -7.6      4.842     10.170
REMARK  Name = 
REMARK  9 active torsions:
REMARK  status: ('A' for Active; 'I' for Inactive)
REMARK    1  A    between atoms: C_1  and  O_2
REMARK    2  A    between atoms: O_2  and  C_3
REMARK    3  A    between atoms: C_6  and  C_7
REMARK    4  A    between atoms: N_9  and  N_10
REMARK    5  A    between atoms: C_11  and  S_12
REMARK    6  A    between atoms: S_12  and  C_13
REMARK    7  A    between atoms: C_13  and  C_14
REMARK    8  A    between atoms: N_16  and  C_17
REMARK    9  A    between atoms: C_17  and  C_18
REMARK                            x       y       z     vdW  Elec       q    Type
REMARK                         _______ _______ _______ _____ _____    ______ ____
ROOT
ATOM      1  N   UNL     1       1.938   7.020  19.063  0.00  0.00    +0.000 N 
ATOM      2  C   UNL     1       2.529   6.254  18.074  0.00  0.00    +0.000 A 
ATOM      3  N   UNL     1       2.140   5.046  17.798  0.00  0.00    +0.000 NA
ATOM      4  C   UNL     1       1.737   4.296  18.919  0.00  0.00    +0.000 A 
ATOM      5  C   UNL     1       1.910   2.911  18.825  0.00  0.00    +0.000 A 
ATOM      6  C   UNL     1       2.310   2.192  19.951  0.00  0.00    +0.000 A 
ATOM      7  C   UNL     1       2.481   2.847  21.173  0.00  0.00    +0.000 A 
ATOM      8  C   UNL     1       2.121   4.190  21.306  0.00  0.00    +0.000 A 
ATOM      9  C   UNL     1       1.700   4.898  20.178  0.00  0.00    +0.000 A 
ATOM     10  C   UNL     1       1.527   6.368  20.216  0.00  0.00    +0.000 A 
ATOM     11  O   UNL     1       1.192   6.937  21.253  0.00  0.00    +0.000 OA
ENDROOT
BRANCH   1  14
ATOM     12  C   UNL     1       1.351   9.344  18.557  0.00  0.00    +0.000 C 
ATOM     13  O   UNL     1       0.426   9.048  17.809  0.00  0.00    +0.000 OA
ATOM     14  N   UNL     1       2.164   8.418  19.190  0.00  0.00    +0.000 N 
ATOM     15  H   UNL     1       2.847   8.665  19.895  0.00  0.00    +0.000 HD
BRANCH  12  19
ATOM     16  C   UNL     1       2.304  13.527  19.106  0.00  0.00    +0.000 A 
ATOM     17  C   UNL     1       2.702  12.840  17.964  0.00  0.00    +0.000 A 
ATOM     18  C   UNL     1       2.385  11.482  17.787  0.00  0.00    +0.000 A 
ATOM     19  C   UNL     1       1.679  10.786  18.783  0.00  0.00    +0.000 A 
ATOM     20  C   UNL     1       1.302  11.476  19.938  0.00  0.00    +0.000 A 
ATOM     21  C   UNL     1       1.620  12.840  20.102  0.00  0.00    +0.000 A 
BRANCH  16  23
ATOM     22  C   UNL     1       3.815  15.210  18.388  0.00  0.00    +0.000 C 
ATOM     23  O   UNL     1       2.680  14.846  19.164  0.00  0.00    +0.000 OA
ENDBRANCH  16  23
ENDBRANCH  12  19
ENDBRANCH   1  14
BRANCH   2  24
ATOM     24  S   UNL     1       4.155   6.738  17.575  0.00  0.00    +0.000 S 
BRANCH  24  25
ATOM     25  C   UNL     1       4.699   5.189  16.809  0.00  0.00    +0.000 C 
BRANCH  25  26
ATOM     26  C   UNL     1       5.566   5.399  15.587  0.00  0.00    +0.000 C 
ATOM     27  O   UNL     1       5.607   6.498  15.025  0.00  0.00    +0.000 OA
ATOM     28  N   UNL     1       6.201   4.293  15.066  0.00  0.00    +0.000 N 
ATOM     29  H   UNL     1       6.027   3.372  15.452  0.00  0.00    +0.000 HD
BRANCH  28  30
ATOM     30  C   UNL     1       6.852   4.378  13.778  0.00  0.00    +0.000 C 
BRANCH  30  31
ATOM     31  C   UNL     1       6.069   3.658  12.746  0.00  0.00    +0.000 A 
ATOM     32  C   UNL     1       4.795   3.844  12.246  0.00  0.00    +0.000 A 
ATOM     33  C   UNL     1       4.550   2.779  11.352  0.00  0.00    +0.000 A 
ATOM     34  C   UNL     1       5.694   2.014  11.352  0.00  0.00    +0.000 A 
ATOM     35  O   UNL     1       6.625   2.538  12.192  0.00  0.00    +0.000 OA
ENDBRANCH  30  31
ENDBRANCH  28  30
ENDBRANCH  25  26
ENDBRANCH  24  25
ENDBRANCH   2  24
TORSDOF 8
ENDMDL
MODEL 8
REMARK VINA RESULT:      -7.6      1.431      1.847
REMARK  Name = 
REMARK  9 active torsions:
REMARK  status: ('A' for Active; 'I' for Inactive)
REMARK    1  A    between atoms: C_1  and  O_2
REMARK    2  A    between atoms: O_2  and  C_3
REMARK    3  A    between atoms: C_6  and  C_7
REMARK    4  A    between atoms: N_9  and  N_10
REMARK    5  A    between atoms: C_11  and  S_12
REMARK    6  A    between atoms: S_12  and  C_13
REMARK    7  A    between atoms: C_13  and  C_14
REMARK    8  A    between atoms: N_16  and  C_17
REMARK    9  A    between atoms: C_17  and  C_18
REMARK                            x       y       z     vdW  Elec       q    Type
REMARK                         _______ _______ _______ _____ _____    ______ ____
ROOT
ATOM      1  N   UNL     1       0.279  10.412  20.273  0.00  0.00    +0.000 N 
ATOM      2  C   UNL     1      -0.582  11.068  19.411  0.00  0.00    +0.000 A 
ATOM      3  N   UNL     1      -0.975  12.289  19.608  0.00  0.00    +0.000 NA
ATOM      4  C   UNL     1      -1.179  12.622  20.960  0.00  0.00    +0.000 A 
ATOM      5  C   UNL     1      -2.138  13.609  21.212  0.00  0.00    +0.000 A 
ATOM      6  C   UNL     1      -2.967  13.492  22.327  0.00  0.00    +0.000 A 
ATOM      7  C   UNL     1      -2.797  12.426  23.214  0.00  0.00    +0.000 A 
ATOM      8  C   UNL     1      -1.716  11.554  23.065  0.00  0.00    +0.000 A 
ATOM      9  C   UNL     1      -0.878  11.690  21.956  0.00  0.00    +0.000 A 
ATOM     10  C   UNL     1       0.136  10.663  21.630  0.00  0.00    +0.000 A 
ATOM     11  O   UNL     1       0.672  10.001  22.517  0.00  0.00    +0.000 OA
ENDROOT
BRANCH   1  14
ATOM     12  C   UNL     1       1.861   9.127  18.914  0.00  0.00    +0.000 C 
ATOM     13  O   UNL     1       2.166  10.076  18.201  0.00  0.00    +0.000 OA
ATOM     14  N   UNL     1       0.926   9.192  19.934  0.00  0.00    +0.000 N 
ATOM     15  H   UNL     1       0.765   8.441  20.593  0.00  0.00    +0.000 HD
BRANCH  12  19
ATOM     16  C   UNL     1       3.593   5.219  18.255  0.00  0.00    +0.000 A 
ATOM     17  C   UNL     1       2.819   5.485  19.380  0.00  0.00    +0.000 A 
ATOM     18  C   UNL     1       2.253   6.756  19.587  0.00  0.00    +0.000 A 
ATOM     19  C   UNL     1       2.487   7.791  18.665  0.00  0.00    +0.000 A 
ATOM     20  C   UNL     1       3.284   7.524  17.550  0.00  0.00    +0.000 A 
ATOM     21  C   UNL     1       3.841   6.245  17.349  0.00  0.00    +0.000 A 
BRANCH  16  23
ATOM     22  C   UNL     1       4.346   3.286  19.405  0.00  0.00    +0.000 C 
ATOM     23  O   UNL     1       4.095   3.944  18.171  0.00  0.00    +0.000 OA
ENDBRANCH  16  23
ENDBRANCH  12  19
ENDBRANCH   1  14
BRANCH   2  24
ATOM     24  S   UNL     1      -1.556  10.043  18.349  0.00  0.00    +0.000 S 
BRANCH  24  25
ATOM     25  C   UNL     1      -2.291  11.325  17.299  0.00  0.00    +0.000 C 
BRANCH  25  26
ATOM     26  C   UNL     1      -3.795  11.424  17.442  0.00  0.00    +0.000 C 
ATOM     27  O   UNL     1      -4.542  10.981  16.564  0.00  0.00    +0.000 OA
ATOM     28  N   UNL     1      -4.280  12.131  18.520  0.00  0.00    +0.000 N 
ATOM     29  H   UNL     1      -3.647  12.619  19.142  0.00  0.00    +0.000 HD
BRANCH  28  30
ATOM     30  C   UNL     1      -5.688  12.458  18.589  0.00  0.00    +0.000 C 
BRANCH  30  31
ATOM     31  C   UNL     1      -6.064  12.864  19.964  0.00  0.00    +0.000 A 
ATOM     32  C   UNL     1      -6.352  14.092  20.527  0.00  0.00    +0.000 A 
ATOM     33  C   UNL     1      -6.537  13.873  21.909  0.00  0.00    +0.000 A 
ATOM     34  C   UNL     1      -6.362  12.521  22.104  0.00  0.00    +0.000 A 
ATOM     35  O   UNL     1      -6.077  11.897  20.931  0.00  0.00    +0.000 OA
ENDBRANCH  30  31
ENDBRANCH  28  30
ENDBRANCH  25  26
ENDBRANCH  24  25
ENDBRANCH   2  24
TORSDOF 8
ENDMDL
MODEL 9
REMARK VINA RESULT:      -7.5      4.884     10.507
REMARK  Name = 
REMARK  9 active torsions:
REMARK  status: ('A' for Active; 'I' for Inactive)
REMARK    1  A    between atoms: C_1  and  O_2
REMARK    2  A    between atoms: O_2  and  C_3
REMARK    3  A    between atoms: C_6  and  C_7
REMARK    4  A    between atoms: N_9  and  N_10
REMARK    5  A    between atoms: C_11  and  S_12
REMARK    6  A    between atoms: S_12  and  C_13
REMARK    7  A    between atoms: C_13  and  C_14
REMARK    8  A    between atoms: N_16  and  C_17
REMARK    9  A    between atoms: C_17  and  C_18
REMARK                            x       y       z     vdW  Elec       q    Type
REMARK                         _______ _______ _______ _____ _____    ______ ____
ROOT
ATOM      1  N   UNL     1       2.512   6.251  18.781  0.00  0.00    +0.000 N 
ATOM      2  C   UNL     1       3.388   5.888  17.773  0.00  0.00    +0.000 A 
ATOM      3  N   UNL     1       3.361   4.718  17.210  0.00  0.00    +0.000 NA
ATOM      4  C   UNL     1       3.045   3.661  18.083  0.00  0.00    +0.000 A 
ATOM      5  C   UNL     1       3.581   2.411  17.754  0.00  0.00    +0.000 A 
ATOM      6  C   UNL     1       4.027   1.567  18.769  0.00  0.00    +0.000 A 
ATOM      7  C   UNL     1       3.884   1.947  20.106  0.00  0.00    +0.000 A 
ATOM      8  C   UNL     1       3.175   3.104  20.434  0.00  0.00    +0.000 A 
ATOM      9  C   UNL     1       2.712   3.935  19.411  0.00  0.00    +0.000 A 
ATOM     10  C   UNL     1       2.160   5.277  19.703  0.00  0.00    +0.000 A 
ATOM     11  O   UNL     1       1.575   5.502  20.761  0.00  0.00    +0.000 OA
ENDROOT
BRANCH   1  14
ATOM     12  C   UNL     1       1.744   8.547  18.406  0.00  0.00    +0.000 C 
ATOM     13  O   UNL     1       1.352   8.331  17.264  0.00  0.00    +0.000 OA
ATOM     14  N   UNL     1       2.351   7.597  19.211  0.00  0.00    +0.000 N 
ATOM     15  H   UNL     1       2.563   7.748  20.189  0.00  0.00    +0.000 HD
BRANCH  12  19
ATOM     16  C   UNL     1       1.375  12.567  19.959  0.00  0.00    +0.000 A 
ATOM     17  C   UNL     1       1.984  12.320  18.733  0.00  0.00    +0.000 A 
ATOM     18  C   UNL     1       2.096  11.012  18.230  0.00  0.00    +0.000 A 
ATOM     19  C   UNL     1       1.615   9.924  18.978  0.00  0.00    +0.000 A 
ATOM     20  C   UNL     1       1.025  10.176  20.219  0.00  0.00    +0.000 A 
ATOM     21  C   UNL     1       0.912  11.492  20.711  0.00  0.00    +0.000 A 
BRANCH  16  23
ATOM     22  C   UNL     1       1.022  14.825  19.326  0.00  0.00    +0.000 C 
ATOM     23  O   UNL     1       1.333  13.884  20.344  0.00  0.00    +0.000 OA
ENDBRANCH  16  23
ENDBRANCH  12  19
ENDBRANCH   1  14
BRANCH   2  24
ATOM     24  S   UNL     1       4.877   6.834  17.652  0.00  0.00    +0.000 S 
BRANCH  24  25
ATOM     25  C   UNL     1       6.076   5.550  18.095  0.00  0.00    +0.000 C 
BRANCH  25  26
ATOM     26  C   UNL     1       6.851   5.020  16.908  0.00  0.00    +0.000 C 
ATOM     27  O   UNL     1       7.918   4.417  17.070  0.00  0.00    +0.000 OA
ATOM     28  N   UNL     1       6.382   5.344  15.654  0.00  0.00    +0.000 N 
ATOM     29  H   UNL     1       5.594   5.971  15.546  0.00  0.00    +0.000 HD
BRANCH  28  30
ATOM     30  C   UNL     1       7.196   5.068  14.490  0.00  0.00    +0.000 C 
BRANCH  30  31
ATOM     31  C   UNL     1       6.455   4.225  13.521  0.00  0.00    +0.000 A 
ATOM     32  C   UNL     1       6.844   3.572  12.368  0.00  0.00    +0.000 A 
ATOM     33  C   UNL     1       5.676   3.015  11.804  0.00  0.00    +0.000 A 
ATOM     34  C   UNL     1       4.647   3.353  12.653  0.00  0.00    +0.000 A 
ATOM     35  O   UNL     1       5.107   4.086  13.701  0.00  0.00    +0.000 OA
ENDBRANCH  30  31
ENDBRANCH  28  30
ENDBRANCH  25  26
ENDBRANCH  24  25
ENDBRANCH   2  24
TORSDOF 8
ENDMDL
