MODEL 1
REMARK VINA RESULT:      -6.5      0.000      0.000
REMARK  Name = 
REMARK  3 active torsions:
REMARK  status: ('A' for Active; 'I' for Inactive)
REMARK    1  A    between atoms: C_4  and  C_5
REMARK    2  A    between atoms: C_5  and  C_6
REMARK    3  A    between atoms: C_9  and  O_10
REMARK                            x       y       z     vdW  Elec       q    Type
REMARK                         _______ _______ _______ _____ _____    ______ ____
ROOT
ATOM      1  N   UNL     1       7.749   4.465  16.238  0.00  0.00    +0.000 N 
ATOM      2  C   UNL     1       6.818   4.842  17.121  0.00  0.00    +0.000 A 
ATOM      3  N   UNL     1       5.779   5.607  16.913  0.00  0.00    +0.000 NA
ATOM      4  C   UNL     1       5.107   5.673  18.119  0.00  0.00    +0.000 A 
ATOM      5  C   UNL     1       5.771   4.917  19.066  0.00  0.00    +0.000 A 
ATOM      6  N   UNL     1       6.860   4.406  18.416  0.00  0.00    +0.000 N 
ATOM      7  H   UNL     1       7.754   4.979  15.360  0.00  0.00    +0.000 HD
ATOM      8  H   UNL     1       8.663   4.143  16.526  0.00  0.00    +0.000 HD
ATOM      9  H   UNL     1       7.554   3.782  18.799  0.00  0.00    +0.000 HD
ENDROOT
BRANCH   4  10
ATOM     10  C   UNL     1       3.806   6.387  18.238  0.00  0.00    +0.000 C 
BRANCH  10  11
ATOM     11  C   UNL     1       2.771   5.375  18.669  0.00  0.00    +0.000 A 
ATOM     12  C   UNL     1       2.357   4.363  17.789  0.00  0.00    +0.000 A 
ATOM     13  C   UNL     1       1.432   3.397  18.195  0.00  0.00    +0.000 A 
ATOM     14  C   UNL     1       0.913   3.446  19.483  0.00  0.00    +0.000 A 
ATOM     15  C   UNL     1       1.306   4.441  20.370  0.00  0.00    +0.000 A 
ATOM     16  C   UNL     1       2.231   5.405  19.965  0.00  0.00    +0.000 A 
BRANCH  14  17
ATOM     17  O   UNL     1       0.006   2.525  19.920  0.00  0.00    +0.000 OA
ATOM     18  H   UNL     1      -0.087   2.621  20.882  0.00  0.00    +0.000 HD
ENDBRANCH  14  17
ENDBRANCH  10  11
ENDBRANCH   4  10
TORSDOF 3
ENDMDL
MODEL 2
REMARK VINA RESULT:      -6.5      0.993      1.349
REMARK  Name = 
REMARK  3 active torsions:
REMARK  status: ('A' for Active; 'I' for Inactive)
REMARK    1  A    between atoms: C_4  and  C_5
REMARK    2  A    between atoms: C_5  and  C_6
REMARK    3  A    between atoms: C_9  and  O_10
REMARK                            x       y       z     vdW  Elec       q    Type
REMARK                         _______ _______ _______ _____ _____    ______ ____
ROOT
ATOM      1  N   UNL     1       8.003   4.248  17.691  0.00  0.00    +0.000 N 
ATOM      2  C   UNL     1       6.865   4.824  17.286  0.00  0.00    +0.000 A 
ATOM      3  N   UNL     1       5.953   5.401  18.024  0.00  0.00    +0.000 NA
ATOM      4  C   UNL     1       4.993   5.867  17.145  0.00  0.00    +0.000 A 
ATOM      5  C   UNL     1       5.356   5.557  15.848  0.00  0.00    +0.000 A 
ATOM      6  N   UNL     1       6.542   4.887  15.960  0.00  0.00    +0.000 N 
ATOM      7  H   UNL     1       8.075   4.075  18.690  0.00  0.00    +0.000 HD
ATOM      8  H   UNL     1       8.493   3.570  17.124  0.00  0.00    +0.000 HD
ATOM      9  H   UNL     1       7.110   4.535  15.204  0.00  0.00    +0.000 HD
ENDROOT
BRANCH   4  10
ATOM     10  C   UNL     1       3.836   6.672  17.625  0.00  0.00    +0.000 C 
BRANCH  10  11
ATOM     11  C   UNL     1       2.919   5.741  18.382  0.00  0.00    +0.000 A 
ATOM     12  C   UNL     1       2.294   4.669  17.725  0.00  0.00    +0.000 A 
ATOM     13  C   UNL     1       1.479   3.777  18.427  0.00  0.00    +0.000 A 
ATOM     14  C   UNL     1       1.281   3.962  19.791  0.00  0.00    +0.000 A 
ATOM     15  C   UNL     1       1.885   5.018  20.461  0.00  0.00    +0.000 A 
ATOM     16  C   UNL     1       2.702   5.907  19.759  0.00  0.00    +0.000 A 
BRANCH  14  17
ATOM     17  O   UNL     1       0.490   3.117  20.515  0.00  0.00    +0.000 OA
ATOM     18  H   UNL     1       0.889   2.232  20.494  0.00  0.00    +0.000 HD
ENDBRANCH  14  17
ENDBRANCH  10  11
ENDBRANCH   4  10
TORSDOF 3
ENDMDL
MODEL 3
REMARK VINA RESULT:      -6.5      1.080      1.540
REMARK  Name = 
REMARK  3 active torsions:
REMARK  status: ('A' for Active; 'I' for Inactive)
REMARK    1  A    between atoms: C_4  and  C_5
REMARK    2  A    between atoms: C_5  and  C_6
REMARK    3  A    between atoms: C_9  and  O_10
REMARK                            x       y       z     vdW  Elec       q    Type
REMARK                         _______ _______ _______ _____ _____    ______ ____
ROOT
ATOM      1  N   UNL     1       8.250   5.478  19.923  0.00  0.00    +0.000 N 
ATOM      2  C   UNL     1       7.322   5.285  18.979  0.00  0.00    +0.000 A 
ATOM      3  N   UNL     1       6.145   5.846  18.887  0.00  0.00    +0.000 NA
ATOM      4  C   UNL     1       5.577   5.349  17.729  0.00  0.00    +0.000 A 
ATOM      5  C   UNL     1       6.452   4.471  17.118  0.00  0.00    +0.000 A 
ATOM      6  N   UNL     1       7.549   4.437  17.933  0.00  0.00    +0.000 N 
ATOM      7  H   UNL     1       7.933   5.968  20.755  0.00  0.00    +0.000 HD
ATOM      8  H   UNL     1       8.983   4.805  20.101  0.00  0.00    +0.000 HD
ATOM      9  H   UNL     1       8.400   3.917  17.777  0.00  0.00    +0.000 HD
ENDROOT
BRANCH   4  10
ATOM     10  C   UNL     1       4.259   5.843  17.244  0.00  0.00    +0.000 C 
BRANCH  10  11
ATOM     11  C   UNL     1       3.188   5.126  18.031  0.00  0.00    +0.000 A 
ATOM     12  C   UNL     1       2.622   3.937  17.543  0.00  0.00    +0.000 A 
ATOM     13  C   UNL     1       1.663   3.244  18.286  0.00  0.00    +0.000 A 
ATOM     14  C   UNL     1       1.261   3.744  19.519  0.00  0.00    +0.000 A 
ATOM     15  C   UNL     1       1.805   4.920  20.021  0.00  0.00    +0.000 A 
ATOM     16  C   UNL     1       2.765   5.612  19.280  0.00  0.00    +0.000 A 
BRANCH  14  17
ATOM     17  O   UNL     1       0.325   3.102  20.276  0.00  0.00    +0.000 OA
ATOM     18  H   UNL     1      -0.075   2.401  19.736  0.00  0.00    +0.000 HD
ENDBRANCH  14  17
ENDBRANCH  10  11
ENDBRANCH   4  10
TORSDOF 3
ENDMDL
MODEL 4
REMARK VINA RESULT:      -6.5      0.972      1.853
REMARK  Name = 
REMARK  3 active torsions:
REMARK  status: ('A' for Active; 'I' for Inactive)
REMARK    1  A    between atoms: C_4  and  C_5
REMARK    2  A    between atoms: C_5  and  C_6
REMARK    3  A    between atoms: C_9  and  O_10
REMARK                            x       y       z     vdW  Elec       q    Type
REMARK                         _______ _______ _______ _____ _____    ______ ____
ROOT
ATOM      1  N   UNL     1       7.914   4.339  17.784  0.00  0.00    +0.000 N 
ATOM      2  C   UNL     1       6.799   4.946  17.362  0.00  0.00    +0.000 A 
ATOM      3  N   UNL     1       5.825   5.428  18.088  0.00  0.00    +0.000 NA
ATOM      4  C   UNL     1       4.924   5.981  17.197  0.00  0.00    +0.000 A 
ATOM      5  C   UNL     1       5.387   5.823  15.905  0.00  0.00    +0.000 A 
ATOM      6  N   UNL     1       6.574   5.155  16.030  0.00  0.00    +0.000 N 
ATOM      7  H   UNL     1       7.915   4.055  18.760  0.00  0.00    +0.000 HD
ATOM      8  H   UNL     1       8.456   3.733  17.183  0.00  0.00    +0.000 HD
ATOM      9  H   UNL     1       7.202   4.896  15.284  0.00  0.00    +0.000 HD
ENDROOT
BRANCH   4  10
ATOM     10  C   UNL     1       3.721   6.717  17.675  0.00  0.00    +0.000 C 
BRANCH  10  11
ATOM     11  C   UNL     1       2.859   5.733  18.431  0.00  0.00    +0.000 A 
ATOM     12  C   UNL     1       2.618   5.906  19.803  0.00  0.00    +0.000 A 
ATOM     13  C   UNL     1       1.786   5.026  20.499  0.00  0.00    +0.000 A 
ATOM     14  C   UNL     1       1.197   3.963  19.823  0.00  0.00    +0.000 A 
ATOM     15  C   UNL     1       1.424   3.770  18.466  0.00  0.00    +0.000 A 
ATOM     16  C   UNL     1       2.254   4.651  17.770  0.00  0.00    +0.000 A 
BRANCH  14  17
ATOM     17  O   UNL     1       0.380   3.078  20.465  0.00  0.00    +0.000 OA
ATOM     18  H   UNL     1      -0.338   2.831  19.859  0.00  0.00    +0.000 HD
ENDBRANCH  14  17
ENDBRANCH  10  11
ENDBRANCH   4  10
TORSDOF 3
ENDMDL
MODEL 5
REMARK VINA RESULT:      -6.5      1.506      2.364
REMARK  Name = 
REMARK  3 active torsions:
REMARK  status: ('A' for Active; 'I' for Inactive)
REMARK    1  A    between atoms: C_4  and  C_5
REMARK    2  A    between atoms: C_5  and  C_6
REMARK    3  A    between atoms: C_9  and  O_10
REMARK                            x       y       z     vdW  Elec       q    Type
REMARK                         _______ _______ _______ _____ _____    ______ ____
ROOT
ATOM      1  N   UNL     1       8.021   5.552  19.894  0.00  0.00    +0.000 N 
ATOM      2  C   UNL     1       7.269   5.459  18.791  0.00  0.00    +0.000 A 
ATOM      3  N   UNL     1       6.584   4.427  18.373  0.00  0.00    +0.000 NA
ATOM      4  C   UNL     1       5.953   4.835  17.212  0.00  0.00    +0.000 A 
ATOM      5  C   UNL     1       6.275   6.151  16.943  0.00  0.00    +0.000 A 
ATOM      6  N   UNL     1       7.119   6.526  17.951  0.00  0.00    +0.000 N 
ATOM      7  H   UNL     1       8.233   4.670  20.354  0.00  0.00    +0.000 HD
ATOM      8  H   UNL     1       8.747   6.247  19.991  0.00  0.00    +0.000 HD
ATOM      9  H   UNL     1       7.529   7.438  18.087  0.00  0.00    +0.000 HD
ENDROOT
BRANCH   4  10
ATOM     10  C   UNL     1       4.999   3.942  16.500  0.00  0.00    +0.000 C 
BRANCH  10  11
ATOM     11  C   UNL     1       3.823   3.710  17.419  0.00  0.00    +0.000 A 
ATOM     12  C   UNL     1       2.953   4.765  17.740  0.00  0.00    +0.000 A 
ATOM     13  C   UNL     1       1.838   4.549  18.554  0.00  0.00    +0.000 A 
ATOM     14  C   UNL     1       1.594   3.275  19.055  0.00  0.00    +0.000 A 
ATOM     15  C   UNL     1       2.443   2.218  18.754  0.00  0.00    +0.000 A 
ATOM     16  C   UNL     1       3.556   2.433  17.939  0.00  0.00    +0.000 A 
BRANCH  14  17
ATOM     17  O   UNL     1       0.519   3.021  19.856  0.00  0.00    +0.000 OA
ATOM     18  H   UNL     1       0.539   3.643  20.600  0.00  0.00    +0.000 HD
ENDBRANCH  14  17
ENDBRANCH  10  11
ENDBRANCH   4  10
TORSDOF 3
ENDMDL
MODEL 6
REMARK VINA RESULT:      -6.4      1.497      2.213
REMARK  Name = 
REMARK  3 active torsions:
REMARK  status: ('A' for Active; 'I' for Inactive)
REMARK    1  A    between atoms: C_4  and  C_5
REMARK    2  A    between atoms: C_5  and  C_6
REMARK    3  A    between atoms: C_9  and  O_10
REMARK                            x       y       z     vdW  Elec       q    Type
REMARK                         _______ _______ _______ _____ _____    ______ ____
ROOT
ATOM      1  N   UNL     1       7.932   5.532  19.934  0.00  0.00    +0.000 N 
ATOM      2  C   UNL     1       7.193   5.444  18.821  0.00  0.00    +0.000 A 
ATOM      3  N   UNL     1       6.504   4.418  18.396  0.00  0.00    +0.000 NA
ATOM      4  C   UNL     1       5.893   4.830  17.226  0.00  0.00    +0.000 A 
ATOM      5  C   UNL     1       6.231   6.143  16.959  0.00  0.00    +0.000 A 
ATOM      6  N   UNL     1       7.065   6.511  17.978  0.00  0.00    +0.000 N 
ATOM      7  H   UNL     1       8.129   4.649  20.399  0.00  0.00    +0.000 HD
ATOM      8  H   UNL     1       8.664   6.221  20.039  0.00  0.00    +0.000 HD
ATOM      9  H   UNL     1       7.482   7.420  18.117  0.00  0.00    +0.000 HD
ENDROOT
BRANCH   4  10
ATOM     10  C   UNL     1       4.939   3.945  16.503  0.00  0.00    +0.000 C 
BRANCH  10  11
ATOM     11  C   UNL     1       3.750   3.724  17.409  0.00  0.00    +0.000 A 
ATOM     12  C   UNL     1       3.471   2.445  17.915  0.00  0.00    +0.000 A 
ATOM     13  C   UNL     1       2.399   2.240  18.789  0.00  0.00    +0.000 A 
ATOM     14  C   UNL     1       1.599   3.317  19.152  0.00  0.00    +0.000 A 
ATOM     15  C   UNL     1       1.854   4.591  18.660  0.00  0.00    +0.000 A 
ATOM     16  C   UNL     1       2.926   4.795  17.789  0.00  0.00    +0.000 A 
BRANCH  14  17
ATOM     17  O   UNL     1       0.540   3.162  19.999  0.00  0.00    +0.000 OA
ATOM     18  H   UNL     1      -0.038   2.469  19.642  0.00  0.00    +0.000 HD
ENDBRANCH  14  17
ENDBRANCH  10  11
ENDBRANCH   4  10
TORSDOF 3
ENDMDL
MODEL 7
REMARK VINA RESULT:      -6.4      1.408      2.231
REMARK  Name = 
REMARK  3 active torsions:
REMARK  status: ('A' for Active; 'I' for Inactive)
REMARK    1  A    between atoms: C_4  and  C_5
REMARK    2  A    between atoms: C_5  and  C_6
REMARK    3  A    between atoms: C_9  and  O_10
REMARK                            x       y       z     vdW  Elec       q    Type
REMARK                         _______ _______ _______ _____ _____    ______ ____
ROOT
ATOM      1  N   UNL     1       8.168   5.387  19.904  0.00  0.00    +0.000 N 
ATOM      2  C   UNL     1       7.320   5.496  18.874  0.00  0.00    +0.000 A 
ATOM      3  N   UNL     1       6.028   5.691  18.918  0.00  0.00    +0.000 NA
ATOM      4  C   UNL     1       5.610   5.763  17.603  0.00  0.00    +0.000 A 
ATOM      5  C   UNL     1       6.693   5.611  16.759  0.00  0.00    +0.000 A 
ATOM      6  N   UNL     1       7.768   5.432  17.585  0.00  0.00    +0.000 N 
ATOM      7  H   UNL     1       7.737   5.254  20.814  0.00  0.00    +0.000 HD
ATOM      8  H   UNL     1       9.070   4.941  19.811  0.00  0.00    +0.000 HD
ATOM      9  H   UNL     1       8.731   5.317  17.307  0.00  0.00    +0.000 HD
ENDROOT
BRANCH   4  10
ATOM     10  C   UNL     1       4.196   6.078  17.261  0.00  0.00    +0.000 C 
BRANCH  10  11
ATOM     11  C   UNL     1       3.357   4.887  17.659  0.00  0.00    +0.000 A 
ATOM     12  C   UNL     1       2.217   5.056  18.462  0.00  0.00    +0.000 A 
ATOM     13  C   UNL     1       1.411   3.965  18.798  0.00  0.00    +0.000 A 
ATOM     14  C   UNL     1       1.749   2.698  18.336  0.00  0.00    +0.000 A 
ATOM     15  C   UNL     1       2.874   2.506  17.544  0.00  0.00    +0.000 A 
ATOM     16  C   UNL     1       3.678   3.596  17.206  0.00  0.00    +0.000 A 
BRANCH  14  17
ATOM     17  O   UNL     1       0.992   1.605  18.643  0.00  0.00    +0.000 OA
ATOM     18  H   UNL     1       0.757   1.651  19.584  0.00  0.00    +0.000 HD
ENDBRANCH  14  17
ENDBRANCH  10  11
ENDBRANCH   4  10
TORSDOF 3
ENDMDL
MODEL 8
REMARK VINA RESULT:      -6.4      1.146      2.017
REMARK  Name = 
REMARK  3 active torsions:
REMARK  status: ('A' for Active; 'I' for Inactive)
REMARK    1  A    between atoms: C_4  and  C_5
REMARK    2  A    between atoms: C_5  and  C_6
REMARK    3  A    between atoms: C_9  and  O_10
REMARK                            x       y       z     vdW  Elec       q    Type
REMARK                         _______ _______ _______ _____ _____    ______ ____
ROOT
ATOM      1  N   UNL     1       8.267   5.455  19.967  0.00  0.00    +0.000 N 
ATOM      2  C   UNL     1       7.400   5.221  18.975  0.00  0.00    +0.000 A 
ATOM      3  N   UNL     1       6.181   5.676  18.853  0.00  0.00    +0.000 NA
ATOM      4  C   UNL     1       5.709   5.182  17.651  0.00  0.00    +0.000 A 
ATOM      5  C   UNL     1       6.687   4.416  17.045  0.00  0.00    +0.000 A 
ATOM      6  N   UNL     1       7.748   4.444  17.906  0.00  0.00    +0.000 N 
ATOM      7  H   UNL     1       7.872   5.877  20.804  0.00  0.00    +0.000 HD
ATOM      8  H   UNL     1       9.051   4.844  20.150  0.00  0.00    +0.000 HD
ATOM      9  H   UNL     1       8.649   4.011  17.768  0.00  0.00    +0.000 HD
ENDROOT
BRANCH   4  10
ATOM     10  C   UNL     1       4.372   5.575  17.129  0.00  0.00    +0.000 C 
BRANCH  10  11
ATOM     11  C   UNL     1       3.332   4.906  17.995  0.00  0.00    +0.000 A 
ATOM     12  C   UNL     1       2.645   5.639  18.976  0.00  0.00    +0.000 A 
ATOM     13  C   UNL     1       1.649   5.037  19.751  0.00  0.00    +0.000 A 
ATOM     14  C   UNL     1       1.344   3.696  19.551  0.00  0.00    +0.000 A 
ATOM     15  C   UNL     1       2.013   2.951  18.588  0.00  0.00    +0.000 A 
ATOM     16  C   UNL     1       3.006   3.552  17.812  0.00  0.00    +0.000 A 
BRANCH  14  17
ATOM     17  O   UNL     1       0.382   3.069  20.287  0.00  0.00    +0.000 OA
ATOM     18  H   UNL     1      -0.428   3.604  20.251  0.00  0.00    +0.000 HD
ENDBRANCH  14  17
ENDBRANCH  10  11
ENDBRANCH   4  10
TORSDOF 3
ENDMDL
MODEL 9
REMARK VINA RESULT:      -6.4      1.468      1.745
REMARK  Name = 
REMARK  3 active torsions:
REMARK  status: ('A' for Active; 'I' for Inactive)
REMARK    1  A    between atoms: C_4  and  C_5
REMARK    2  A    between atoms: C_5  and  C_6
REMARK    3  A    between atoms: C_9  and  O_10
REMARK                            x       y       z     vdW  Elec       q    Type
REMARK                         _______ _______ _______ _____ _____    ______ ____
ROOT
ATOM      1  N   UNL     1       7.945   4.310  17.785  0.00  0.00    +0.000 N 
ATOM      2  C   UNL     1       6.656   4.385  17.433  0.00  0.00    +0.000 A 
ATOM      3  N   UNL     1       5.674   4.931  18.100  0.00  0.00    +0.000 NA
ATOM      4  C   UNL     1       4.549   4.783  17.310  0.00  0.00    +0.000 A 
ATOM      5  C   UNL     1       4.884   4.134  16.137  0.00  0.00    +0.000 A 
ATOM      6  N   UNL     1       6.224   3.881  16.239  0.00  0.00    +0.000 N 
ATOM      7  H   UNL     1       8.146   4.532  18.757  0.00  0.00    +0.000 HD
ATOM      8  H   UNL     1       8.571   3.625  17.386  0.00  0.00    +0.000 HD
ATOM      9  H   UNL     1       6.809   3.441  15.545  0.00  0.00    +0.000 HD
ENDROOT
BRANCH   4  10
ATOM     10  C   UNL     1       3.244   5.377  17.709  0.00  0.00    +0.000 C 
BRANCH  10  11
ATOM     11  C   UNL     1       2.728   4.586  18.888  0.00  0.00    +0.000 A 
ATOM     12  C   UNL     1       2.445   3.217  18.757  0.00  0.00    +0.000 A 
ATOM     13  C   UNL     1       2.009   2.468  19.854  0.00  0.00    +0.000 A 
ATOM     14  C   UNL     1       1.848   3.092  21.085  0.00  0.00    +0.000 A 
ATOM     15  C   UNL     1       2.118   4.446  21.238  0.00  0.00    +0.000 A 
ATOM     16  C   UNL     1       2.555   5.193  20.142  0.00  0.00    +0.000 A 
BRANCH  14  17
ATOM     17  O   UNL     1       1.422   2.400  22.182  0.00  0.00    +0.000 OA
ATOM     18  H   UNL     1       1.301   3.029  22.911  0.00  0.00    +0.000 HD
ENDBRANCH  14  17
ENDBRANCH  10  11
ENDBRANCH   4  10
TORSDOF 3
ENDMDL
