MODEL 1
REMARK VINA RESULT:      -7.7      0.000      0.000
REMARK  Name = 
REMARK  4 active torsions:
REMARK  status: ('A' for Active; 'I' for Inactive)
REMARK    1  A    between atoms: C_1  and  N_2
REMARK    2  A    between atoms: N_5  and  C_6
REMARK    3  A    between atoms: C_6  and  C_7
REMARK    4  A    between atoms: C_15  and  O_16
REMARK                            x       y       z     vdW  Elec       q    Type
REMARK                         _______ _______ _______ _____ _____    ______ ____
ROOT
ATOM      1  C   UNL     1       3.625   4.326  19.371  0.00  0.00    +0.000 C 
ATOM      2  C   UNL     1       2.986   4.541  20.788  0.00  0.00    +0.000 C 
ATOM      3  C   UNL     1       1.745   3.657  20.974  0.00  0.00    +0.000 C 
ATOM      4  C   UNL     1       0.678   4.052  19.945  0.00  0.00    +0.000 C 
ATOM      5  C   UNL     1       1.243   3.841  18.531  0.00  0.00    +0.000 C 
ATOM      6  C   UNL     1       1.604   2.352  18.346  0.00  0.00    +0.000 C 
ATOM      7  C   UNL     1       2.697   1.952  19.363  0.00  0.00    +0.000 C 
ATOM      8  C   UNL     1       2.133   2.171  20.790  0.00  0.00    +0.000 C 
ATOM      9  C   UNL     1       3.963   2.827  19.119  0.00  0.00    +0.000 C 
ATOM     10  C   UNL     1       2.507   4.716  18.337  0.00  0.00    +0.000 C 
ENDROOT
BRANCH   9  11
ATOM     11  O   UNL     1       5.071   2.379  19.864  0.00  0.00    +0.000 OA
ATOM     12  H   UNL     1       5.267   1.436  19.622  0.00  0.00    +0.000 HD
ENDBRANCH   9  11
BRANCH   1  13
ATOM     13  C   UNL     1       4.868   5.274  19.093  0.00  0.00    +0.000 C 
BRANCH  13  18
ATOM     14  C   UNL     1       8.122   8.568  17.781  0.00  0.00    +0.000 C 
ATOM     15  N   UNL     1       7.592   7.218  17.538  0.00  0.00    +0.000 NA
ATOM     16  C   UNL     1       6.184   7.261  17.087  0.00  0.00    +0.000 C 
ATOM     17  C   UNL     1       5.645   5.827  16.824  0.00  0.00    +0.000 C 
ATOM     18  N   UNL     1       5.828   4.932  17.992  0.00  0.00    +0.000 NA
ATOM     19  C   UNL     1       7.277   4.935  18.304  0.00  0.00    +0.000 C 
ATOM     20  C   UNL     1       7.754   6.336  18.706  0.00  0.00    +0.000 C 
ENDBRANCH  13  18
ENDBRANCH   1  13
TORSDOF 3
ENDMDL
MODEL 2
REMARK VINA RESULT:      -7.5      1.495      2.188
REMARK  Name = 
REMARK  4 active torsions:
REMARK  status: ('A' for Active; 'I' for Inactive)
REMARK    1  A    between atoms: C_1  and  N_2
REMARK    2  A    between atoms: N_5  and  C_6
REMARK    3  A    between atoms: C_6  and  C_7
REMARK    4  A    between atoms: C_15  and  O_16
REMARK                            x       y       z     vdW  Elec       q    Type
REMARK                         _______ _______ _______ _____ _____    ______ ____
ROOT
ATOM      1  C   UNL     1       3.414   3.801  18.736  0.00  0.00    +0.000 C 
ATOM      2  C   UNL     1       3.372   4.922  19.833  0.00  0.00    +0.000 C 
ATOM      3  C   UNL     1       2.300   4.620  20.890  0.00  0.00    +0.000 C 
ATOM      4  C   UNL     1       0.918   4.604  20.223  0.00  0.00    +0.000 C 
ATOM      5  C   UNL     1       0.893   3.506  19.148  0.00  0.00    +0.000 C 
ATOM      6  C   UNL     1       1.155   2.138  19.814  0.00  0.00    +0.000 C 
ATOM      7  C   UNL     1       2.557   2.138  20.466  0.00  0.00    +0.000 C 
ATOM      8  C   UNL     1       2.588   3.249  21.546  0.00  0.00    +0.000 C 
ATOM      9  C   UNL     1       3.630   2.393  19.366  0.00  0.00    +0.000 C 
ATOM     10  C   UNL     1       1.983   3.791  18.085  0.00  0.00    +0.000 C 
ENDROOT
BRANCH   9  11
ATOM     11  O   UNL     1       4.939   2.198  19.844  0.00  0.00    +0.000 OA
ATOM     12  H   UNL     1       5.473   3.017  19.678  0.00  0.00    +0.000 HD
ENDBRANCH   9  11
BRANCH   1  13
ATOM     13  C   UNL     1       4.453   4.101  17.573  0.00  0.00    +0.000 C 
BRANCH  13  18
ATOM     14  C   UNL     1       7.449   5.039  13.925  0.00  0.00    +0.000 C 
ATOM     15  N   UNL     1       6.981   5.461  15.254  0.00  0.00    +0.000 NA
ATOM     16  C   UNL     1       7.268   4.436  16.280  0.00  0.00    +0.000 C 
ATOM     17  C   UNL     1       6.778   4.904  17.680  0.00  0.00    +0.000 C 
ATOM     18  N   UNL     1       5.349   5.301  17.673  0.00  0.00    +0.000 NA
ATOM     19  C   UNL     1       5.209   6.363  16.649  0.00  0.00    +0.000 C 
ATOM     20  C   UNL     1       5.557   5.833  15.252  0.00  0.00    +0.000 C 
ENDBRANCH  13  18
ENDBRANCH   1  13
TORSDOF 3
ENDMDL
MODEL 3
REMARK VINA RESULT:      -7.5      0.939      1.149
REMARK  Name = 
REMARK  4 active torsions:
REMARK  status: ('A' for Active; 'I' for Inactive)
REMARK    1  A    between atoms: C_1  and  N_2
REMARK    2  A    between atoms: N_5  and  C_6
REMARK    3  A    between atoms: C_6  and  C_7
REMARK    4  A    between atoms: C_15  and  O_16
REMARK                            x       y       z     vdW  Elec       q    Type
REMARK                         _______ _______ _______ _____ _____    ______ ____
ROOT
ATOM      1  C   UNL     1       3.865   4.016  19.113  0.00  0.00    +0.000 C 
ATOM      2  C   UNL     1       3.578   3.181  20.411  0.00  0.00    +0.000 C 
ATOM      3  C   UNL     1       2.123   2.691  20.440  0.00  0.00    +0.000 C 
ATOM      4  C   UNL     1       1.178   3.899  20.475  0.00  0.00    +0.000 C 
ATOM      5  C   UNL     1       1.402   4.746  19.211  0.00  0.00    +0.000 C 
ATOM      6  C   UNL     1       1.092   3.890  17.965  0.00  0.00    +0.000 C 
ATOM      7  C   UNL     1       2.057   2.683  17.910  0.00  0.00    +0.000 C 
ATOM      8  C   UNL     1       1.840   1.831  19.186  0.00  0.00    +0.000 C 
ATOM      9  C   UNL     1       3.522   3.208  17.827  0.00  0.00    +0.000 C 
ATOM     10  C   UNL     1       2.872   5.233  19.162  0.00  0.00    +0.000 C 
ENDROOT
BRANCH   9  11
ATOM     11  O   UNL     1       4.442   2.176  17.561  0.00  0.00    +0.000 OA
ATOM     12  H   UNL     1       3.964   1.412  17.147  0.00  0.00    +0.000 HD
ENDBRANCH   9  11
BRANCH   1  13
ATOM     13  C   UNL     1       5.335   4.616  19.067  0.00  0.00    +0.000 C 
BRANCH  13  18
ATOM     14  C   UNL     1       7.789   8.510  17.661  0.00  0.00    +0.000 C 
ATOM     15  N   UNL     1       7.428   7.120  17.344  0.00  0.00    +0.000 NA
ATOM     16  C   UNL     1       5.972   6.974  17.133  0.00  0.00    +0.000 C 
ATOM     17  C   UNL     1       5.609   5.502  16.787  0.00  0.00    +0.000 C 
ATOM     18  N   UNL     1       6.125   4.543  17.794  0.00  0.00    +0.000 NA
ATOM     19  C   UNL     1       7.590   4.754  17.868  0.00  0.00    +0.000 C 
ATOM     20  C   UNL     1       7.921   6.171  18.355  0.00  0.00    +0.000 C 
ENDBRANCH  13  18
ENDBRANCH   1  13
TORSDOF 3
ENDMDL
MODEL 4
REMARK VINA RESULT:      -7.4      1.659      2.856
REMARK  Name = 
REMARK  4 active torsions:
REMARK  status: ('A' for Active; 'I' for Inactive)
REMARK    1  A    between atoms: C_1  and  N_2
REMARK    2  A    between atoms: N_5  and  C_6
REMARK    3  A    between atoms: C_6  and  C_7
REMARK    4  A    between atoms: C_15  and  O_16
REMARK                            x       y       z     vdW  Elec       q    Type
REMARK                         _______ _______ _______ _____ _____    ______ ____
ROOT
ATOM      1  C   UNL     1       3.467   3.697  18.658  0.00  0.00    +0.000 C 
ATOM      2  C   UNL     1       2.177   4.121  17.872  0.00  0.00    +0.000 C 
ATOM      3  C   UNL     1       0.912   3.845  18.698  0.00  0.00    +0.000 C 
ATOM      4  C   UNL     1       0.794   2.338  18.961  0.00  0.00    +0.000 C 
ATOM      5  C   UNL     1       2.027   1.868  19.750  0.00  0.00    +0.000 C 
ATOM      6  C   UNL     1       2.084   2.619  21.097  0.00  0.00    +0.000 C 
ATOM      7  C   UNL     1       2.229   4.137  20.841  0.00  0.00    +0.000 C 
ATOM      8  C   UNL     1       0.991   4.612  20.039  0.00  0.00    +0.000 C 
ATOM      9  C   UNL     1       3.545   4.395  20.047  0.00  0.00    +0.000 C 
ATOM     10  C   UNL     1       3.311   2.157  18.932  0.00  0.00    +0.000 C 
ENDROOT
BRANCH   9  11
ATOM     11  O   UNL     1       3.853   5.765  19.961  0.00  0.00    +0.000 OA
ATOM     12  H   UNL     1       3.045   6.296  20.186  0.00  0.00    +0.000 HD
ENDBRANCH   9  11
BRANCH   1  13
ATOM     13  C   UNL     1       4.802   3.887  17.819  0.00  0.00    +0.000 C 
BRANCH  13  18
ATOM     14  C   UNL     1       7.305   4.966  13.851  0.00  0.00    +0.000 C 
ATOM     15  N   UNL     1       6.835   5.444  15.161  0.00  0.00    +0.000 NA
ATOM     16  C   UNL     1       7.397   4.637  16.265  0.00  0.00    +0.000 C 
ATOM     17  C   UNL     1       6.899   5.164  17.642  0.00  0.00    +0.000 C 
ATOM     18  N   UNL     1       5.421   5.250  17.711  0.00  0.00    +0.000 NA
ATOM     19  C   UNL     1       4.994   6.124  16.592  0.00  0.00    +0.000 C 
ATOM     20  C   UNL     1       5.366   5.508  15.237  0.00  0.00    +0.000 C 
ENDBRANCH  13  18
ENDBRANCH   1  13
TORSDOF 3
ENDMDL
MODEL 5
REMARK VINA RESULT:      -7.3      1.030      1.760
REMARK  Name = 
REMARK  4 active torsions:
REMARK  status: ('A' for Active; 'I' for Inactive)
REMARK    1  A    between atoms: C_1  and  N_2
REMARK    2  A    between atoms: N_5  and  C_6
REMARK    3  A    between atoms: C_6  and  C_7
REMARK    4  A    between atoms: C_15  and  O_16
REMARK                            x       y       z     vdW  Elec       q    Type
REMARK                         _______ _______ _______ _____ _____    ______ ____
ROOT
ATOM      1  C   UNL     1       3.491   4.381  19.271  0.00  0.00    +0.000 C 
ATOM      2  C   UNL     1       4.114   3.047  19.815  0.00  0.00    +0.000 C 
ATOM      3  C   UNL     1       3.023   2.096  20.326  0.00  0.00    +0.000 C 
ATOM      4  C   UNL     1       2.286   2.750  21.502  0.00  0.00    +0.000 C 
ATOM      5  C   UNL     1       1.635   4.057  21.021  0.00  0.00    +0.000 C 
ATOM      6  C   UNL     1       0.624   3.737  19.899  0.00  0.00    +0.000 C 
ATOM      7  C   UNL     1       1.363   3.100  18.699  0.00  0.00    +0.000 C 
ATOM      8  C   UNL     1       2.027   1.786  19.183  0.00  0.00    +0.000 C 
ATOM      9  C   UNL     1       2.428   4.105  18.167  0.00  0.00    +0.000 C 
ATOM     10  C   UNL     1       2.726   5.019  20.487  0.00  0.00    +0.000 C 
ENDROOT
BRANCH   9  11
ATOM     11  O   UNL     1       2.994   3.684  16.949  0.00  0.00    +0.000 OA
ATOM     12  H   UNL     1       3.260   4.481  16.420  0.00  0.00    +0.000 HD
ENDBRANCH   9  11
BRANCH   1  13
ATOM     13  C   UNL     1       4.581   5.436  18.801  0.00  0.00    +0.000 C 
BRANCH  13  18
ATOM     14  C   UNL     1       8.135   8.499  17.728  0.00  0.00    +0.000 C 
ATOM     15  N   UNL     1       7.482   7.226  17.387  0.00  0.00    +0.000 NA
ATOM     16  C   UNL     1       6.086   7.435  16.945  0.00  0.00    +0.000 C 
ATOM     17  C   UNL     1       5.415   6.081  16.577  0.00  0.00    +0.000 C 
ATOM     18  N   UNL     1       5.510   5.089  17.675  0.00  0.00    +0.000 NA
ATOM     19  C   UNL     1       6.951   4.932  17.982  0.00  0.00    +0.000 C 
ATOM     20  C   UNL     1       7.556   6.249  18.485  0.00  0.00    +0.000 C 
ENDBRANCH  13  18
ENDBRANCH   1  13
TORSDOF 3
ENDMDL
MODEL 6
REMARK VINA RESULT:      -7.2      1.181      2.192
REMARK  Name = 
REMARK  4 active torsions:
REMARK  status: ('A' for Active; 'I' for Inactive)
REMARK    1  A    between atoms: C_1  and  N_2
REMARK    2  A    between atoms: N_5  and  C_6
REMARK    3  A    between atoms: C_6  and  C_7
REMARK    4  A    between atoms: C_15  and  O_16
REMARK                            x       y       z     vdW  Elec       q    Type
REMARK                         _______ _______ _______ _____ _____    ______ ____
ROOT
ATOM      1  C   UNL     1       3.479   4.440  19.396  0.00  0.00    +0.000 C 
ATOM      2  C   UNL     1       2.508   4.242  18.179  0.00  0.00    +0.000 C 
ATOM      3  C   UNL     1       1.369   3.275  18.533  0.00  0.00    +0.000 C 
ATOM      4  C   UNL     1       1.955   1.895  18.859  0.00  0.00    +0.000 C 
ATOM      5  C   UNL     1       2.903   2.024  20.062  0.00  0.00    +0.000 C 
ATOM      6  C   UNL     1       2.110   2.542  21.280  0.00  0.00    +0.000 C 
ATOM      7  C   UNL     1       1.537   3.944  20.969  0.00  0.00    +0.000 C 
ATOM      8  C   UNL     1       0.586   3.819  19.752  0.00  0.00    +0.000 C 
ATOM      9  C   UNL     1       2.715   4.918  20.665  0.00  0.00    +0.000 C 
ATOM     10  C   UNL     1       4.048   3.011  19.722  0.00  0.00    +0.000 C 
ENDROOT
BRANCH   9  11
ATOM     11  O   UNL     1       2.289   6.257  20.581  0.00  0.00    +0.000 OA
ATOM     12  H   UNL     1       1.408   6.291  20.125  0.00  0.00    +0.000 HD
ENDBRANCH   9  11
BRANCH   1  13
ATOM     13  C   UNL     1       4.722   5.370  19.061  0.00  0.00    +0.000 C 
BRANCH  13  18
ATOM     14  C   UNL     1       8.139   8.504  17.769  0.00  0.00    +0.000 C 
ATOM     15  N   UNL     1       7.523   7.196  17.499  0.00  0.00    +0.000 NA
ATOM     16  C   UNL     1       6.110   7.338  17.085  0.00  0.00    +0.000 C 
ATOM     17  C   UNL     1       5.478   5.949  16.791  0.00  0.00    +0.000 C 
ATOM     18  N   UNL     1       5.634   5.007  17.926  0.00  0.00    +0.000 NA
ATOM     19  C   UNL     1       7.087   4.912  18.202  0.00  0.00    +0.000 C 
ATOM     20  C   UNL     1       7.658   6.269  18.634  0.00  0.00    +0.000 C 
ENDBRANCH  13  18
ENDBRANCH   1  13
TORSDOF 3
ENDMDL
MODEL 7
REMARK VINA RESULT:      -7.1      1.701      2.761
REMARK  Name = 
REMARK  4 active torsions:
REMARK  status: ('A' for Active; 'I' for Inactive)
REMARK    1  A    between atoms: C_1  and  N_2
REMARK    2  A    between atoms: N_5  and  C_6
REMARK    3  A    between atoms: C_6  and  C_7
REMARK    4  A    between atoms: C_15  and  O_16
REMARK                            x       y       z     vdW  Elec       q    Type
REMARK                         _______ _______ _______ _____ _____    ______ ____
ROOT
ATOM      1  C   UNL     1       3.530   3.755  18.973  0.00  0.00    +0.000 C 
ATOM      2  C   UNL     1       3.441   2.384  19.732  0.00  0.00    +0.000 C 
ATOM      3  C   UNL     1       2.158   2.300  20.571  0.00  0.00    +0.000 C 
ATOM      4  C   UNL     1       2.177   3.398  21.643  0.00  0.00    +0.000 C 
ATOM      5  C   UNL     1       2.242   4.770  20.953  0.00  0.00    +0.000 C 
ATOM      6  C   UNL     1       0.996   4.949  20.060  0.00  0.00    +0.000 C 
ATOM      7  C   UNL     1       0.984   3.862  18.961  0.00  0.00    +0.000 C 
ATOM      8  C   UNL     1       0.925   2.476  19.653  0.00  0.00    +0.000 C 
ATOM      9  C   UNL     1       2.270   4.002  18.093  0.00  0.00    +0.000 C 
ATOM     10  C   UNL     1       3.526   4.860  20.090  0.00  0.00    +0.000 C 
ENDROOT
BRANCH   9  11
ATOM     11  O   UNL     1       2.228   3.186  16.946  0.00  0.00    +0.000 OA
ATOM     12  H   UNL     1       1.296   2.879  16.798  0.00  0.00    +0.000 HD
ENDBRANCH   9  11
BRANCH   1  13
ATOM     13  C   UNL     1       4.877   3.929  18.150  0.00  0.00    +0.000 C 
BRANCH  13  18
ATOM     14  C   UNL     1       7.198   4.945  14.058  0.00  0.00    +0.000 C 
ATOM     15  N   UNL     1       6.776   5.448  15.374  0.00  0.00    +0.000 NA
ATOM     16  C   UNL     1       7.394   4.674  16.473  0.00  0.00    +0.000 C 
ATOM     17  C   UNL     1       6.948   5.227  17.856  0.00  0.00    +0.000 C 
ATOM     18  N   UNL     1       5.472   5.296  17.985  0.00  0.00    +0.000 NA
ATOM     19  C   UNL     1       4.988   6.138  16.866  0.00  0.00    +0.000 C 
ATOM     20  C   UNL     1       5.312   5.496  15.511  0.00  0.00    +0.000 C 
ENDBRANCH  13  18
ENDBRANCH   1  13
TORSDOF 3
ENDMDL
MODEL 8
REMARK VINA RESULT:      -7.1      1.333      2.335
REMARK  Name = 
REMARK  4 active torsions:
REMARK  status: ('A' for Active; 'I' for Inactive)
REMARK    1  A    between atoms: C_1  and  N_2
REMARK    2  A    between atoms: N_5  and  C_6
REMARK    3  A    between atoms: C_6  and  C_7
REMARK    4  A    between atoms: C_15  and  O_16
REMARK                            x       y       z     vdW  Elec       q    Type
REMARK                         _______ _______ _______ _____ _____    ______ ____
ROOT
ATOM      1  C   UNL     1       3.913   4.208  19.026  0.00  0.00    +0.000 C 
ATOM      2  C   UNL     1       3.668   3.427  17.688  0.00  0.00    +0.000 C 
ATOM      3  C   UNL     1       2.274   2.783  17.671  0.00  0.00    +0.000 C 
ATOM      4  C   UNL     1       2.173   1.756  18.807  0.00  0.00    +0.000 C 
ATOM      5  C   UNL     1       2.386   2.472  20.150  0.00  0.00    +0.000 C 
ATOM      6  C   UNL     1       1.291   3.544  20.333  0.00  0.00    +0.000 C 
ATOM      7  C   UNL     1       1.401   4.597  19.206  0.00  0.00    +0.000 C 
ATOM      8  C   UNL     1       1.195   3.877  17.850  0.00  0.00    +0.000 C 
ATOM      9  C   UNL     1       2.804   5.271  19.278  0.00  0.00    +0.000 C 
ATOM     10  C   UNL     1       3.784   3.140  20.172  0.00  0.00    +0.000 C 
ENDROOT
BRANCH   9  11
ATOM     11  O   UNL     1       2.902   6.385  18.422  0.00  0.00    +0.000 OA
ATOM     12  H   UNL     1       3.230   6.086  17.534  0.00  0.00    +0.000 HD
ENDBRANCH   9  11
BRANCH   1  13
ATOM     13  C   UNL     1       5.371   4.829  19.131  0.00  0.00    +0.000 C 
BRANCH  13  18
ATOM     14  C   UNL     1       7.941   8.685  17.831  0.00  0.00    +0.000 C 
ATOM     15  N   UNL     1       7.636   7.274  17.547  0.00  0.00    +0.000 NA
ATOM     16  C   UNL     1       6.219   7.093  17.165  0.00  0.00    +0.000 C 
ATOM     17  C   UNL     1       5.918   5.598  16.857  0.00  0.00    +0.000 C 
ATOM     18  N   UNL     1       6.314   4.703  17.971  0.00  0.00    +0.000 NA
ATOM     19  C   UNL     1       7.756   4.942  18.215  0.00  0.00    +0.000 C 
ATOM     20  C   UNL     1       8.009   6.388  18.662  0.00  0.00    +0.000 C 
ENDBRANCH  13  18
ENDBRANCH   1  13
TORSDOF 3
ENDMDL
MODEL 9
REMARK VINA RESULT:      -7.0      2.121      6.009
REMARK  Name = 
REMARK  4 active torsions:
REMARK  status: ('A' for Active; 'I' for Inactive)
REMARK    1  A    between atoms: C_1  and  N_2
REMARK    2  A    between atoms: N_5  and  C_6
REMARK    3  A    between atoms: C_6  and  C_7
REMARK    4  A    between atoms: C_15  and  O_16
REMARK                            x       y       z     vdW  Elec       q    Type
REMARK                         _______ _______ _______ _____ _____    ______ ____
ROOT
ATOM      1  C   UNL     1       5.058   5.343  17.899  0.00  0.00    +0.000 C 
ATOM      2  C   UNL     1       5.271   6.790  17.328  0.00  0.00    +0.000 C 
ATOM      3  C   UNL     1       6.743   7.025  16.958  0.00  0.00    +0.000 C 
ATOM      4  C   UNL     1       7.609   6.916  18.220  0.00  0.00    +0.000 C 
ATOM      5  C   UNL     1       7.455   5.507  18.813  0.00  0.00    +0.000 C 
ATOM      6  C   UNL     1       7.928   4.466  17.777  0.00  0.00    +0.000 C 
ATOM      7  C   UNL     1       7.044   4.552  16.512  0.00  0.00    +0.000 C 
ATOM      8  C   UNL     1       7.191   5.975  15.915  0.00  0.00    +0.000 C 
ATOM      9  C   UNL     1       5.565   4.257  16.905  0.00  0.00    +0.000 C 
ATOM     10  C   UNL     1       5.970   5.251  19.175  0.00  0.00    +0.000 C 
ENDROOT
BRANCH   9  11
ATOM     11  O   UNL     1       4.735   4.109  15.778  0.00  0.00    +0.000 OA
ATOM     12  H   UNL     1       3.801   4.332  16.029  0.00  0.00    +0.000 HD
ENDBRANCH   9  11
BRANCH   1  13
ATOM     13  C   UNL     1       3.566   5.071  18.371  0.00  0.00    +0.000 C 
BRANCH  13  18
ATOM     14  C   UNL     1       1.339   2.626  21.868  0.00  0.00    +0.000 C 
ATOM     15  N   UNL     1       1.704   2.650  20.444  0.00  0.00    +0.000 NA
ATOM     16  C   UNL     1       3.171   2.625  20.260  0.00  0.00    +0.000 C 
ATOM     17  C   UNL     1       3.539   2.638  18.749  0.00  0.00    +0.000 C 
ATOM     18  N   UNL     1       2.907   3.768  18.026  0.00  0.00    +0.000 NA
ATOM     19  C   UNL     1       1.446   3.646  18.244  0.00  0.00    +0.000 C 
ATOM     20  C   UNL     1       1.095   3.785  19.731  0.00  0.00    +0.000 C 
ENDBRANCH  13  18
ENDBRANCH   1  13
TORSDOF 3
ENDMDL
