MODEL 1
REMARK VINA RESULT:      -7.4      0.000      0.000
REMARK  Name = 
REMARK  5 active torsions:
REMARK  status: ('A' for Active; 'I' for Inactive)
REMARK    1  A    between atoms: C_1  and  N_2
REMARK    2  A    between atoms: C_5  and  O_6
REMARK    3  A    between atoms: C_5  and  C_7
REMARK    4  A    between atoms: C_10  and  C_11
REMARK    5  A    between atoms: C_10  and  C_12
REMARK                            x       y       z     vdW  Elec       q    Type
REMARK                         _______ _______ _______ _____ _____    ______ ____
ROOT
ATOM      1  C   UNL     1       2.240   3.850  21.611  0.00  0.00    +0.000 C 
ATOM      2  N   UNL     1       2.615   4.477  20.374  0.00  0.00    +0.000 N 
ATOM      3  C   UNL     1       3.154   3.795  19.284  0.00  0.00    +0.000 C 
ATOM      4  O   UNL     1       3.380   2.593  19.208  0.00  0.00    +0.000 OA
ATOM      5  C   UNL     1       3.422   4.843  18.142  0.00  0.00    +0.000 C 
ATOM      6  C   UNL     1       2.699   6.049  18.712  0.00  0.00    +0.000 A 
ATOM      7  C   UNL     1       2.429   7.277  18.125  0.00  0.00    +0.000 A 
ATOM      8  C   UNL     1       1.860   8.274  18.916  0.00  0.00    +0.000 A 
ATOM      9 BR   UNL     1       1.550   9.986  18.173  0.00  0.00    +0.000 Br
ATOM     10  C   UNL     1       1.535   8.037  20.261  0.00  0.00    +0.000 A 
ATOM     11  C   UNL     1       1.754   6.780  20.832  0.00  0.00    +0.000 A 
ATOM     12  C   UNL     1       2.331   5.803  20.040  0.00  0.00    +0.000 A 
ENDROOT
BRANCH   5  13
ATOM     13  C   UNL     1       4.945   5.087  18.040  0.00  0.00    +0.000 C 
ATOM     14  C   UNL     1       5.761   3.896  17.554  0.00  0.00    +0.000 C 
ATOM     15  O   UNL     1       5.511   3.607  16.183  0.00  0.00    +0.000 OA
ATOM     16  C   UNL     1       5.921   4.640  15.270  0.00  0.00    +0.000 C 
ATOM     17  C   UNL     1       5.464   4.170  13.882  0.00  0.00    +0.000 C 
ATOM     18  C   UNL     1       7.452   4.788  15.239  0.00  0.00    +0.000 C 
ATOM     19  C   UNL     1       5.228   5.962  15.614  0.00  0.00    +0.000 C 
ATOM     20  C   UNL     1       5.296   6.223  17.102  0.00  0.00    +0.000 C 
ATOM     21  O   UNL     1       5.575   7.344  17.533  0.00  0.00    +0.000 OA
ENDBRANCH   5  13
BRANCH   5  22
ATOM     22  O   UNL     1       2.824   4.439  16.923  0.00  0.00    +0.000 OA
ATOM     23  H   UNL     1       3.469   3.849  16.483  0.00  0.00    +0.000 HD
ENDBRANCH   5  22
TORSDOF 2
ENDMDL
MODEL 2
REMARK VINA RESULT:      -7.2      1.409      1.638
REMARK  Name = 
REMARK  5 active torsions:
REMARK  status: ('A' for Active; 'I' for Inactive)
REMARK    1  A    between atoms: C_1  and  N_2
REMARK    2  A    between atoms: C_5  and  O_6
REMARK    3  A    between atoms: C_5  and  C_7
REMARK    4  A    between atoms: C_10  and  C_11
REMARK    5  A    between atoms: C_10  and  C_12
REMARK                            x       y       z     vdW  Elec       q    Type
REMARK                         _______ _______ _______ _____ _____    ______ ____
ROOT
ATOM      1  C   UNL     1       1.530   2.918  21.578  0.00  0.00    +0.000 C 
ATOM      2  N   UNL     1       2.038   3.435  20.338  0.00  0.00    +0.000 N 
ATOM      3  C   UNL     1       2.412   2.640  19.255  0.00  0.00    +0.000 C 
ATOM      4  O   UNL     1       2.364   1.417  19.189  0.00  0.00    +0.000 OA
ATOM      5  C   UNL     1       2.909   3.592  18.106  0.00  0.00    +0.000 C 
ATOM      6  C   UNL     1       2.474   4.934  18.664  0.00  0.00    +0.000 A 
ATOM      7  C   UNL     1       2.487   6.187  18.067  0.00  0.00    +0.000 A 
ATOM      8  C   UNL     1       2.153   7.292  18.848  0.00  0.00    +0.000 A 
ATOM      9 BR   UNL     1       2.236   9.024  18.091  0.00  0.00    +0.000 Br
ATOM     10  C   UNL     1       1.781   7.146  20.194  0.00  0.00    +0.000 A 
ATOM     11  C   UNL     1       1.713   5.876  20.775  0.00  0.00    +0.000 A 
ATOM     12  C   UNL     1       2.058   4.787  19.992  0.00  0.00    +0.000 A 
ENDROOT
BRANCH   5  13
ATOM     13  C   UNL     1       4.449   3.489  18.008  0.00  0.00    +0.000 C 
ATOM     14  C   UNL     1       4.999   3.344  16.594  0.00  0.00    +0.000 C 
ATOM     15  O   UNL     1       4.827   4.536  15.835  0.00  0.00    +0.000 OA
ATOM     16  C   UNL     1       5.565   5.669  16.327  0.00  0.00    +0.000 C 
ATOM     17  C   UNL     1       5.152   6.849  15.435  0.00  0.00    +0.000 C 
ATOM     18  C   UNL     1       7.081   5.465  16.168  0.00  0.00    +0.000 C 
ATOM     19  C   UNL     1       5.180   5.968  17.779  0.00  0.00    +0.000 C 
ATOM     20  C   UNL     1       5.157   4.694  18.592  0.00  0.00    +0.000 C 
ATOM     21  O   UNL     1       5.652   4.658  19.721  0.00  0.00    +0.000 OA
ENDBRANCH   5  13
BRANCH   5  22
ATOM     22  O   UNL     1       2.239   3.322  16.888  0.00  0.00    +0.000 OA
ATOM     23  H   UNL     1       1.827   2.440  16.991  0.00  0.00    +0.000 HD
ENDBRANCH   5  22
TORSDOF 2
ENDMDL
MODEL 3
REMARK VINA RESULT:      -7.0      3.074      5.848
REMARK  Name = 
REMARK  5 active torsions:
REMARK  status: ('A' for Active; 'I' for Inactive)
REMARK    1  A    between atoms: C_1  and  N_2
REMARK    2  A    between atoms: C_5  and  O_6
REMARK    3  A    between atoms: C_5  and  C_7
REMARK    4  A    between atoms: C_10  and  C_11
REMARK    5  A    between atoms: C_10  and  C_12
REMARK                            x       y       z     vdW  Elec       q    Type
REMARK                         _______ _______ _______ _____ _____    ______ ____
ROOT
ATOM      1  C   UNL     1       7.931   5.916  18.477  0.00  0.00    +0.000 C 
ATOM      2  N   UNL     1       6.711   5.408  17.914  0.00  0.00    +0.000 N 
ATOM      3  C   UNL     1       5.476   5.447  18.561  0.00  0.00    +0.000 C 
ATOM      4  O   UNL     1       5.242   5.910  19.671  0.00  0.00    +0.000 OA
ATOM      5  C   UNL     1       4.410   4.794  17.607  0.00  0.00    +0.000 C 
ATOM      6  C   UNL     1       5.223   4.689  16.330  0.00  0.00    +0.000 A 
ATOM      7  C   UNL     1       4.821   4.325  15.053  0.00  0.00    +0.000 A 
ATOM      8  C   UNL     1       5.800   4.178  14.071  0.00  0.00    +0.000 A 
ATOM      9 BR   UNL     1       5.299   3.607  12.338  0.00  0.00    +0.000 Br
ATOM     10  C   UNL     1       7.154   4.422  14.352  0.00  0.00    +0.000 A 
ATOM     11  C   UNL     1       7.547   4.845  15.625  0.00  0.00    +0.000 A 
ATOM     12  C   UNL     1       6.567   4.976  16.594  0.00  0.00    +0.000 A 
ENDROOT
BRANCH   5  13
ATOM     13  C   UNL     1       4.037   3.400  18.161  0.00  0.00    +0.000 C 
ATOM     14  C   UNL     1       4.056   3.280  19.680  0.00  0.00    +0.000 C 
ATOM     15  O   UNL     1       3.003   4.025  20.283  0.00  0.00    +0.000 OA
ATOM     16  C   UNL     1       1.681   3.557  19.964  0.00  0.00    +0.000 C 
ATOM     17  C   UNL     1       0.719   4.556  20.622  0.00  0.00    +0.000 C 
ATOM     18  C   UNL     1       1.414   2.170  20.574  0.00  0.00    +0.000 C 
ATOM     19  C   UNL     1       1.463   3.563  18.448  0.00  0.00    +0.000 C 
ATOM     20  C   UNL     1       2.652   2.952  17.741  0.00  0.00    +0.000 C 
ATOM     21  O   UNL     1       2.493   2.156  16.813  0.00  0.00    +0.000 OA
ENDBRANCH   5  13
BRANCH   5  22
ATOM     22  O   UNL     1       3.298   5.650  17.415  0.00  0.00    +0.000 OA
ATOM     23  H   UNL     1       2.678   5.168  16.831  0.00  0.00    +0.000 HD
ENDBRANCH   5  22
TORSDOF 2
ENDMDL
MODEL 4
REMARK VINA RESULT:      -6.6      1.992      4.659
REMARK  Name = 
REMARK  5 active torsions:
REMARK  status: ('A' for Active; 'I' for Inactive)
REMARK    1  A    between atoms: C_1  and  N_2
REMARK    2  A    between atoms: C_5  and  O_6
REMARK    3  A    between atoms: C_5  and  C_7
REMARK    4  A    between atoms: C_10  and  C_11
REMARK    5  A    between atoms: C_10  and  C_12
REMARK                            x       y       z     vdW  Elec       q    Type
REMARK                         _______ _______ _______ _____ _____    ______ ____
ROOT
ATOM      1  C   UNL     1       5.496   6.605  15.282  0.00  0.00    +0.000 C 
ATOM      2  N   UNL     1       5.061   5.920  16.468  0.00  0.00    +0.000 N 
ATOM      3  C   UNL     1       5.635   4.743  16.945  0.00  0.00    +0.000 C 
ATOM      4  O   UNL     1       6.574   4.130  16.451  0.00  0.00    +0.000 OA
ATOM      5  C   UNL     1       4.870   4.329  18.255  0.00  0.00    +0.000 C 
ATOM      6  C   UNL     1       4.050   5.583  18.494  0.00  0.00    +0.000 A 
ATOM      7  C   UNL     1       3.259   5.929  19.579  0.00  0.00    +0.000 A 
ATOM      8  C   UNL     1       2.496   7.094  19.494  0.00  0.00    +0.000 A 
ATOM      9 BR   UNL     1       1.345   7.556  20.921  0.00  0.00    +0.000 Br
ATOM     10  C   UNL     1       2.550   7.916  18.357  0.00  0.00    +0.000 A 
ATOM     11  C   UNL     1       3.394   7.594  17.290  0.00  0.00    +0.000 A 
ATOM     12  C   UNL     1       4.136   6.429  17.382  0.00  0.00    +0.000 A 
ENDROOT
BRANCH   5  13
ATOM     13  C   UNL     1       3.970   3.112  17.940  0.00  0.00    +0.000 C 
ATOM     14  C   UNL     1       3.883   2.067  19.045  0.00  0.00    +0.000 C 
ATOM     15  O   UNL     1       3.174   2.554  20.180  0.00  0.00    +0.000 OA
ATOM     16  C   UNL     1       1.787   2.846  19.937  0.00  0.00    +0.000 C 
ATOM     17  C   UNL     1       1.257   3.449  21.246  0.00  0.00    +0.000 C 
ATOM     18  C   UNL     1       0.985   1.565  19.648  0.00  0.00    +0.000 C 
ATOM     19  C   UNL     1       1.647   3.872  18.809  0.00  0.00    +0.000 C 
ATOM     20  C   UNL     1       2.537   3.502  17.644  0.00  0.00    +0.000 C 
ATOM     21  O   UNL     1       2.120   3.572  16.486  0.00  0.00    +0.000 OA
ENDBRANCH   5  13
BRANCH   5  22
ATOM     22  O   UNL     1       5.768   4.113  19.330  0.00  0.00    +0.000 OA
ATOM     23  H   UNL     1       5.237   4.187  20.149  0.00  0.00    +0.000 HD
ENDBRANCH   5  22
TORSDOF 2
ENDMDL
MODEL 5
REMARK VINA RESULT:      -5.7      5.309      8.175
REMARK  Name = 
REMARK  5 active torsions:
REMARK  status: ('A' for Active; 'I' for Inactive)
REMARK    1  A    between atoms: C_1  and  N_2
REMARK    2  A    between atoms: C_5  and  O_6
REMARK    3  A    between atoms: C_5  and  C_7
REMARK    4  A    between atoms: C_10  and  C_11
REMARK    5  A    between atoms: C_10  and  C_12
REMARK                            x       y       z     vdW  Elec       q    Type
REMARK                         _______ _______ _______ _____ _____    ______ ____
ROOT
ATOM      1  C   UNL     1       1.959   7.682  19.631  0.00  0.00    +0.000 C 
ATOM      2  N   UNL     1       1.462   9.030  19.624  0.00  0.00    +0.000 N 
ATOM      3  C   UNL     1       1.558   9.893  18.534  0.00  0.00    +0.000 C 
ATOM      4  O   UNL     1       2.060   9.646  17.443  0.00  0.00    +0.000 OA
ATOM      5  C   UNL     1       0.896  11.261  18.940  0.00  0.00    +0.000 C 
ATOM      6  C   UNL     1       0.235  10.860  20.246  0.00  0.00    +0.000 A 
ATOM      7  C   UNL     1      -0.641  11.575  21.049  0.00  0.00    +0.000 A 
ATOM      8  C   UNL     1      -1.005  11.026  22.278  0.00  0.00    +0.000 A 
ATOM      9 BR   UNL     1      -2.134  12.007  23.436  0.00  0.00    +0.000 Br
ATOM     10  C   UNL     1      -0.528   9.769  22.682  0.00  0.00    +0.000 A 
ATOM     11  C   UNL     1       0.307   9.026  21.843  0.00  0.00    +0.000 A 
ATOM     12  C   UNL     1       0.671   9.587  20.631  0.00  0.00    +0.000 A 
ENDROOT
BRANCH   5  13
ATOM     13  C   UNL     1       2.013  12.305  19.164  0.00  0.00    +0.000 C 
ATOM     14  C   UNL     1       2.248  13.262  18.002  0.00  0.00    +0.000 C 
ATOM     15  O   UNL     1       1.159  14.164  17.830  0.00  0.00    +0.000 OA
ATOM     16  C   UNL     1       0.958  15.072  18.927  0.00  0.00    +0.000 C 
ATOM     17  C   UNL     1      -0.312  15.863  18.580  0.00  0.00    +0.000 C 
ATOM     18  C   UNL     1       2.120  16.073  19.050  0.00  0.00    +0.000 C 
ATOM     19  C   UNL     1       0.735  14.296  20.229  0.00  0.00    +0.000 C 
ATOM     20  C   UNL     1       1.757  13.190  20.367  0.00  0.00    +0.000 C 
ATOM     21  O   UNL     1       2.320  12.983  21.443  0.00  0.00    +0.000 OA
ENDBRANCH   5  13
BRANCH   5  22
ATOM     22  O   UNL     1      -0.080  11.660  17.994  0.00  0.00    +0.000 OA
ATOM     23  H   UNL     1      -0.184  10.910  17.374  0.00  0.00    +0.000 HD
ENDBRANCH   5  22
TORSDOF 2
ENDMDL
MODEL 6
REMARK VINA RESULT:      -5.7      7.336     10.830
REMARK  Name = 
REMARK  5 active torsions:
REMARK  status: ('A' for Active; 'I' for Inactive)
REMARK    1  A    between atoms: C_1  and  N_2
REMARK    2  A    between atoms: C_5  and  O_6
REMARK    3  A    between atoms: C_5  and  C_7
REMARK    4  A    between atoms: C_10  and  C_11
REMARK    5  A    between atoms: C_10  and  C_12
REMARK                            x       y       z     vdW  Elec       q    Type
REMARK                         _______ _______ _______ _____ _____    ______ ____
ROOT
ATOM      1  C   UNL     1       0.929   9.755  19.412  0.00  0.00    +0.000 C 
ATOM      2  N   UNL     1      -0.103  10.707  19.715  0.00  0.00    +0.000 N 
ATOM      3  C   UNL     1       0.062  11.792  20.576  0.00  0.00    +0.000 C 
ATOM      4  O   UNL     1       1.081  12.098  21.186  0.00  0.00    +0.000 OA
ATOM      5  C   UNL     1      -1.299  12.578  20.631  0.00  0.00    +0.000 C 
ATOM      6  C   UNL     1      -2.042  11.903  19.492  0.00  0.00    +0.000 A 
ATOM      7  C   UNL     1      -3.261  12.231  18.916  0.00  0.00    +0.000 A 
ATOM      8  C   UNL     1      -3.792  11.363  17.961  0.00  0.00    +0.000 A 
ATOM      9 BR   UNL     1      -5.488  11.734  17.211  0.00  0.00    +0.000 Br
ATOM     10  C   UNL     1      -3.101  10.206  17.566  0.00  0.00    +0.000 A 
ATOM     11  C   UNL     1      -1.846   9.912  18.107  0.00  0.00    +0.000 A 
ATOM     12  C   UNL     1      -1.335  10.775  19.062  0.00  0.00    +0.000 A 
ENDROOT
BRANCH   5  13
ATOM     13  C   UNL     1      -1.976  12.304  21.993  0.00  0.00    +0.000 C 
ATOM     14  C   UNL     1      -1.197  12.786  23.211  0.00  0.00    +0.000 C 
ATOM     15  O   UNL     1      -1.158  14.207  23.287  0.00  0.00    +0.000 OA
ATOM     16  C   UNL     1      -2.439  14.830  23.487  0.00  0.00    +0.000 C 
ATOM     17  C   UNL     1      -2.177  16.342  23.430  0.00  0.00    +0.000 C 
ATOM     18  C   UNL     1      -3.012  14.502  24.877  0.00  0.00    +0.000 C 
ATOM     19  C   UNL     1      -3.406  14.437  22.366  0.00  0.00    +0.000 C 
ATOM     20  C   UNL     1      -3.342  12.948  22.111  0.00  0.00    +0.000 C 
ATOM     21  O   UNL     1      -4.372  12.291  21.948  0.00  0.00    +0.000 OA
ENDBRANCH   5  13
BRANCH   5  22
ATOM     22  O   UNL     1      -1.110  13.953  20.351  0.00  0.00    +0.000 OA
ATOM     23  H   UNL     1      -0.753  14.001  19.441  0.00  0.00    +0.000 HD
ENDBRANCH   5  22
TORSDOF 2
ENDMDL
MODEL 7
REMARK VINA RESULT:      -5.5      7.982     11.419
REMARK  Name = 
REMARK  5 active torsions:
REMARK  status: ('A' for Active; 'I' for Inactive)
REMARK    1  A    between atoms: C_1  and  N_2
REMARK    2  A    between atoms: C_5  and  O_6
REMARK    3  A    between atoms: C_5  and  C_7
REMARK    4  A    between atoms: C_10  and  C_11
REMARK    5  A    between atoms: C_10  and  C_12
REMARK                            x       y       z     vdW  Elec       q    Type
REMARK                         _______ _______ _______ _____ _____    ______ ____
ROOT
ATOM      1  C   UNL     1       0.726  10.749  21.287  0.00  0.00    +0.000 C 
ATOM      2  N   UNL     1      -0.486  11.344  20.796  0.00  0.00    +0.000 N 
ATOM      3  C   UNL     1      -1.136  12.413  21.410  0.00  0.00    +0.000 C 
ATOM      4  O   UNL     1      -0.786  13.001  22.427  0.00  0.00    +0.000 OA
ATOM      5  C   UNL     1      -2.414  12.755  20.559  0.00  0.00    +0.000 C 
ATOM      6  C   UNL     1      -2.150  11.907  19.328  0.00  0.00    +0.000 A 
ATOM      7  C   UNL     1      -2.833  11.864  18.121  0.00  0.00    +0.000 A 
ATOM      8  C   UNL     1      -2.465  10.892  17.191  0.00  0.00    +0.000 A 
ATOM      9 BR   UNL     1      -3.424  10.750  15.567  0.00  0.00    +0.000 Br
ATOM     10  C   UNL     1      -1.410  10.002  17.449  0.00  0.00    +0.000 A 
ATOM     11  C   UNL     1      -0.686  10.089  18.641  0.00  0.00    +0.000 A 
ATOM     12  C   UNL     1      -1.070  11.049  19.562  0.00  0.00    +0.000 A 
ENDROOT
BRANCH   5  13
ATOM     13  C   UNL     1      -3.665  12.270  21.326  0.00  0.00    +0.000 C 
ATOM     14  C   UNL     1      -3.709  12.652  22.801  0.00  0.00    +0.000 C 
ATOM     15  O   UNL     1      -3.894  14.053  22.979  0.00  0.00    +0.000 OA
ATOM     16  C   UNL     1      -5.155  14.554  22.504  0.00  0.00    +0.000 C 
ATOM     17  C   UNL     1      -5.093  16.076  22.695  0.00  0.00    +0.000 C 
ATOM     18  C   UNL     1      -6.326  14.019  23.346  0.00  0.00    +0.000 C 
ATOM     19  C   UNL     1      -5.331  14.234  21.016  0.00  0.00    +0.000 C 
ATOM     20  C   UNL     1      -4.958  12.796  20.737  0.00  0.00    +0.000 C 
ATOM     21  O   UNL     1      -5.657  12.093  20.005  0.00  0.00    +0.000 OA
ENDBRANCH   5  13
BRANCH   5  22
ATOM     22  O   UNL     1      -2.451  14.128  20.214  0.00  0.00    +0.000 OA
ATOM     23  H   UNL     1      -2.407  14.167  19.237  0.00  0.00    +0.000 HD
ENDBRANCH   5  22
TORSDOF 2
ENDMDL
MODEL 8
REMARK VINA RESULT:      -5.5      9.993     12.312
REMARK  Name = 
REMARK  5 active torsions:
REMARK  status: ('A' for Active; 'I' for Inactive)
REMARK    1  A    between atoms: C_1  and  N_2
REMARK    2  A    between atoms: C_5  and  O_6
REMARK    3  A    between atoms: C_5  and  C_7
REMARK    4  A    between atoms: C_10  and  C_11
REMARK    5  A    between atoms: C_10  and  C_12
REMARK                            x       y       z     vdW  Elec       q    Type
REMARK                         _______ _______ _______ _____ _____    ______ ____
ROOT
ATOM      1  C   UNL     1      12.029  17.056  18.626  0.00  0.00    +0.000 C 
ATOM      2  N   UNL     1      10.778  16.355  18.703  0.00  0.00    +0.000 N 
ATOM      3  C   UNL     1       9.553  16.895  18.312  0.00  0.00    +0.000 C 
ATOM      4  O   UNL     1       9.357  18.014  17.851  0.00  0.00    +0.000 OA
ATOM      5  C   UNL     1       8.444  15.807  18.557  0.00  0.00    +0.000 C 
ATOM      6  C   UNL     1       9.315  14.599  18.851  0.00  0.00    +0.000 A 
ATOM      7  C   UNL     1       8.957  13.269  19.012  0.00  0.00    +0.000 A 
ATOM      8  C   UNL     1       9.942  12.366  19.411  0.00  0.00    +0.000 A 
ATOM      9 BR   UNL     1       9.474  10.558  19.717  0.00  0.00    +0.000 Br
ATOM     10  C   UNL     1      11.268  12.779  19.613  0.00  0.00    +0.000 A 
ATOM     11  C   UNL     1      11.637  14.108  19.391  0.00  0.00    +0.000 A 
ATOM     12  C   UNL     1      10.648  14.998  19.008  0.00  0.00    +0.000 A 
ENDROOT
BRANCH   5  13
ATOM     13  C   UNL     1       7.608  16.219  19.790  0.00  0.00    +0.000 C 
ATOM     14  C   UNL     1       6.855  17.536  19.650  0.00  0.00    +0.000 C 
ATOM     15  O   UNL     1       5.791  17.440  18.708  0.00  0.00    +0.000 OA
ATOM     16  C   UNL     1       4.740  16.534  19.085  0.00  0.00    +0.000 C 
ATOM     17  C   UNL     1       3.771  16.508  17.894  0.00  0.00    +0.000 C 
ATOM     18  C   UNL     1       3.967  17.049  20.312  0.00  0.00    +0.000 C 
ATOM     19  C   UNL     1       5.303  15.129  19.315  0.00  0.00    +0.000 C 
ATOM     20  C   UNL     1       6.557  15.193  20.157  0.00  0.00    +0.000 C 
ATOM     21  O   UNL     1       6.739  14.395  21.079  0.00  0.00    +0.000 OA
ENDBRANCH   5  13
BRANCH   5  22
ATOM     22  O   UNL     1       7.673  15.587  17.389  0.00  0.00    +0.000 OA
ATOM     23  H   UNL     1       8.311  15.468  16.657  0.00  0.00    +0.000 HD
ENDBRANCH   5  22
TORSDOF 2
ENDMDL
MODEL 9
REMARK VINA RESULT:      -5.5      8.036     11.516
REMARK  Name = 
REMARK  5 active torsions:
REMARK  status: ('A' for Active; 'I' for Inactive)
REMARK    1  A    between atoms: C_1  and  N_2
REMARK    2  A    between atoms: C_5  and  O_6
REMARK    3  A    between atoms: C_5  and  C_7
REMARK    4  A    between atoms: C_10  and  C_11
REMARK    5  A    between atoms: C_10  and  C_12
REMARK                            x       y       z     vdW  Elec       q    Type
REMARK                         _______ _______ _______ _____ _____    ______ ____
ROOT
ATOM      1  C   UNL     1       0.370  11.008  18.594  0.00  0.00    +0.000 C 
ATOM      2  N   UNL     1      -0.749  11.676  19.199  0.00  0.00    +0.000 N 
ATOM      3  C   UNL     1      -0.636  12.771  20.055  0.00  0.00    +0.000 C 
ATOM      4  O   UNL     1       0.400  13.323  20.410  0.00  0.00    +0.000 OA
ATOM      5  C   UNL     1      -2.086  13.195  20.491  0.00  0.00    +0.000 C 
ATOM      6  C   UNL     1      -2.910  12.353  19.534  0.00  0.00    +0.000 A 
ATOM      7  C   UNL     1      -4.277  12.365  19.298  0.00  0.00    +0.000 A 
ATOM      8  C   UNL     1      -4.808  11.389  18.456  0.00  0.00    +0.000 A 
ATOM      9 BR   UNL     1      -6.677  11.325  18.172  0.00  0.00    +0.000 Br
ATOM     10  C   UNL     1      -3.983  10.439  17.834  0.00  0.00    +0.000 A 
ATOM     11  C   UNL     1      -2.599  10.467  18.028  0.00  0.00    +0.000 A 
ATOM     12  C   UNL     1      -2.085  11.433  18.877  0.00  0.00    +0.000 A 
ENDROOT
BRANCH   5  13
ATOM     13  C   UNL     1      -2.307  12.768  21.960  0.00  0.00    +0.000 C 
ATOM     14  C   UNL     1      -1.322  13.360  22.962  0.00  0.00    +0.000 C 
ATOM     15  O   UNL     1      -1.514  14.761  23.127  0.00  0.00    +0.000 OA
ATOM     16  C   UNL     1      -2.780  15.127  23.704  0.00  0.00    +0.000 C 
ATOM     17  C   UNL     1      -2.812  16.662  23.689  0.00  0.00    +0.000 C 
ATOM     18  C   UNL     1      -2.886  14.665  25.167  0.00  0.00    +0.000 C 
ATOM     19  C   UNL     1      -3.931  14.584  22.851  0.00  0.00    +0.000 C 
ATOM     20  C   UNL     1      -3.680  13.140  22.481  0.00  0.00    +0.000 C 
ATOM     21  O   UNL     1      -4.584  12.306  22.547  0.00  0.00    +0.000 OA
ENDBRANCH   5  13
BRANCH   5  22
ATOM     22  O   UNL     1      -2.312  14.574  20.255  0.00  0.00    +0.000 OA
ATOM     23  H   UNL     1      -1.457  15.023  20.416  0.00  0.00    +0.000 HD
ENDBRANCH   5  22
TORSDOF 2
ENDMDL
