MODEL 1
REMARK VINA RESULT:      -9.1      0.000      0.000
REMARK  Name = 
REMARK  2 active torsions:
REMARK  status: ('A' for Active; 'I' for Inactive)
REMARK    1  A    between atoms: C_2  and  C_3
REMARK    2  A    between atoms: C_3  and  C_4
REMARK                            x       y       z     vdW  Elec       q    Type
REMARK                         _______ _______ _______ _____ _____    ______ ____
ROOT
ATOM      1  O   UNL     1       8.022   4.559  16.794  0.00  0.00    +0.000 OA
ATOM      2  C   UNL     1       6.801   4.447  16.980  0.00  0.00    +0.000 C 
ATOM      3  N   UNL     1       6.407   3.969  18.199  0.00  0.00    +0.000 N 
ATOM      4  C   UNL     1       5.119   3.722  18.584  0.00  0.00    +0.000 A 
ATOM      5  N   UNL     1       4.036   3.839  17.854  0.00  0.00    +0.000 NA
ATOM      6  C   UNL     1       2.987   3.531  18.665  0.00  0.00    +0.000 A 
ATOM      7  C   UNL     1       1.621   3.513  18.368  0.00  0.00    +0.000 A 
ATOM      8  C   UNL     1       0.720   3.220  19.395  0.00  0.00    +0.000 A 
ATOM      9  C   UNL     1       1.176   2.948  20.686  0.00  0.00    +0.000 A 
ATOM     10  C   UNL     1       2.547   2.934  20.994  0.00  0.00    +0.000 A 
ATOM     11  C   UNL     1       3.426   3.226  19.948  0.00  0.00    +0.000 A 
ATOM     12  N   UNL     1       4.795   3.301  19.854  0.00  0.00    +0.000 N 
ATOM     13  H   UNL     1       7.168   3.789  18.837  0.00  0.00    +0.000 HD
ATOM     14  H   UNL     1       5.448   3.105  20.597  0.00  0.00    +0.000 HD
ENDROOT
BRANCH   2  15
ATOM     15  C   UNL     1       5.817   4.875  15.899  0.00  0.00    +0.000 C 
BRANCH  15  16
ATOM     16  C   UNL     1       6.258   4.583  14.482  0.00  0.00    +0.000 A 
ATOM     17  C   UNL     1       5.563   3.646  13.703  0.00  0.00    +0.000 A 
ATOM     18  C   UNL     1       5.953   3.374  12.390  0.00  0.00    +0.000 A 
ATOM     19  C   UNL     1       7.035   4.048  11.831  0.00  0.00    +0.000 A 
ATOM     20  C   UNL     1       7.720   5.001  12.585  0.00  0.00    +0.000 A 
ATOM     21  C   UNL     1       7.334   5.270  13.901  0.00  0.00    +0.000 A 
ENDBRANCH  15  16
ENDBRANCH   2  15
TORSDOF 2
ENDMDL
MODEL 2
REMARK VINA RESULT:      -9.1      0.039      1.107
REMARK  Name = 
REMARK  2 active torsions:
REMARK  status: ('A' for Active; 'I' for Inactive)
REMARK    1  A    between atoms: C_2  and  C_3
REMARK    2  A    between atoms: C_3  and  C_4
REMARK                            x       y       z     vdW  Elec       q    Type
REMARK                         _______ _______ _______ _____ _____    ______ ____
ROOT
ATOM      1  O   UNL     1       8.023   4.571  16.807  0.00  0.00    +0.000 OA
ATOM      2  C   UNL     1       6.801   4.468  16.998  0.00  0.00    +0.000 C 
ATOM      3  N   UNL     1       6.409   3.965  18.207  0.00  0.00    +0.000 N 
ATOM      4  C   UNL     1       5.120   3.723  18.593  0.00  0.00    +0.000 A 
ATOM      5  N   UNL     1       4.035   3.869  17.872  0.00  0.00    +0.000 NA
ATOM      6  C   UNL     1       2.987   3.553  18.682  0.00  0.00    +0.000 A 
ATOM      7  C   UNL     1       1.620   3.558  18.392  0.00  0.00    +0.000 A 
ATOM      8  C   UNL     1       0.720   3.250  19.416  0.00  0.00    +0.000 A 
ATOM      9  C   UNL     1       1.181   2.942  20.698  0.00  0.00    +0.000 A 
ATOM     10  C   UNL     1       2.552   2.906  20.998  0.00  0.00    +0.000 A 
ATOM     11  C   UNL     1       3.429   3.214  19.954  0.00  0.00    +0.000 A 
ATOM     12  N   UNL     1       4.798   3.276  19.854  0.00  0.00    +0.000 N 
ATOM     13  H   UNL     1       7.171   3.762  18.836  0.00  0.00    +0.000 HD
ATOM     14  H   UNL     1       5.453   3.055  20.590  0.00  0.00    +0.000 HD
ENDROOT
BRANCH   2  15
ATOM     15  C   UNL     1       5.816   4.932  15.932  0.00  0.00    +0.000 C 
BRANCH  15  16
ATOM     16  C   UNL     1       6.229   4.633  14.507  0.00  0.00    +0.000 A 
ATOM     17  C   UNL     1       7.331   5.289  13.938  0.00  0.00    +0.000 A 
ATOM     18  C   UNL     1       7.730   5.014  12.628  0.00  0.00    +0.000 A 
ATOM     19  C   UNL     1       7.041   4.067  11.874  0.00  0.00    +0.000 A 
ATOM     20  C   UNL     1       5.960   3.390  12.436  0.00  0.00    +0.000 A 
ATOM     21  C   UNL     1       5.557   3.668  13.745  0.00  0.00    +0.000 A 
ENDBRANCH  15  16
ENDBRANCH   2  15
TORSDOF 2
ENDMDL
MODEL 3
REMARK VINA RESULT:      -8.6      1.524      7.012
REMARK  Name = 
REMARK  2 active torsions:
REMARK  status: ('A' for Active; 'I' for Inactive)
REMARK    1  A    between atoms: C_2  and  C_3
REMARK    2  A    between atoms: C_3  and  C_4
REMARK                            x       y       z     vdW  Elec       q    Type
REMARK                         _______ _______ _______ _____ _____    ______ ____
ROOT
ATOM      1  O   UNL     1       5.707   5.272  19.736  0.00  0.00    +0.000 OA
ATOM      2  C   UNL     1       5.601   4.825  18.583  0.00  0.00    +0.000 C 
ATOM      3  N   UNL     1       6.438   5.354  17.640  0.00  0.00    +0.000 N 
ATOM      4  C   UNL     1       6.446   5.039  16.310  0.00  0.00    +0.000 A 
ATOM      5  N   UNL     1       5.630   4.229  15.682  0.00  0.00    +0.000 NA
ATOM      6  C   UNL     1       6.043   4.192  14.385  0.00  0.00    +0.000 A 
ATOM      7  C   UNL     1       5.511   3.471  13.313  0.00  0.00    +0.000 A 
ATOM      8  C   UNL     1       6.152   3.550  12.073  0.00  0.00    +0.000 A 
ATOM      9  C   UNL     1       7.296   4.334  11.912  0.00  0.00    +0.000 A 
ATOM     10  C   UNL     1       7.826   5.087  12.973  0.00  0.00    +0.000 A 
ATOM     11  C   UNL     1       7.163   4.993  14.199  0.00  0.00    +0.000 A 
ATOM     12  N   UNL     1       7.366   5.567  15.432  0.00  0.00    +0.000 N 
ATOM     13  H   UNL     1       7.087   6.038  18.002  0.00  0.00    +0.000 HD
ATOM     14  H   UNL     1       8.082   6.239  15.658  0.00  0.00    +0.000 HD
ENDROOT
BRANCH   2  15
ATOM     15  C   UNL     1       4.608   3.710  18.280  0.00  0.00    +0.000 C 
BRANCH  15  16
ATOM     16  C   UNL     1       3.458   3.597  19.257  0.00  0.00    +0.000 A 
ATOM     17  C   UNL     1       3.547   2.733  20.358  0.00  0.00    +0.000 A 
ATOM     18  C   UNL     1       2.497   2.627  21.273  0.00  0.00    +0.000 A 
ATOM     19  C   UNL     1       1.349   3.398  21.108  0.00  0.00    +0.000 A 
ATOM     20  C   UNL     1       1.257   4.279  20.032  0.00  0.00    +0.000 A 
ATOM     21  C   UNL     1       2.305   4.382  19.113  0.00  0.00    +0.000 A 
ENDBRANCH  15  16
ENDBRANCH   2  15
TORSDOF 2
ENDMDL
MODEL 4
REMARK VINA RESULT:      -8.5      1.503      7.006
REMARK  Name = 
REMARK  2 active torsions:
REMARK  status: ('A' for Active; 'I' for Inactive)
REMARK    1  A    between atoms: C_2  and  C_3
REMARK    2  A    between atoms: C_3  and  C_4
REMARK                            x       y       z     vdW  Elec       q    Type
REMARK                         _______ _______ _______ _____ _____    ______ ____
ROOT
ATOM      1  O   UNL     1       5.809   5.156  19.727  0.00  0.00    +0.000 OA
ATOM      2  C   UNL     1       5.663   4.740  18.567  0.00  0.00    +0.000 C 
ATOM      3  N   UNL     1       6.514   5.243  17.622  0.00  0.00    +0.000 N 
ATOM      4  C   UNL     1       6.487   4.957  16.286  0.00  0.00    +0.000 A 
ATOM      5  N   UNL     1       5.619   4.204  15.654  0.00  0.00    +0.000 NA
ATOM      6  C   UNL     1       6.012   4.174  14.350  0.00  0.00    +0.000 A 
ATOM      7  C   UNL     1       5.428   3.504  13.272  0.00  0.00    +0.000 A 
ATOM      8  C   UNL     1       6.055   3.574  12.024  0.00  0.00    +0.000 A 
ATOM      9  C   UNL     1       7.236   4.301  11.862  0.00  0.00    +0.000 A 
ATOM     10  C   UNL     1       7.821   5.002  12.930  0.00  0.00    +0.000 A 
ATOM     11  C   UNL     1       7.170   4.918  14.164  0.00  0.00    +0.000 A 
ATOM     12  N   UNL     1       7.420   5.453  15.405  0.00  0.00    +0.000 N 
ATOM     13  H   UNL     1       7.204   5.884  17.988  0.00  0.00    +0.000 HD
ATOM     14  H   UNL     1       8.175   6.082  15.634  0.00  0.00    +0.000 HD
ENDROOT
BRANCH   2  15
ATOM     15  C   UNL     1       4.608   3.686  18.256  0.00  0.00    +0.000 C 
BRANCH  15  16
ATOM     16  C   UNL     1       3.484   3.592  19.265  0.00  0.00    +0.000 A 
ATOM     17  C   UNL     1       2.307   4.332  19.084  0.00  0.00    +0.000 A 
ATOM     18  C   UNL     1       1.257   4.246  20.000  0.00  0.00    +0.000 A 
ATOM     19  C   UNL     1       1.364   3.405  21.105  0.00  0.00    +0.000 A 
ATOM     20  C   UNL     1       2.518   2.644  21.284  0.00  0.00    +0.000 A 
ATOM     21  C   UNL     1       3.571   2.733  20.369  0.00  0.00    +0.000 A 
ENDBRANCH  15  16
ENDBRANCH   2  15
TORSDOF 2
ENDMDL
MODEL 5
REMARK VINA RESULT:      -8.4      2.182      3.623
REMARK  Name = 
REMARK  2 active torsions:
REMARK  status: ('A' for Active; 'I' for Inactive)
REMARK    1  A    between atoms: C_2  and  C_3
REMARK    2  A    between atoms: C_3  and  C_4
REMARK                            x       y       z     vdW  Elec       q    Type
REMARK                         _______ _______ _______ _____ _____    ______ ____
ROOT
ATOM      1  O   UNL     1       6.519   3.802  14.891  0.00  0.00    +0.000 OA
ATOM      2  C   UNL     1       5.711   4.146  15.769  0.00  0.00    +0.000 C 
ATOM      3  N   UNL     1       5.061   3.142  16.431  0.00  0.00    +0.000 N 
ATOM      4  C   UNL     1       4.100   3.308  17.390  0.00  0.00    +0.000 A 
ATOM      5  N   UNL     1       3.584   4.437  17.809  0.00  0.00    +0.000 NA
ATOM      6  C   UNL     1       2.701   4.116  18.795  0.00  0.00    +0.000 A 
ATOM      7  C   UNL     1       1.900   4.962  19.567  0.00  0.00    +0.000 A 
ATOM      8  C   UNL     1       1.109   4.397  20.572  0.00  0.00    +0.000 A 
ATOM      9  C   UNL     1       1.119   3.019  20.794  0.00  0.00    +0.000 A 
ATOM     10  C   UNL     1       1.898   2.153  20.009  0.00  0.00    +0.000 A 
ATOM     11  C   UNL     1       2.675   2.744  19.010  0.00  0.00    +0.000 A 
ATOM     12  N   UNL     1       3.536   2.246  18.060  0.00  0.00    +0.000 N 
ATOM     13  H   UNL     1       5.341   2.214  16.152  0.00  0.00    +0.000 HD
ATOM     14  H   UNL     1       3.737   1.271  17.902  0.00  0.00    +0.000 HD
ENDROOT
BRANCH   2  15
ATOM     15  C   UNL     1       5.515   5.621  16.096  0.00  0.00    +0.000 C 
BRANCH  15  16
ATOM     16  C   UNL     1       6.531   6.203  17.055  0.00  0.00    +0.000 A 
ATOM     17  C   UNL     1       6.969   7.526  16.903  0.00  0.00    +0.000 A 
ATOM     18  C   UNL     1       7.897   8.080  17.787  0.00  0.00    +0.000 A 
ATOM     19  C   UNL     1       8.388   7.322  18.847  0.00  0.00    +0.000 A 
ATOM     20  C   UNL     1       7.942   6.013  19.025  0.00  0.00    +0.000 A 
ATOM     21  C   UNL     1       7.017   5.456  18.137  0.00  0.00    +0.000 A 
ENDBRANCH  15  16
ENDBRANCH   2  15
TORSDOF 2
ENDMDL
MODEL 6
REMARK VINA RESULT:      -8.3      2.159      3.546
REMARK  Name = 
REMARK  2 active torsions:
REMARK  status: ('A' for Active; 'I' for Inactive)
REMARK    1  A    between atoms: C_2  and  C_3
REMARK    2  A    between atoms: C_3  and  C_4
REMARK                            x       y       z     vdW  Elec       q    Type
REMARK                         _______ _______ _______ _____ _____    ______ ____
ROOT
ATOM      1  O   UNL     1       6.641   3.830  14.947  0.00  0.00    +0.000 OA
ATOM      2  C   UNL     1       5.813   4.176  15.804  0.00  0.00    +0.000 C 
ATOM      3  N   UNL     1       5.163   3.175  16.470  0.00  0.00    +0.000 N 
ATOM      4  C   UNL     1       4.182   3.342  17.408  0.00  0.00    +0.000 A 
ATOM      5  N   UNL     1       3.643   4.471  17.799  0.00  0.00    +0.000 NA
ATOM      6  C   UNL     1       2.746   4.154  18.774  0.00  0.00    +0.000 A 
ATOM      7  C   UNL     1       1.919   5.001  19.516  0.00  0.00    +0.000 A 
ATOM      8  C   UNL     1       1.117   4.442  20.515  0.00  0.00    +0.000 A 
ATOM      9  C   UNL     1       1.142   3.068  20.760  0.00  0.00    +0.000 A 
ATOM     10  C   UNL     1       1.946   2.199  20.004  0.00  0.00    +0.000 A 
ATOM     11  C   UNL     1       2.734   2.785  19.009  0.00  0.00    +0.000 A 
ATOM     12  N   UNL     1       3.619   2.284  18.085  0.00  0.00    +0.000 N 
ATOM     13  H   UNL     1       5.461   2.245  16.211  0.00  0.00    +0.000 HD
ATOM     14  H   UNL     1       3.836   1.309  17.946  0.00  0.00    +0.000 HD
ENDROOT
BRANCH   2  15
ATOM     15  C   UNL     1       5.591   5.653  16.103  0.00  0.00    +0.000 C 
BRANCH  15  16
ATOM     16  C   UNL     1       6.567   6.259  17.088  0.00  0.00    +0.000 A 
ATOM     17  C   UNL     1       7.097   5.481  18.128  0.00  0.00    +0.000 A 
ATOM     18  C   UNL     1       8.008   6.023  19.037  0.00  0.00    +0.000 A 
ATOM     19  C   UNL     1       8.414   7.349  18.909  0.00  0.00    +0.000 A 
ATOM     20  C   UNL     1       7.914   8.127  17.865  0.00  0.00    +0.000 A 
ATOM     21  C   UNL     1       6.999   7.586  16.957  0.00  0.00    +0.000 A 
ENDBRANCH  15  16
ENDBRANCH   2  15
TORSDOF 2
ENDMDL
MODEL 7
REMARK VINA RESULT:      -8.3      1.778      6.767
REMARK  Name = 
REMARK  2 active torsions:
REMARK  status: ('A' for Active; 'I' for Inactive)
REMARK    1  A    between atoms: C_2  and  C_3
REMARK    2  A    between atoms: C_3  and  C_4
REMARK                            x       y       z     vdW  Elec       q    Type
REMARK                         _______ _______ _______ _____ _____    ______ ____
ROOT
ATOM      1  O   UNL     1       6.742   5.478  19.830  0.00  0.00    +0.000 OA
ATOM      2  C   UNL     1       6.402   5.013  18.731  0.00  0.00    +0.000 C 
ATOM      3  N   UNL     1       7.118   5.424  17.642  0.00  0.00    +0.000 N 
ATOM      4  C   UNL     1       6.872   5.073  16.343  0.00  0.00    +0.000 A 
ATOM      5  N   UNL     1       5.887   4.335  15.894  0.00  0.00    +0.000 NA
ATOM      6  C   UNL     1       6.072   4.219  14.550  0.00  0.00    +0.000 A 
ATOM      7  C   UNL     1       5.300   3.527  13.612  0.00  0.00    +0.000 A 
ATOM      8  C   UNL     1       5.730   3.504  12.282  0.00  0.00    +0.000 A 
ATOM      9  C   UNL     1       6.902   4.159  11.902  0.00  0.00    +0.000 A 
ATOM     10  C   UNL     1       7.674   4.882  12.827  0.00  0.00    +0.000 A 
ATOM     11  C   UNL     1       7.219   4.893  14.148  0.00  0.00    +0.000 A 
ATOM     12  N   UNL     1       7.680   5.476  15.304  0.00  0.00    +0.000 N 
ATOM     13  H   UNL     1       7.882   6.046  17.861  0.00  0.00    +0.000 HD
ATOM     14  H   UNL     1       8.487   6.076  15.379  0.00  0.00    +0.000 HD
ENDROOT
BRANCH   2  15
ATOM     15  C   UNL     1       5.267   4.000  18.645  0.00  0.00    +0.000 C 
BRANCH  15  16
ATOM     16  C   UNL     1       3.979   4.425  19.317  0.00  0.00    +0.000 A 
ATOM     17  C   UNL     1       3.284   3.530  20.143  0.00  0.00    +0.000 A 
ATOM     18  C   UNL     1       2.101   3.912  20.778  0.00  0.00    +0.000 A 
ATOM     19  C   UNL     1       1.604   5.202  20.608  0.00  0.00    +0.000 A 
ATOM     20  C   UNL     1       2.298   6.110  19.809  0.00  0.00    +0.000 A 
ATOM     21  C   UNL     1       3.480   5.726  19.169  0.00  0.00    +0.000 A 
ENDBRANCH  15  16
ENDBRANCH   2  15
TORSDOF 2
ENDMDL
MODEL 8
REMARK VINA RESULT:      -8.1      1.466      1.811
REMARK  Name = 
REMARK  2 active torsions:
REMARK  status: ('A' for Active; 'I' for Inactive)
REMARK    1  A    between atoms: C_2  and  C_3
REMARK    2  A    between atoms: C_3  and  C_4
REMARK                            x       y       z     vdW  Elec       q    Type
REMARK                         _______ _______ _______ _____ _____    ______ ____
ROOT
ATOM      1  O   UNL     1       7.298   7.248  16.641  0.00  0.00    +0.000 OA
ATOM      2  C   UNL     1       6.621   6.224  16.819  0.00  0.00    +0.000 C 
ATOM      3  N   UNL     1       5.403   6.389  17.417  0.00  0.00    +0.000 N 
ATOM      4  C   UNL     1       4.531   5.390  17.749  0.00  0.00    +0.000 A 
ATOM      5  N   UNL     1       4.716   4.099  17.614  0.00  0.00    +0.000 NA
ATOM      6  C   UNL     1       3.569   3.498  18.034  0.00  0.00    +0.000 A 
ATOM      7  C   UNL     1       3.256   2.136  18.081  0.00  0.00    +0.000 A 
ATOM      8  C   UNL     1       1.977   1.761  18.500  0.00  0.00    +0.000 A 
ATOM      9  C   UNL     1       1.036   2.726  18.863  0.00  0.00    +0.000 A 
ATOM     10  C   UNL     1       1.343   4.096  18.848  0.00  0.00    +0.000 A 
ATOM     11  C   UNL     1       2.631   4.443  18.430  0.00  0.00    +0.000 A 
ATOM     12  N   UNL     1       3.291   5.640  18.291  0.00  0.00    +0.000 N 
ATOM     13  H   UNL     1       5.170   7.351  17.620  0.00  0.00    +0.000 HD
ATOM     14  H   UNL     1       2.919   6.549  18.524  0.00  0.00    +0.000 HD
ENDROOT
BRANCH   2  15
ATOM     15  C   UNL     1       7.134   4.872  16.339  0.00  0.00    +0.000 C 
BRANCH  15  16
ATOM     16  C   UNL     1       7.026   4.640  14.848  0.00  0.00    +0.000 A 
ATOM     17  C   UNL     1       6.047   3.777  14.336  0.00  0.00    +0.000 A 
ATOM     18  C   UNL     1       5.929   3.562  12.961  0.00  0.00    +0.000 A 
ATOM     19  C   UNL     1       6.779   4.222  12.077  0.00  0.00    +0.000 A 
ATOM     20  C   UNL     1       7.741   5.103  12.571  0.00  0.00    +0.000 A 
ATOM     21  C   UNL     1       7.863   5.314  13.947  0.00  0.00    +0.000 A 
ENDBRANCH  15  16
ENDBRANCH   2  15
TORSDOF 2
ENDMDL
MODEL 9
REMARK VINA RESULT:      -8.1      1.620      2.334
REMARK  Name = 
REMARK  2 active torsions:
REMARK  status: ('A' for Active; 'I' for Inactive)
REMARK    1  A    between atoms: C_2  and  C_3
REMARK    2  A    between atoms: C_3  and  C_4
REMARK                            x       y       z     vdW  Elec       q    Type
REMARK                         _______ _______ _______ _____ _____    ______ ____
ROOT
ATOM      1  O   UNL     1       5.250   7.088  15.243  0.00  0.00    +0.000 OA
ATOM      2  C   UNL     1       5.014   6.179  16.055  0.00  0.00    +0.000 C 
ATOM      3  N   UNL     1       4.200   6.492  17.107  0.00  0.00    +0.000 N 
ATOM      4  C   UNL     1       3.860   5.655  18.133  0.00  0.00    +0.000 A 
ATOM      5  N   UNL     1       4.288   4.433  18.335  0.00  0.00    +0.000 NA
ATOM      6  C   UNL     1       3.651   3.978  19.449  0.00  0.00    +0.000 A 
ATOM      7  C   UNL     1       3.754   2.733  20.074  0.00  0.00    +0.000 A 
ATOM      8  C   UNL     1       2.944   2.475  21.184  0.00  0.00    +0.000 A 
ATOM      9  C   UNL     1       2.057   3.443  21.657  0.00  0.00    +0.000 A 
ATOM     10  C   UNL     1       1.961   4.710  21.057  0.00  0.00    +0.000 A 
ATOM     11  C   UNL     1       2.785   4.942  19.952  0.00  0.00    +0.000 A 
ATOM     12  N   UNL     1       2.980   6.023  19.126  0.00  0.00    +0.000 N 
ATOM     13  H   UNL     1       3.845   7.438  17.088  0.00  0.00    +0.000 HD
ATOM     14  H   UNL     1       2.534   6.923  19.219  0.00  0.00    +0.000 HD
ENDROOT
BRANCH   2  15
ATOM     15  C   UNL     1       5.583   4.783  15.831  0.00  0.00    +0.000 C 
BRANCH  15  16
ATOM     16  C   UNL     1       6.080   4.513  14.428  0.00  0.00    +0.000 A 
ATOM     17  C   UNL     1       7.296   5.058  13.991  0.00  0.00    +0.000 A 
ATOM     18  C   UNL     1       7.772   4.808  12.703  0.00  0.00    +0.000 A 
ATOM     19  C   UNL     1       7.045   3.996  11.837  0.00  0.00    +0.000 A 
ATOM     20  C   UNL     1       5.846   3.427  12.266  0.00  0.00    +0.000 A 
ATOM     21  C   UNL     1       5.366   3.681  13.554  0.00  0.00    +0.000 A 
ENDBRANCH  15  16
ENDBRANCH   2  15
TORSDOF 2
ENDMDL
