MODEL 1
REMARK VINA RESULT:      -7.4      0.000      0.000
REMARK  Name = 
REMARK  6 active torsions:
REMARK  status: ('A' for Active; 'I' for Inactive)
REMARK    1  A    between atoms: C_1  and  O_2
REMARK    2  A    between atoms: O_2  and  C_3
REMARK    3  A    between atoms: C_6  and  C_7
REMARK    4  A    between atoms: N_11  and  N_12
REMARK    5  A    between atoms: C_13  and  C_14
REMARK    6  A    between atoms: C_13  and  C_15
REMARK                            x       y       z     vdW  Elec       q    Type
REMARK                         _______ _______ _______ _____ _____    ______ ____
ROOT
ATOM      1  C   UNL     1       1.082   8.988  20.338  0.00  0.00    +0.000 A 
ATOM      2  C   UNL     1       1.432   9.201  19.020  0.00  0.00    +0.000 A 
ATOM      3  S   UNL     1       2.330   7.869  18.431  0.00  0.00    +0.000 S 
ATOM      4  C   UNL     1       2.161   7.086  19.961  0.00  0.00    +0.000 A 
ATOM      5  N   UNL     1       2.742   5.874  20.145  0.00  0.00    +0.000 N 
ATOM      6  N   UNL     1       1.501   7.778  20.862  0.00  0.00    +0.000 NA
ATOM      7  H   UNL     1       3.216   5.489  19.329  0.00  0.00    +0.000 HD
ENDROOT
BRANCH   1  11
ATOM      8  C   UNL     1      -1.044  11.883  22.651  0.00  0.00    +0.000 A 
ATOM      9  C   UNL     1      -1.019  10.547  23.054  0.00  0.00    +0.000 A 
ATOM     10  C   UNL     1      -0.304   9.596  22.322  0.00  0.00    +0.000 A 
ATOM     11  C   UNL     1       0.379   9.966  21.157  0.00  0.00    +0.000 A 
ATOM     12  C   UNL     1       0.360  11.311  20.764  0.00  0.00    +0.000 A 
ATOM     13  C   UNL     1      -0.353  12.264  21.501  0.00  0.00    +0.000 A 
BRANCH   8  15
ATOM     14  C   UNL     1      -3.170  12.326  23.585  0.00  0.00    +0.000 C 
ATOM     15  O   UNL     1      -1.808  12.707  23.429  0.00  0.00    +0.000 OA
ENDBRANCH   8  15
ENDBRANCH   1  11
BRANCH   5  16
ATOM     16  N   UNL     1       2.328   4.977  21.086  0.00  0.00    +0.000 NA
ATOM     17  C   UNL     1       2.119   3.750  20.701  0.00  0.00    +0.000 C 
ATOM     18  C   UNL     1       1.474   2.809  21.693  0.00  0.00    +0.000 C 
BRANCH  17  19
ATOM     19  C   UNL     1       2.473   3.203  19.406  0.00  0.00    +0.000 A 
ATOM     20  C   UNL     1       1.761   2.447  18.488  0.00  0.00    +0.000 A 
ATOM     21  C   UNL     1       2.634   2.182  17.407  0.00  0.00    +0.000 A 
ATOM     22  C   UNL     1       3.817   2.810  17.711  0.00  0.00    +0.000 A 
ATOM     23  O   UNL     1       3.727   3.444  18.908  0.00  0.00    +0.000 OA
ENDBRANCH  17  19
ENDBRANCH   5  16
TORSDOF 4
ENDMDL
MODEL 2
REMARK VINA RESULT:      -7.4      0.264      1.042
REMARK  Name = 
REMARK  6 active torsions:
REMARK  status: ('A' for Active; 'I' for Inactive)
REMARK    1  A    between atoms: C_1  and  O_2
REMARK    2  A    between atoms: O_2  and  C_3
REMARK    3  A    between atoms: C_6  and  C_7
REMARK    4  A    between atoms: N_11  and  N_12
REMARK    5  A    between atoms: C_13  and  C_14
REMARK    6  A    between atoms: C_13  and  C_15
REMARK                            x       y       z     vdW  Elec       q    Type
REMARK                         _______ _______ _______ _____ _____    ______ ____
ROOT
ATOM      1  C   UNL     1       0.930   8.964  20.322  0.00  0.00    +0.000 A 
ATOM      2  C   UNL     1       1.348   9.205  19.028  0.00  0.00    +0.000 A 
ATOM      3  S   UNL     1       2.358   7.932  18.495  0.00  0.00    +0.000 S 
ATOM      4  C   UNL     1       2.142   7.132  20.010  0.00  0.00    +0.000 A 
ATOM      5  N   UNL     1       2.782   5.955  20.228  0.00  0.00    +0.000 N 
ATOM      6  N   UNL     1       1.388   7.778  20.869  0.00  0.00    +0.000 NA
ATOM      7  H   UNL     1       3.328   5.604  19.442  0.00  0.00    +0.000 HD
ENDROOT
BRANCH   1  11
ATOM      8  C   UNL     1      -1.359  11.695  22.678  0.00  0.00    +0.000 A 
ATOM      9  C   UNL     1      -0.959  12.048  21.389  0.00  0.00    +0.000 A 
ATOM     10  C   UNL     1      -0.234  11.153  20.597  0.00  0.00    +0.000 A 
ATOM     11  C   UNL     1       0.122   9.895  21.098  0.00  0.00    +0.000 A 
ATOM     12  C   UNL     1      -0.293   9.542  22.388  0.00  0.00    +0.000 A 
ATOM     13  C   UNL     1      -1.023  10.438  23.178  0.00  0.00    +0.000 A 
BRANCH   8  15
ATOM     14  C   UNL     1      -3.404  12.410  23.624  0.00  0.00    +0.000 C 
ATOM     15  O   UNL     1      -2.030  12.670  23.362  0.00  0.00    +0.000 OA
ENDBRANCH   8  15
ENDBRANCH   1  11
BRANCH   5  16
ATOM     16  N   UNL     1       2.365   5.030  21.140  0.00  0.00    +0.000 NA
ATOM     17  C   UNL     1       2.136   3.821  20.713  0.00  0.00    +0.000 C 
ATOM     18  C   UNL     1       1.489   2.853  21.677  0.00  0.00    +0.000 C 
BRANCH  17  19
ATOM     19  C   UNL     1       2.472   3.316  19.396  0.00  0.00    +0.000 A 
ATOM     20  C   UNL     1       1.696   2.790  18.375  0.00  0.00    +0.000 A 
ATOM     21  C   UNL     1       2.578   2.442  17.324  0.00  0.00    +0.000 A 
ATOM     22  C   UNL     1       3.834   2.796  17.751  0.00  0.00    +0.000 A 
ATOM     23  O   UNL     1       3.781   3.341  18.993  0.00  0.00    +0.000 OA
ENDBRANCH  17  19
ENDBRANCH   5  16
TORSDOF 4
ENDMDL
MODEL 3
REMARK VINA RESULT:      -7.0      4.428      6.247
REMARK  Name = 
REMARK  6 active torsions:
REMARK  status: ('A' for Active; 'I' for Inactive)
REMARK    1  A    between atoms: C_1  and  O_2
REMARK    2  A    between atoms: O_2  and  C_3
REMARK    3  A    between atoms: C_6  and  C_7
REMARK    4  A    between atoms: N_11  and  N_12
REMARK    5  A    between atoms: C_13  and  C_14
REMARK    6  A    between atoms: C_13  and  C_15
REMARK                            x       y       z     vdW  Elec       q    Type
REMARK                         _______ _______ _______ _____ _____    ______ ____
ROOT
ATOM      1  C   UNL     1       3.495   5.556  17.928  0.00  0.00    +0.000 A 
ATOM      2  C   UNL     1       3.235   4.304  18.449  0.00  0.00    +0.000 A 
ATOM      3  S   UNL     1       4.095   3.116  17.567  0.00  0.00    +0.000 S 
ATOM      4  C   UNL     1       4.777   4.354  16.575  0.00  0.00    +0.000 A 
ATOM      5  N   UNL     1       5.614   4.000  15.566  0.00  0.00    +0.000 N 
ATOM      6  N   UNL     1       4.376   5.572  16.862  0.00  0.00    +0.000 NA
ATOM      7  H   UNL     1       5.811   3.003  15.494  0.00  0.00    +0.000 HD
ENDROOT
BRANCH   1  11
ATOM      8  C   UNL     1       1.547   9.126  19.238  0.00  0.00    +0.000 A 
ATOM      9  C   UNL     1       1.694   8.048  20.112  0.00  0.00    +0.000 A 
ATOM     10  C   UNL     1       2.354   6.886  19.705  0.00  0.00    +0.000 A 
ATOM     11  C   UNL     1       2.857   6.777  18.403  0.00  0.00    +0.000 A 
ATOM     12  C   UNL     1       2.717   7.867  17.534  0.00  0.00    +0.000 A 
ATOM     13  C   UNL     1       2.059   9.032  17.945  0.00  0.00    +0.000 A 
BRANCH   8  15
ATOM     14  C   UNL     1       0.699  10.213  21.158  0.00  0.00    +0.000 C 
ATOM     15  O   UNL     1       0.851  10.188  19.743  0.00  0.00    +0.000 OA
ENDBRANCH   8  15
ENDBRANCH   1  11
BRANCH   5  16
ATOM     16  N   UNL     1       6.541   4.844  15.028  0.00  0.00    +0.000 NA
ATOM     17  C   UNL     1       6.867   4.666  13.779  0.00  0.00    +0.000 C 
ATOM     18  C   UNL     1       8.030   5.469  13.243  0.00  0.00    +0.000 C 
BRANCH  17  19
ATOM     19  C   UNL     1       6.193   3.778  12.852  0.00  0.00    +0.000 A 
ATOM     20  C   UNL     1       6.655   2.752  12.044  0.00  0.00    +0.000 A 
ATOM     21  C   UNL     1       5.539   2.251  11.334  0.00  0.00    +0.000 A 
ATOM     22  C   UNL     1       4.458   2.981  11.764  0.00  0.00    +0.000 A 
ATOM     23  O   UNL     1       4.838   3.895  12.693  0.00  0.00    +0.000 OA
ENDBRANCH  17  19
ENDBRANCH   5  16
TORSDOF 4
ENDMDL
MODEL 4
REMARK VINA RESULT:      -7.0      4.423      6.335
REMARK  Name = 
REMARK  6 active torsions:
REMARK  status: ('A' for Active; 'I' for Inactive)
REMARK    1  A    between atoms: C_1  and  O_2
REMARK    2  A    between atoms: O_2  and  C_3
REMARK    3  A    between atoms: C_6  and  C_7
REMARK    4  A    between atoms: N_11  and  N_12
REMARK    5  A    between atoms: C_13  and  C_14
REMARK    6  A    between atoms: C_13  and  C_15
REMARK                            x       y       z     vdW  Elec       q    Type
REMARK                         _______ _______ _______ _____ _____    ______ ____
ROOT
ATOM      1  C   UNL     1       3.421   5.443  17.937  0.00  0.00    +0.000 A 
ATOM      2  C   UNL     1       3.170   4.185  18.450  0.00  0.00    +0.000 A 
ATOM      3  S   UNL     1       4.060   3.012  17.579  0.00  0.00    +0.000 S 
ATOM      4  C   UNL     1       4.743   4.261  16.602  0.00  0.00    +0.000 A 
ATOM      5  N   UNL     1       5.601   3.921  15.608  0.00  0.00    +0.000 N 
ATOM      6  N   UNL     1       4.321   5.473  16.887  0.00  0.00    +0.000 NA
ATOM      7  H   UNL     1       5.813   2.927  15.536  0.00  0.00    +0.000 HD
ENDROOT
BRANCH   1  11
ATOM      8  C   UNL     1       1.563   9.006  19.386  0.00  0.00    +0.000 A 
ATOM      9  C   UNL     1       1.991   8.930  18.060  0.00  0.00    +0.000 A 
ATOM     10  C   UNL     1       2.575   7.760  17.566  0.00  0.00    +0.000 A 
ATOM     11  C   UNL     1       2.760   6.654  18.404  0.00  0.00    +0.000 A 
ATOM     12  C   UNL     1       2.317   6.732  19.730  0.00  0.00    +0.000 A 
ATOM     13  C   UNL     1       1.729   7.904  20.222  0.00  0.00    +0.000 A 
BRANCH   8  15
ATOM     14  C   UNL     1      -0.277  10.488  19.301  0.00  0.00    +0.000 C 
ATOM     15  O   UNL     1       1.043  10.215  19.756  0.00  0.00    +0.000 OA
ENDBRANCH   8  15
ENDBRANCH   1  11
BRANCH   5  16
ATOM     16  N   UNL     1       6.526   4.779  15.088  0.00  0.00    +0.000 NA
ATOM     17  C   UNL     1       6.845   4.635  13.833  0.00  0.00    +0.000 C 
ATOM     18  C   UNL     1       8.006   5.452  13.312  0.00  0.00    +0.000 C 
BRANCH  17  19
ATOM     19  C   UNL     1       6.166   3.773  12.885  0.00  0.00    +0.000 A 
ATOM     20  C   UNL     1       6.613   2.731  12.089  0.00  0.00    +0.000 A 
ATOM     21  C   UNL     1       5.500   2.272  11.346  0.00  0.00    +0.000 A 
ATOM     22  C   UNL     1       4.434   3.041  11.747  0.00  0.00    +0.000 A 
ATOM     23  O   UNL     1       4.821   3.940  12.688  0.00  0.00    +0.000 OA
ENDBRANCH  17  19
ENDBRANCH   5  16
TORSDOF 4
ENDMDL
MODEL 5
REMARK VINA RESULT:      -6.9      3.037      9.047
REMARK  Name = 
REMARK  6 active torsions:
REMARK  status: ('A' for Active; 'I' for Inactive)
REMARK    1  A    between atoms: C_1  and  O_2
REMARK    2  A    between atoms: O_2  and  C_3
REMARK    3  A    between atoms: C_6  and  C_7
REMARK    4  A    between atoms: N_11  and  N_12
REMARK    5  A    between atoms: C_13  and  C_14
REMARK    6  A    between atoms: C_13  and  C_15
REMARK                            x       y       z     vdW  Elec       q    Type
REMARK                         _______ _______ _______ _____ _____    ______ ____
ROOT
ATOM      1  C   UNL     1       3.674   5.549  18.106  0.00  0.00    +0.000 A 
ATOM      2  C   UNL     1       3.364   4.676  19.130  0.00  0.00    +0.000 A 
ATOM      3  S   UNL     1       2.427   5.476  20.316  0.00  0.00    +0.000 S 
ATOM      4  C   UNL     1       2.469   6.919  19.369  0.00  0.00    +0.000 A 
ATOM      5  N   UNL     1       1.856   8.033  19.843  0.00  0.00    +0.000 N 
ATOM      6  N   UNL     1       3.155   6.823  18.253  0.00  0.00    +0.000 NA
ATOM      7  H   UNL     1       1.371   7.919  20.732  0.00  0.00    +0.000 HD
ENDROOT
BRANCH   1  11
ATOM      8  C   UNL     1       6.091   4.470  14.753  0.00  0.00    +0.000 A 
ATOM      9  C   UNL     1       5.813   5.813  15.012  0.00  0.00    +0.000 A 
ATOM     10  C   UNL     1       5.047   6.181  16.122  0.00  0.00    +0.000 A 
ATOM     11  C   UNL     1       4.527   5.202  16.978  0.00  0.00    +0.000 A 
ATOM     12  C   UNL     1       4.819   3.857  16.719  0.00  0.00    +0.000 A 
ATOM     13  C   UNL     1       5.591   3.491  15.609  0.00  0.00    +0.000 A 
BRANCH   8  15
ATOM     14  C   UNL     1       6.167   3.476  12.610  0.00  0.00    +0.000 C 
ATOM     15  O   UNL     1       6.818   4.240  13.619  0.00  0.00    +0.000 OA
ENDBRANCH   8  15
ENDBRANCH   1  11
BRANCH   5  16
ATOM     16  N   UNL     1       1.430   9.053  19.044  0.00  0.00    +0.000 NA
ATOM     17  C   UNL     1       0.525   9.859  19.524  0.00  0.00    +0.000 C 
ATOM     18  C   UNL     1      -0.086  10.864  18.574  0.00  0.00    +0.000 C 
BRANCH  17  19
ATOM     19  C   UNL     1       0.071   9.890  20.900  0.00  0.00    +0.000 A 
ATOM     20  C   UNL     1      -0.109  10.930  21.798  0.00  0.00    +0.000 A 
ATOM     21  C   UNL     1      -0.554  10.355  23.012  0.00  0.00    +0.000 A 
ATOM     22  C   UNL     1      -0.644   9.004  22.781  0.00  0.00    +0.000 A 
ATOM     23  O   UNL     1      -0.285   8.713  21.504  0.00  0.00    +0.000 OA
ENDBRANCH  17  19
ENDBRANCH   5  16
TORSDOF 4
ENDMDL
MODEL 6
REMARK VINA RESULT:      -6.9      3.037      4.303
REMARK  Name = 
REMARK  6 active torsions:
REMARK  status: ('A' for Active; 'I' for Inactive)
REMARK    1  A    between atoms: C_1  and  O_2
REMARK    2  A    between atoms: O_2  and  C_3
REMARK    3  A    between atoms: C_6  and  C_7
REMARK    4  A    between atoms: N_11  and  N_12
REMARK    5  A    between atoms: C_13  and  C_14
REMARK    6  A    between atoms: C_13  and  C_15
REMARK                            x       y       z     vdW  Elec       q    Type
REMARK                         _______ _______ _______ _____ _____    ______ ____
ROOT
ATOM      1  C   UNL     1       2.297   6.131  19.965  0.00  0.00    +0.000 A 
ATOM      2  C   UNL     1       1.536   4.989  20.123  0.00  0.00    +0.000 A 
ATOM      3  S   UNL     1       2.519   3.602  19.931  0.00  0.00    +0.000 S 
ATOM      4  C   UNL     1       3.894   4.617  19.684  0.00  0.00    +0.000 A 
ATOM      5  N   UNL     1       5.097   4.042  19.429  0.00  0.00    +0.000 N 
ATOM      6  N   UNL     1       3.639   5.905  19.717  0.00  0.00    +0.000 NA
ATOM      7  H   UNL     1       5.104   3.023  19.442  0.00  0.00    +0.000 HD
ENDROOT
BRANCH   1  11
ATOM      8  C   UNL     1       0.613  10.057  19.951  0.00  0.00    +0.000 A 
ATOM      9  C   UNL     1       0.530   9.264  21.096  0.00  0.00    +0.000 A 
ATOM     10  C   UNL     1       1.101   7.989  21.123  0.00  0.00    +0.000 A 
ATOM     11  C   UNL     1       1.746   7.479  19.990  0.00  0.00    +0.000 A 
ATOM     12  C   UNL     1       1.838   8.285  18.848  0.00  0.00    +0.000 A 
ATOM     13  C   UNL     1       1.269   9.564  18.824  0.00  0.00    +0.000 A 
BRANCH   8  15
ATOM     14  C   UNL     1      -1.313  11.336  19.457  0.00  0.00    +0.000 C 
ATOM     15  O   UNL     1      -0.016  11.267  20.039  0.00  0.00    +0.000 OA
ENDBRANCH   8  15
ENDBRANCH   1  11
BRANCH   5  16
ATOM     16  N   UNL     1       6.290   4.661  19.662  0.00  0.00    +0.000 NA
ATOM     17  C   UNL     1       6.858   5.275  18.663  0.00  0.00    +0.000 C 
ATOM     18  C   UNL     1       8.264   5.789  18.870  0.00  0.00    +0.000 C 
BRANCH  17  19
ATOM     19  C   UNL     1       6.246   5.527  17.373  0.00  0.00    +0.000 A 
ATOM     20  C   UNL     1       5.713   6.672  16.803  0.00  0.00    +0.000 A 
ATOM     21  C   UNL     1       5.234   6.312  15.522  0.00  0.00    +0.000 A 
ATOM     22  C   UNL     1       5.521   4.977  15.372  0.00  0.00    +0.000 A 
ATOM     23  O   UNL     1       6.147   4.496  16.476  0.00  0.00    +0.000 OA
ENDBRANCH  17  19
ENDBRANCH   5  16
TORSDOF 4
ENDMDL
MODEL 7
REMARK VINA RESULT:      -6.8      2.969      8.932
REMARK  Name = 
REMARK  6 active torsions:
REMARK  status: ('A' for Active; 'I' for Inactive)
REMARK    1  A    between atoms: C_1  and  O_2
REMARK    2  A    between atoms: O_2  and  C_3
REMARK    3  A    between atoms: C_6  and  C_7
REMARK    4  A    between atoms: N_11  and  N_12
REMARK    5  A    between atoms: C_13  and  C_14
REMARK    6  A    between atoms: C_13  and  C_15
REMARK                            x       y       z     vdW  Elec       q    Type
REMARK                         _______ _______ _______ _____ _____    ______ ____
ROOT
ATOM      1  C   UNL     1       3.449   5.744  18.210  0.00  0.00    +0.000 A 
ATOM      2  C   UNL     1       3.171   4.883  19.254  0.00  0.00    +0.000 A 
ATOM      3  S   UNL     1       2.257   5.693  20.450  0.00  0.00    +0.000 S 
ATOM      4  C   UNL     1       2.266   7.123  19.483  0.00  0.00    +0.000 A 
ATOM      5  N   UNL     1       1.657   8.241  19.956  0.00  0.00    +0.000 N 
ATOM      6  N   UNL     1       2.926   7.017  18.352  0.00  0.00    +0.000 NA
ATOM      7  H   UNL     1       1.194   8.135  20.858  0.00  0.00    +0.000 HD
ENDROOT
BRANCH   1  11
ATOM      8  C   UNL     1       5.967   4.752  14.905  0.00  0.00    +0.000 A 
ATOM      9  C   UNL     1       5.360   3.741  15.650  0.00  0.00    +0.000 A 
ATOM     10  C   UNL     1       4.511   4.052  16.715  0.00  0.00    +0.000 A 
ATOM     11  C   UNL     1       4.278   5.387  17.066  0.00  0.00    +0.000 A 
ATOM     12  C   UNL     1       4.881   6.398  16.308  0.00  0.00    +0.000 A 
ATOM     13  C   UNL     1       5.727   6.084  15.237  0.00  0.00    +0.000 A 
BRANCH   8  15
ATOM     14  C   UNL     1       6.188   3.573  12.868  0.00  0.00    +0.000 C 
ATOM     15  O   UNL     1       6.802   4.318  13.913  0.00  0.00    +0.000 OA
ENDBRANCH   8  15
ENDBRANCH   1  11
BRANCH   5  16
ATOM     16  N   UNL     1       1.204   9.246  19.154  0.00  0.00    +0.000 NA
ATOM     17  C   UNL     1       0.309  10.055  19.645  0.00  0.00    +0.000 C 
ATOM     18  C   UNL     1      -0.333  11.042  18.697  0.00  0.00    +0.000 C 
BRANCH  17  19
ATOM     19  C   UNL     1      -0.109  10.104  21.033  0.00  0.00    +0.000 A 
ATOM     20  C   UNL     1      -0.348  11.162  21.896  0.00  0.00    +0.000 A 
ATOM     21  C   UNL     1      -0.712  10.602  23.143  0.00  0.00    +0.000 A 
ATOM     22  C   UNL     1      -0.699   9.240  22.966  0.00  0.00    +0.000 A 
ATOM     23  O   UNL     1      -0.353   8.928  21.691  0.00  0.00    +0.000 OA
ENDBRANCH  17  19
ENDBRANCH   5  16
TORSDOF 4
ENDMDL
MODEL 8
REMARK VINA RESULT:      -6.8      1.097      1.292
REMARK  Name = 
REMARK  6 active torsions:
REMARK  status: ('A' for Active; 'I' for Inactive)
REMARK    1  A    between atoms: C_1  and  O_2
REMARK    2  A    between atoms: O_2  and  C_3
REMARK    3  A    between atoms: C_6  and  C_7
REMARK    4  A    between atoms: N_11  and  N_12
REMARK    5  A    between atoms: C_13  and  C_14
REMARK    6  A    between atoms: C_13  and  C_15
REMARK                            x       y       z     vdW  Elec       q    Type
REMARK                         _______ _______ _______ _____ _____    ______ ____
ROOT
ATOM      1  C   UNL     1       1.381   8.714  19.534  0.00  0.00    +0.000 A 
ATOM      2  C   UNL     1       1.964   8.762  18.283  0.00  0.00    +0.000 A 
ATOM      3  S   UNL     1       2.944   7.381  18.043  0.00  0.00    +0.000 S 
ATOM      4  C   UNL     1       2.499   6.799  19.606  0.00  0.00    +0.000 A 
ATOM      5  N   UNL     1       3.030   5.630  20.047  0.00  0.00    +0.000 N 
ATOM      6  N   UNL     1       1.692   7.589  20.277  0.00  0.00    +0.000 NA
ATOM      7  H   UNL     1       3.640   5.152  19.386  0.00  0.00    +0.000 HD
ENDROOT
BRANCH   1  11
ATOM      8  C   UNL     1      -1.150  11.771  21.114  0.00  0.00    +0.000 A 
ATOM      9  C   UNL     1      -0.182  11.177  21.924  0.00  0.00    +0.000 A 
ATOM     10  C   UNL     1       0.671  10.196  21.412  0.00  0.00    +0.000 A 
ATOM     11  C   UNL     1       0.550   9.778  20.081  0.00  0.00    +0.000 A 
ATOM     12  C   UNL     1      -0.415  10.387  19.269  0.00  0.00    +0.000 A 
ATOM     13  C   UNL     1      -1.266  11.373  19.783  0.00  0.00    +0.000 A 
BRANCH   8  15
ATOM     14  C   UNL     1      -1.635  12.947  23.107  0.00  0.00    +0.000 C 
ATOM     15  O   UNL     1      -1.945  12.689  21.742  0.00  0.00    +0.000 OA
ENDBRANCH   8  15
ENDBRANCH   1  11
BRANCH   5  16
ATOM     16  N   UNL     1       2.448   4.855  21.007  0.00  0.00    +0.000 NA
ATOM     17  C   UNL     1       2.177   3.618  20.702  0.00  0.00    +0.000 C 
ATOM     18  C   UNL     1       1.358   2.821  21.692  0.00  0.00    +0.000 C 
BRANCH  17  19
ATOM     19  C   UNL     1       2.614   2.932  19.502  0.00  0.00    +0.000 A 
ATOM     20  C   UNL     1       3.600   1.983  19.279  0.00  0.00    +0.000 A 
ATOM     21  C   UNL     1       3.587   1.693  17.895  0.00  0.00    +0.000 A 
ATOM     22  C   UNL     1       2.583   2.459  17.356  0.00  0.00    +0.000 A 
ATOM     23  O   UNL     1       1.977   3.199  18.319  0.00  0.00    +0.000 OA
ENDBRANCH  17  19
ENDBRANCH   5  16
TORSDOF 4
ENDMDL
MODEL 9
REMARK VINA RESULT:      -6.8      3.600      5.480
REMARK  Name = 
REMARK  6 active torsions:
REMARK  status: ('A' for Active; 'I' for Inactive)
REMARK    1  A    between atoms: C_1  and  O_2
REMARK    2  A    between atoms: O_2  and  C_3
REMARK    3  A    between atoms: C_6  and  C_7
REMARK    4  A    between atoms: N_11  and  N_12
REMARK    5  A    between atoms: C_13  and  C_14
REMARK    6  A    between atoms: C_13  and  C_15
REMARK                            x       y       z     vdW  Elec       q    Type
REMARK                         _______ _______ _______ _____ _____    ______ ____
ROOT
ATOM      1  C   UNL     1       3.266   5.966  18.861  0.00  0.00    +0.000 A 
ATOM      2  C   UNL     1       3.463   5.215  20.004  0.00  0.00    +0.000 A 
ATOM      3  S   UNL     1       4.280   3.764  19.615  0.00  0.00    +0.000 S 
ATOM      4  C   UNL     1       4.345   4.249  17.959  0.00  0.00    +0.000 A 
ATOM      5  N   UNL     1       4.913   3.415  17.052  0.00  0.00    +0.000 N 
ATOM      6  N   UNL     1       3.775   5.405  17.703  0.00  0.00    +0.000 NA
ATOM      7  H   UNL     1       5.304   2.556  17.436  0.00  0.00    +0.000 HD
ENDROOT
BRANCH   1  11
ATOM      8  C   UNL     1       1.175   9.691  18.869  0.00  0.00    +0.000 A 
ATOM      9  C   UNL     1       1.810   9.247  17.709  0.00  0.00    +0.000 A 
ATOM     10  C   UNL     1       2.473   8.017  17.685  0.00  0.00    +0.000 A 
ATOM     11  C   UNL     1       2.530   7.222  18.836  0.00  0.00    +0.000 A 
ATOM     12  C   UNL     1       1.881   7.667  19.994  0.00  0.00    +0.000 A 
ATOM     13  C   UNL     1       1.213   8.898  20.015  0.00  0.00    +0.000 A 
BRANCH   8  15
ATOM     14  C   UNL     1       1.279  11.984  19.433  0.00  0.00    +0.000 C 
ATOM     15  O   UNL     1       0.594  10.925  18.775  0.00  0.00    +0.000 OA
ENDBRANCH   8  15
ENDBRANCH   1  11
BRANCH   5  16
ATOM     16  N   UNL     1       5.425   3.837  15.860  0.00  0.00    +0.000 NA
ATOM     17  C   UNL     1       6.339   4.765  15.891  0.00  0.00    +0.000 C 
ATOM     18  C   UNL     1       6.762   5.369  14.571  0.00  0.00    +0.000 C 
BRANCH  17  19
ATOM     19  C   UNL     1       7.003   5.254  17.083  0.00  0.00    +0.000 A 
ATOM     20  C   UNL     1       7.178   6.530  17.595  0.00  0.00    +0.000 A 
ATOM     21  C   UNL     1       7.931   6.398  18.785  0.00  0.00    +0.000 A 
ATOM     22  C   UNL     1       8.152   5.052  18.947  0.00  0.00    +0.000 A 
ATOM     23  O   UNL     1       7.581   4.349  17.934  0.00  0.00    +0.000 OA
ENDBRANCH  17  19
ENDBRANCH   5  16
TORSDOF 4
ENDMDL
