MODEL 1
REMARK VINA RESULT:      -8.9      0.000      0.000
REMARK  Name = 
REMARK  3 active torsions:
REMARK  status: ('A' for Active; 'I' for Inactive)
REMARK    1  A    between atoms: N_3  and  C_4
REMARK    2  A    between atoms: N_26  and  C_27
REMARK    3  A    between atoms: C_27  and  C_28
REMARK                            x       y       z     vdW  Elec       q    Type
REMARK                         _______ _______ _______ _____ _____    ______ ____
ROOT
ATOM      1  O   UNL     1       1.377  10.661  20.599  0.00  0.00    +0.000 OA
ATOM      2  C   UNL     1       1.210  10.321  19.430  0.00  0.00    +0.000 C 
ATOM      3  N   UNL     1       0.945  11.207  18.410  0.00  0.00    +0.000 N 
ATOM      4  N   UNL     1       1.232   8.983  19.049  0.00  0.00    +0.000 N 
ATOM      5  C   UNL     1       1.427   8.477  17.691  0.00  0.00    +0.000 C 
ATOM      6  C   UNL     1       2.799   7.798  17.566  0.00  0.00    +0.000 C 
ATOM      7  C   UNL     1       2.988   6.684  18.629  0.00  0.00    +0.000 C 
ATOM      8  C   UNL     1       2.723   7.309  20.028  0.00  0.00    +0.000 C 
ATOM      9  C   UNL     1       1.351   7.971  20.089  0.00  0.00    +0.000 C 
ATOM     10  O   UNL     1       1.961   5.712  18.312  0.00  0.00    +0.000 OA
ATOM     11  C   UNL     1       2.026   4.553  19.033  0.00  0.00    +0.000 A 
ATOM     12  C   UNL     1       0.854   3.808  19.151  0.00  0.00    +0.000 A 
ATOM     13  C   UNL     1       0.852   2.639  19.912  0.00  0.00    +0.000 A 
ATOM     14  C   UNL     1       2.017   2.218  20.555  0.00  0.00    +0.000 A 
ATOM     15  C   UNL     1       3.197   2.947  20.407  0.00  0.00    +0.000 A 
ATOM     16  C   UNL     1       3.198   4.107  19.629  0.00  0.00    +0.000 A 
ATOM     17  C   UNL     1       4.450   4.834  19.346  0.00  0.00    +0.000 C 
ATOM     18  O   UNL     1       5.523   4.371  19.713  0.00  0.00    +0.000 OA
ATOM     19  N   UNL     1       4.302   6.007  18.609  0.00  0.00    +0.000 N 
ATOM     20  H   UNL     1       0.271  10.869  17.736  0.00  0.00    +0.000 HD
ENDROOT
BRANCH   3  21
ATOM     21  C   UNL     1       0.943  12.615  18.588  0.00  0.00    +0.000 A 
ATOM     22  C   UNL     1       2.114  13.370  18.465  0.00  0.00    +0.000 A 
ATOM     23  C   UNL     1       2.091  14.756  18.654  0.00  0.00    +0.000 A 
ATOM     24  C   UNL     1       0.895  15.399  18.971  0.00  0.00    +0.000 A 
ATOM     25  C   UNL     1      -0.282  14.659  19.085  0.00  0.00    +0.000 A 
ATOM     26  C   UNL     1      -0.261  13.277  18.876  0.00  0.00    +0.000 A 
ATOM     27 CL   UNL     1      -1.741  12.395  19.047  0.00  0.00    +0.000 Cl
ENDBRANCH   3  21
BRANCH  19  28
ATOM     28  C   UNL     1       5.516   6.615  18.059  0.00  0.00    +0.000 C 
BRANCH  28  29
ATOM     29  C   UNL     1       5.917   5.953  16.752  0.00  0.00    +0.000 A 
ATOM     30  C   UNL     1       5.130   6.091  15.599  0.00  0.00    +0.000 A 
ATOM     31  C   UNL     1       5.436   5.375  14.439  0.00  0.00    +0.000 A 
ATOM     32  C   UNL     1       6.545   4.538  14.419  0.00  0.00    +0.000 A 
ATOM     33  F   UNL     1       6.816   3.830  13.314  0.00  0.00    +0.000 F 
ATOM     34  C   UNL     1       7.368   4.421  15.530  0.00  0.00    +0.000 A 
ATOM     35  C   UNL     1       7.056   5.127  16.693  0.00  0.00    +0.000 A 
ENDBRANCH  28  29
ENDBRANCH  19  28
TORSDOF 3
ENDMDL
MODEL 2
REMARK VINA RESULT:      -8.5      0.923      1.238
REMARK  Name = 
REMARK  3 active torsions:
REMARK  status: ('A' for Active; 'I' for Inactive)
REMARK    1  A    between atoms: N_3  and  C_4
REMARK    2  A    between atoms: N_26  and  C_27
REMARK    3  A    between atoms: C_27  and  C_28
REMARK                            x       y       z     vdW  Elec       q    Type
REMARK                         _______ _______ _______ _____ _____    ______ ____
ROOT
ATOM      1  O   UNL     1       1.272  10.754  20.711  0.00  0.00    +0.000 OA
ATOM      2  C   UNL     1       1.052  10.413  19.551  0.00  0.00    +0.000 C 
ATOM      3  N   UNL     1       0.702  11.294  18.553  0.00  0.00    +0.000 N 
ATOM      4  N   UNL     1       1.098   9.079  19.161  0.00  0.00    +0.000 N 
ATOM      5  C   UNL     1       1.234   8.586  17.790  0.00  0.00    +0.000 C 
ATOM      6  C   UNL     1       2.618   7.953  17.586  0.00  0.00    +0.000 C 
ATOM      7  C   UNL     1       2.904   6.842  18.630  0.00  0.00    +0.000 C 
ATOM      8  C   UNL     1       2.696   7.451  20.045  0.00  0.00    +0.000 C 
ATOM      9  C   UNL     1       1.308   8.066  20.186  0.00  0.00    +0.000 C 
ATOM     10  O   UNL     1       1.893   5.837  18.363  0.00  0.00    +0.000 OA
ATOM     11  C   UNL     1       2.037   4.678  19.072  0.00  0.00    +0.000 A 
ATOM     12  C   UNL     1       0.899   3.894  19.250  0.00  0.00    +0.000 A 
ATOM     13  C   UNL     1       0.977   2.721  20.003  0.00  0.00    +0.000 A 
ATOM     14  C   UNL     1       2.189   2.337  20.579  0.00  0.00    +0.000 A 
ATOM     15  C   UNL     1       3.335   3.105  20.370  0.00  0.00    +0.000 A 
ATOM     16  C   UNL     1       3.254   4.268  19.600  0.00  0.00    +0.000 A 
ATOM     17  C   UNL     1       4.463   5.039  19.253  0.00  0.00    +0.000 C 
ATOM     18  O   UNL     1       5.570   4.610  19.557  0.00  0.00    +0.000 OA
ATOM     19  N   UNL     1       4.236   6.209  18.533  0.00  0.00    +0.000 N 
ATOM     20  H   UNL     1       0.003  10.937  17.915  0.00  0.00    +0.000 HD
ENDROOT
BRANCH   3  21
ATOM     21  C   UNL     1       0.663  12.701  18.740  0.00  0.00    +0.000 A 
ATOM     22  C   UNL     1      -0.502  13.351  19.161  0.00  0.00    +0.000 A 
ATOM     23  C   UNL     1      -0.522  14.739  19.328  0.00  0.00    +0.000 A 
ATOM     24  C   UNL     1       0.624  15.491  19.072  0.00  0.00    +0.000 A 
ATOM     25  C   UNL     1       1.796  14.854  18.664  0.00  0.00    +0.000 A 
ATOM     26  C   UNL     1       1.820  13.464  18.516  0.00  0.00    +0.000 A 
ATOM     27 CL   UNL     1       3.289  12.716  17.987  0.00  0.00    +0.000 Cl
ENDBRANCH   3  21
BRANCH  19  28
ATOM     28  C   UNL     1       5.397   6.860  17.920  0.00  0.00    +0.000 C 
BRANCH  28  29
ATOM     29  C   UNL     1       5.845   6.120  16.672  0.00  0.00    +0.000 A 
ATOM     30  C   UNL     1       4.943   5.837  15.635  0.00  0.00    +0.000 A 
ATOM     31  C   UNL     1       5.331   5.045  14.552  0.00  0.00    +0.000 A 
ATOM     32  C   UNL     1       6.629   4.554  14.487  0.00  0.00    +0.000 A 
ATOM     33  F   UNL     1       6.987   3.769  13.462  0.00  0.00    +0.000 F 
ATOM     34  C   UNL     1       7.555   4.859  15.475  0.00  0.00    +0.000 A 
ATOM     35  C   UNL     1       7.164   5.641  16.564  0.00  0.00    +0.000 A 
ENDBRANCH  28  29
ENDBRANCH  19  28
TORSDOF 3
ENDMDL
MODEL 3
REMARK VINA RESULT:      -8.3      1.293      1.486
REMARK  Name = 
REMARK  3 active torsions:
REMARK  status: ('A' for Active; 'I' for Inactive)
REMARK    1  A    between atoms: N_3  and  C_4
REMARK    2  A    between atoms: N_26  and  C_27
REMARK    3  A    between atoms: C_27  and  C_28
REMARK                            x       y       z     vdW  Elec       q    Type
REMARK                         _______ _______ _______ _____ _____    ______ ____
ROOT
ATOM      1  O   UNL     1       1.432   9.978  21.607  0.00  0.00    +0.000 OA
ATOM      2  C   UNL     1       1.262   9.922  20.391  0.00  0.00    +0.000 C 
ATOM      3  N   UNL     1       1.029  11.028  19.605  0.00  0.00    +0.000 N 
ATOM      4  N   UNL     1       1.246   8.709  19.710  0.00  0.00    +0.000 N 
ATOM      5  C   UNL     1       1.434   8.526  18.272  0.00  0.00    +0.000 C 
ATOM      6  C   UNL     1       2.786   7.853  17.992  0.00  0.00    +0.000 C 
ATOM      7  C   UNL     1       2.937   6.518  18.767  0.00  0.00    +0.000 C 
ATOM      8  C   UNL     1       2.683   6.810  20.273  0.00  0.00    +0.000 C 
ATOM      9  C   UNL     1       1.330   7.480  20.487  0.00  0.00    +0.000 C 
ATOM     10  O   UNL     1       1.883   5.678  18.234  0.00  0.00    +0.000 OA
ATOM     11  C   UNL     1       1.910   4.382  18.667  0.00  0.00    +0.000 A 
ATOM     12  C   UNL     1       0.717   3.665  18.611  0.00  0.00    +0.000 A 
ATOM     13  C   UNL     1       0.675   2.352  19.081  0.00  0.00    +0.000 A 
ATOM     14  C   UNL     1       1.824   1.759  19.608  0.00  0.00    +0.000 A 
ATOM     15  C   UNL     1       3.026   2.466  19.630  0.00  0.00    +0.000 A 
ATOM     16  C   UNL     1       3.065   3.775  19.142  0.00  0.00    +0.000 A 
ATOM     17  C   UNL     1       4.339   4.510  19.034  0.00  0.00    +0.000 C 
ATOM     18  O   UNL     1       5.396   3.942  19.282  0.00  0.00    +0.000 OA
ATOM     19  N   UNL     1       4.231   5.825  18.589  0.00  0.00    +0.000 N 
ATOM     20  H   UNL     1       0.349  10.876  18.872  0.00  0.00    +0.000 HD
ENDROOT
BRANCH   3  21
ATOM     21  C   UNL     1       1.067  12.356  20.104  0.00  0.00    +0.000 A 
ATOM     22  C   UNL     1       0.299  12.746  21.206  0.00  0.00    +0.000 A 
ATOM     23  C   UNL     1       0.344  14.063  21.675  0.00  0.00    +0.000 A 
ATOM     24  C   UNL     1       1.156  15.003  21.043  0.00  0.00    +0.000 A 
ATOM     25  C   UNL     1       1.936  14.625  19.950  0.00  0.00    +0.000 A 
ATOM     26  C   UNL     1       1.905  13.303  19.495  0.00  0.00    +0.000 A 
ATOM     27 CL   UNL     1       2.874  12.881  18.123  0.00  0.00    +0.000 Cl
ENDBRANCH   3  21
BRANCH  19  28
ATOM     28  C   UNL     1       5.465   6.508  18.193  0.00  0.00    +0.000 C 
BRANCH  28  29
ATOM     29  C   UNL     1       5.948   6.023  16.837  0.00  0.00    +0.000 A 
ATOM     30  C   UNL     1       5.124   6.104  15.703  0.00  0.00    +0.000 A 
ATOM     31  C   UNL     1       5.527   5.540  14.491  0.00  0.00    +0.000 A 
ATOM     32  C   UNL     1       6.764   4.915  14.398  0.00  0.00    +0.000 A 
ATOM     33  F   UNL     1       7.132   4.349  13.241  0.00  0.00    +0.000 F 
ATOM     34  C   UNL     1       7.619   4.865  15.490  0.00  0.00    +0.000 A 
ATOM     35  C   UNL     1       7.212   5.418  16.707  0.00  0.00    +0.000 A 
ENDBRANCH  28  29
ENDBRANCH  19  28
TORSDOF 3
ENDMDL
MODEL 4
REMARK VINA RESULT:      -7.2      3.911      9.398
REMARK  Name = 
REMARK  3 active torsions:
REMARK  status: ('A' for Active; 'I' for Inactive)
REMARK    1  A    between atoms: N_3  and  C_4
REMARK    2  A    between atoms: N_26  and  C_27
REMARK    3  A    between atoms: C_27  and  C_28
REMARK                            x       y       z     vdW  Elec       q    Type
REMARK                         _______ _______ _______ _____ _____    ______ ____
ROOT
ATOM      1  O   UNL     1       1.699   7.407  21.513  0.00  0.00    +0.000 OA
ATOM      2  C   UNL     1       1.791   7.603  20.303  0.00  0.00    +0.000 C 
ATOM      3  N   UNL     1       2.156   6.630  19.401  0.00  0.00    +0.000 N 
ATOM      4  N   UNL     1       1.574   8.860  19.749  0.00  0.00    +0.000 N 
ATOM      5  C   UNL     1       1.281   9.143  18.344  0.00  0.00    +0.000 C 
ATOM      6  C   UNL     1      -0.175   9.605  18.186  0.00  0.00    +0.000 C 
ATOM      7  C   UNL     1      -0.497  10.818  19.097  0.00  0.00    +0.000 C 
ATOM      8  C   UNL     1      -0.117  10.433  20.555  0.00  0.00    +0.000 C 
ATOM      9  C   UNL     1       1.335   9.980  20.648  0.00  0.00    +0.000 C 
ATOM     10  O   UNL     1       0.376  11.868  18.612  0.00  0.00    +0.000 OA
ATOM     11  C   UNL     1       0.164  13.095  19.175  0.00  0.00    +0.000 A 
ATOM     12  C   UNL     1       1.221  14.002  19.145  0.00  0.00    +0.000 A 
ATOM     13  C   UNL     1       1.076  15.255  19.744  0.00  0.00    +0.000 A 
ATOM     14  C   UNL     1      -0.123  15.596  20.371  0.00  0.00    +0.000 A 
ATOM     15  C   UNL     1      -1.192  14.700  20.369  0.00  0.00    +0.000 A 
ATOM     16  C   UNL     1      -1.046  13.455  19.752  0.00  0.00    +0.000 A 
ATOM     17  C   UNL     1      -2.189  12.532  19.619  0.00  0.00    +0.000 C 
ATOM     18  O   UNL     1      -3.309  12.890  19.964  0.00  0.00    +0.000 OA
ATOM     19  N   UNL     1      -1.894  11.300  19.040  0.00  0.00    +0.000 N 
ATOM     20  H   UNL     1       2.762   6.960  18.661  0.00  0.00    +0.000 HD
ENDROOT
BRANCH   3  21
ATOM     21  C   UNL     1       2.361   5.272  19.764  0.00  0.00    +0.000 A 
ATOM     22  C   UNL     1       1.331   4.499  20.311  0.00  0.00    +0.000 A 
ATOM     23  C   UNL     1       1.557   3.166  20.671  0.00  0.00    +0.000 A 
ATOM     24  C   UNL     1       2.817   2.597  20.490  0.00  0.00    +0.000 A 
ATOM     25  C   UNL     1       3.849   3.353  19.935  0.00  0.00    +0.000 A 
ATOM     26  C   UNL     1       3.616   4.680  19.557  0.00  0.00    +0.000 A 
ATOM     27 CL   UNL     1       4.930   5.589  18.891  0.00  0.00    +0.000 Cl
ENDBRANCH   3  21
BRANCH  19  28
ATOM     28  C   UNL     1      -3.021  10.462  18.625  0.00  0.00    +0.000 C 
BRANCH  28  29
ATOM     29  C   UNL     1      -3.198  10.489  17.116  0.00  0.00    +0.000 A 
ATOM     30  C   UNL     1      -4.152  11.324  16.514  0.00  0.00    +0.000 A 
ATOM     31  C   UNL     1      -4.396  11.249  15.141  0.00  0.00    +0.000 A 
ATOM     32  C   UNL     1      -3.672  10.357  14.360  0.00  0.00    +0.000 A 
ATOM     33  F   UNL     1      -3.933  10.267  13.049  0.00  0.00    +0.000 F 
ATOM     34  C   UNL     1      -2.689   9.555  14.922  0.00  0.00    +0.000 A 
ATOM     35  C   UNL     1      -2.452   9.621  16.297  0.00  0.00    +0.000 A 
ENDBRANCH  28  29
ENDBRANCH  19  28
TORSDOF 3
ENDMDL
MODEL 5
REMARK VINA RESULT:      -7.2      4.472      8.502
REMARK  Name = 
REMARK  3 active torsions:
REMARK  status: ('A' for Active; 'I' for Inactive)
REMARK    1  A    between atoms: N_3  and  C_4
REMARK    2  A    between atoms: N_26  and  C_27
REMARK    3  A    between atoms: C_27  and  C_28
REMARK                            x       y       z     vdW  Elec       q    Type
REMARK                         _______ _______ _______ _____ _____    ______ ____
ROOT
ATOM      1  O   UNL     1      -3.164  15.941  21.335  0.00  0.00    +0.000 OA
ATOM      2  C   UNL     1      -2.775  15.040  22.075  0.00  0.00    +0.000 C 
ATOM      3  N   UNL     1      -3.597  14.368  22.950  0.00  0.00    +0.000 N 
ATOM      4  N   UNL     1      -1.440  14.655  22.117  0.00  0.00    +0.000 N 
ATOM      5  C   UNL     1      -0.923  13.392  22.642  0.00  0.00    +0.000 C 
ATOM      6  C   UNL     1      -0.403  12.511  21.496  0.00  0.00    +0.000 C 
ATOM      7  C   UNL     1       0.652  13.251  20.633  0.00  0.00    +0.000 C 
ATOM      8  C   UNL     1       0.025  14.592  20.157  0.00  0.00    +0.000 C 
ATOM      9  C   UNL     1      -0.476  15.419  21.336  0.00  0.00    +0.000 C 
ATOM     10  O   UNL     1       1.744  13.507  21.552  0.00  0.00    +0.000 OA
ATOM     11  C   UNL     1       2.868  14.027  20.974  0.00  0.00    +0.000 A 
ATOM     12  C   UNL     1       3.740  14.735  21.799  0.00  0.00    +0.000 A 
ATOM     13  C   UNL     1       4.881  15.327  21.255  0.00  0.00    +0.000 A 
ATOM     14  C   UNL     1       5.147  15.211  19.890  0.00  0.00    +0.000 A 
ATOM     15  C   UNL     1       4.292  14.472  19.073  0.00  0.00    +0.000 A 
ATOM     16  C   UNL     1       3.161  13.867  19.626  0.00  0.00    +0.000 A 
ATOM     17  C   UNL     1       2.302  12.977  18.824  0.00  0.00    +0.000 C 
ATOM     18  O   UNL     1       2.629  12.679  17.681  0.00  0.00    +0.000 OA
ATOM     19  N   UNL     1       1.174  12.489  19.479  0.00  0.00    +0.000 N 
ATOM     20  H   UNL     1      -3.166  14.159  23.841  0.00  0.00    +0.000 HD
ENDROOT
BRANCH   3  21
ATOM     21  C   UNL     1      -5.000  14.575  23.012  0.00  0.00    +0.000 A 
ATOM     22  C   UNL     1      -5.556  15.593  23.795  0.00  0.00    +0.000 A 
ATOM     23  C   UNL     1      -6.942  15.773  23.849  0.00  0.00    +0.000 A 
ATOM     24  C   UNL     1      -7.785  14.934  23.122  0.00  0.00    +0.000 A 
ATOM     25  C   UNL     1      -7.243  13.923  22.327  0.00  0.00    +0.000 A 
ATOM     26  C   UNL     1      -5.857  13.757  22.259  0.00  0.00    +0.000 A 
ATOM     27 CL   UNL     1      -5.228  12.478  21.276  0.00  0.00    +0.000 Cl
ENDBRANCH   3  21
BRANCH  19  28
ATOM     28  C   UNL     1       0.445  11.390  18.841  0.00  0.00    +0.000 C 
BRANCH  28  29
ATOM     29  C   UNL     1       1.108  10.053  19.125  0.00  0.00    +0.000 A 
ATOM     30  C   UNL     1       1.820   9.371  18.126  0.00  0.00    +0.000 A 
ATOM     31  C   UNL     1       2.316   8.086  18.358  0.00  0.00    +0.000 A 
ATOM     32  C   UNL     1       2.125   7.488  19.597  0.00  0.00    +0.000 A 
ATOM     33  F   UNL     1       2.576   6.243  19.804  0.00  0.00    +0.000 F 
ATOM     34  C   UNL     1       1.469   8.160  20.618  0.00  0.00    +0.000 A 
ATOM     35  C   UNL     1       0.962   9.440  20.384  0.00  0.00    +0.000 A 
ENDBRANCH  28  29
ENDBRANCH  19  28
TORSDOF 3
ENDMDL
MODEL 6
REMARK VINA RESULT:      -7.1      5.841     11.579
REMARK  Name = 
REMARK  3 active torsions:
REMARK  status: ('A' for Active; 'I' for Inactive)
REMARK    1  A    between atoms: N_3  and  C_4
REMARK    2  A    between atoms: N_26  and  C_27
REMARK    3  A    between atoms: C_27  and  C_28
REMARK                            x       y       z     vdW  Elec       q    Type
REMARK                         _______ _______ _______ _____ _____    ______ ____
ROOT
ATOM      1  O   UNL     1      -0.097   9.916  22.541  0.00  0.00    +0.000 OA
ATOM      2  C   UNL     1      -0.158  10.608  21.527  0.00  0.00    +0.000 C 
ATOM      3  N   UNL     1       0.428  10.258  20.331  0.00  0.00    +0.000 N 
ATOM      4  N   UNL     1      -0.797  11.843  21.523  0.00  0.00    +0.000 N 
ATOM      5  C   UNL     1      -1.264  12.568  20.341  0.00  0.00    +0.000 C 
ATOM      6  C   UNL     1      -2.799  12.572  20.290  0.00  0.00    +0.000 C 
ATOM      7  C   UNL     1      -3.418  13.137  21.595  0.00  0.00    +0.000 C 
ATOM      8  C   UNL     1      -2.833  12.331  22.789  0.00  0.00    +0.000 C 
ATOM      9  C   UNL     1      -1.309  12.360  22.784  0.00  0.00    +0.000 C 
ATOM     10  O   UNL     1      -2.954  14.510  21.642  0.00  0.00    +0.000 OA
ATOM     11  C   UNL     1      -3.499  15.264  22.642  0.00  0.00    +0.000 A 
ATOM     12  C   UNL     1      -2.783  16.385  23.058  0.00  0.00    +0.000 A 
ATOM     13  C   UNL     1      -3.270  17.168  24.106  0.00  0.00    +0.000 A 
ATOM     14  C   UNL     1      -4.467  16.828  24.737  0.00  0.00    +0.000 A 
ATOM     15  C   UNL     1      -5.200  15.726  24.296  0.00  0.00    +0.000 A 
ATOM     16  C   UNL     1      -4.716  14.956  23.235  0.00  0.00    +0.000 A 
ATOM     17  C   UNL     1      -5.519  13.861  22.659  0.00  0.00    +0.000 C 
ATOM     18  O   UNL     1      -6.667  13.675  23.046  0.00  0.00    +0.000 OA
ATOM     19  N   UNL     1      -4.895  13.135  21.648  0.00  0.00    +0.000 N 
ATOM     20  H   UNL     1       0.845  11.034  19.834  0.00  0.00    +0.000 HD
ENDROOT
BRANCH   3  21
ATOM     21  C   UNL     1       1.072   9.011  20.119  0.00  0.00    +0.000 A 
ATOM     22  C   UNL     1       1.003   7.982  21.064  0.00  0.00    +0.000 A 
ATOM     23  C   UNL     1       1.654   6.764  20.839  0.00  0.00    +0.000 A 
ATOM     24  C   UNL     1       2.383   6.567  19.667  0.00  0.00    +0.000 A 
ATOM     25  C   UNL     1       2.450   7.580  18.712  0.00  0.00    +0.000 A 
ATOM     26  C   UNL     1       1.782   8.790  18.929  0.00  0.00    +0.000 A 
ATOM     27 CL   UNL     1       1.908  10.028  17.726  0.00  0.00    +0.000 Cl
ENDBRANCH   3  21
BRANCH  19  28
ATOM     28  C   UNL     1      -5.731  12.233  20.851  0.00  0.00    +0.000 C 
BRANCH  28  29
ATOM     29  C   UNL     1      -6.171  12.894  19.556  0.00  0.00    +0.000 A 
ATOM     30  C   UNL     1      -6.190  12.178  18.348  0.00  0.00    +0.000 A 
ATOM     31  C   UNL     1      -6.472  12.826  17.144  0.00  0.00    +0.000 A 
ATOM     32  C   UNL     1      -6.760  14.185  17.143  0.00  0.00    +0.000 A 
ATOM     33  F   UNL     1      -6.999  14.808  15.980  0.00  0.00    +0.000 F 
ATOM     34  C   UNL     1      -6.797  14.905  18.328  0.00  0.00    +0.000 A 
ATOM     35  C   UNL     1      -6.504  14.261  19.532  0.00  0.00    +0.000 A 
ENDBRANCH  28  29
ENDBRANCH  19  28
TORSDOF 3
ENDMDL
MODEL 7
REMARK VINA RESULT:      -7.1      6.492      9.662
REMARK  Name = 
REMARK  3 active torsions:
REMARK  status: ('A' for Active; 'I' for Inactive)
REMARK    1  A    between atoms: N_3  and  C_4
REMARK    2  A    between atoms: N_26  and  C_27
REMARK    3  A    between atoms: C_27  and  C_28
REMARK                            x       y       z     vdW  Elec       q    Type
REMARK                         _______ _______ _______ _____ _____    ______ ____
ROOT
ATOM      1  O   UNL     1       6.827  14.676  20.552  0.00  0.00    +0.000 OA
ATOM      2  C   UNL     1       6.164  14.867  19.535  0.00  0.00    +0.000 C 
ATOM      3  N   UNL     1       6.695  14.843  18.266  0.00  0.00    +0.000 N 
ATOM      4  N   UNL     1       4.808  15.173  19.594  0.00  0.00    +0.000 N 
ATOM      5  C   UNL     1       3.849  15.049  18.497  0.00  0.00    +0.000 C 
ATOM      6  C   UNL     1       2.872  13.895  18.771  0.00  0.00    +0.000 C 
ATOM      7  C   UNL     1       2.164  14.052  20.142  0.00  0.00    +0.000 C 
ATOM      8  C   UNL     1       3.262  14.215  21.231  0.00  0.00    +0.000 C 
ATOM      9  C   UNL     1       4.201  15.371  20.903  0.00  0.00    +0.000 C 
ATOM     10  O   UNL     1       1.404  15.279  20.010  0.00  0.00    +0.000 OA
ATOM     11  C   UNL     1       0.569  15.551  21.057  0.00  0.00    +0.000 A 
ATOM     12  C   UNL     1       0.194  16.880  21.245  0.00  0.00    +0.000 A 
ATOM     13  C   UNL     1      -0.622  17.223  22.324  0.00  0.00    +0.000 A 
ATOM     14  C   UNL     1      -1.058  16.239  23.213  0.00  0.00    +0.000 A 
ATOM     15  C   UNL     1      -0.710  14.905  23.003  0.00  0.00    +0.000 A 
ATOM     16  C   UNL     1       0.092  14.566  21.910  0.00  0.00    +0.000 A 
ATOM     17  C   UNL     1       0.377  13.156  21.583  0.00  0.00    +0.000 C 
ATOM     18  O   UNL     1      -0.169  12.259  22.213  0.00  0.00    +0.000 OA
ATOM     19  N   UNL     1       1.239  12.958  20.506  0.00  0.00    +0.000 N 
ATOM     20  H   UNL     1       6.316  15.547  17.647  0.00  0.00    +0.000 HD
ENDROOT
BRANCH   3  21
ATOM     21  C   UNL     1       8.044  14.490  17.996  0.00  0.00    +0.000 A 
ATOM     22  C   UNL     1       8.428  13.157  17.811  0.00  0.00    +0.000 A 
ATOM     23  C   UNL     1       9.764  12.831  17.556  0.00  0.00    +0.000 A 
ATOM     24  C   UNL     1      10.728  13.835  17.487  0.00  0.00    +0.000 A 
ATOM     25  C   UNL     1      10.357  15.168  17.657  0.00  0.00    +0.000 A 
ATOM     26  C   UNL     1       9.017  15.495  17.893  0.00  0.00    +0.000 A 
ATOM     27 CL   UNL     1       8.603  17.161  18.118  0.00  0.00    +0.000 Cl
ENDBRANCH   3  21
BRANCH  19  28
ATOM     28  C   UNL     1       1.335  11.603  19.958  0.00  0.00    +0.000 C 
BRANCH  28  29
ATOM     29  C   UNL     1       0.215  11.331  18.968  0.00  0.00    +0.000 A 
ATOM     30  C   UNL     1      -0.684  12.343  18.596  0.00  0.00    +0.000 A 
ATOM     31  C   UNL     1      -1.785  12.053  17.787  0.00  0.00    +0.000 A 
ATOM     32  C   UNL     1      -1.978  10.757  17.325  0.00  0.00    +0.000 A 
ATOM     33  F   UNL     1      -3.053  10.478  16.575  0.00  0.00    +0.000 F 
ATOM     34  C   UNL     1      -1.077   9.749  17.637  0.00  0.00    +0.000 A 
ATOM     35  C   UNL     1       0.017  10.035  18.456  0.00  0.00    +0.000 A 
ENDBRANCH  28  29
ENDBRANCH  19  28
TORSDOF 3
ENDMDL
MODEL 8
REMARK VINA RESULT:      -6.9      6.585     10.315
REMARK  Name = 
REMARK  3 active torsions:
REMARK  status: ('A' for Active; 'I' for Inactive)
REMARK    1  A    between atoms: N_3  and  C_4
REMARK    2  A    between atoms: N_26  and  C_27
REMARK    3  A    between atoms: C_27  and  C_28
REMARK                            x       y       z     vdW  Elec       q    Type
REMARK                         _______ _______ _______ _____ _____    ______ ____
ROOT
ATOM      1  O   UNL     1       6.932  15.932  20.419  0.00  0.00    +0.000 OA
ATOM      2  C   UNL     1       6.550  15.332  19.417  0.00  0.00    +0.000 C 
ATOM      3  N   UNL     1       7.350  14.482  18.689  0.00  0.00    +0.000 N 
ATOM      4  N   UNL     1       5.268  15.506  18.907  0.00  0.00    +0.000 N 
ATOM      5  C   UNL     1       4.577  14.602  17.988  0.00  0.00    +0.000 C 
ATOM      6  C   UNL     1       3.424  13.887  18.708  0.00  0.00    +0.000 C 
ATOM      7  C   UNL     1       2.447  14.892  19.372  0.00  0.00    +0.000 C 
ATOM      8  C   UNL     1       3.278  15.828  20.295  0.00  0.00    +0.000 C 
ATOM      9  C   UNL     1       4.407  16.504  19.526  0.00  0.00    +0.000 C 
ATOM     10  O   UNL     1       1.901  15.643  18.258  0.00  0.00    +0.000 OA
ATOM     11  C   UNL     1       0.890  16.502  18.588  0.00  0.00    +0.000 A 
ATOM     12  C   UNL     1       0.656  17.572  17.726  0.00  0.00    +0.000 A 
ATOM     13  C   UNL     1      -0.334  18.506  18.035  0.00  0.00    +0.000 A 
ATOM     14  C   UNL     1      -1.085  18.370  19.204  0.00  0.00    +0.000 A 
ATOM     15  C   UNL     1      -0.873  17.279  20.047  0.00  0.00    +0.000 A 
ATOM     16  C   UNL     1       0.108  16.338  19.723  0.00  0.00    +0.000 A 
ATOM     17  C   UNL     1       0.278  15.109  20.520  0.00  0.00    +0.000 C 
ATOM     18  O   UNL     1      -0.509  14.852  21.424  0.00  0.00    +0.000 OA
ATOM     19  N   UNL     1       1.330  14.286  20.127  0.00  0.00    +0.000 N 
ATOM     20  H   UNL     1       7.216  14.545  17.689  0.00  0.00    +0.000 HD
ENDROOT
BRANCH   3  21
ATOM     21  C   UNL     1       8.668  14.129  19.083  0.00  0.00    +0.000 A 
ATOM     22  C   UNL     1       8.910  13.062  19.955  0.00  0.00    +0.000 A 
ATOM     23  C   UNL     1      10.215  12.738  20.338  0.00  0.00    +0.000 A 
ATOM     24  C   UNL     1      11.291  13.481  19.854  0.00  0.00    +0.000 A 
ATOM     25  C   UNL     1      11.065  14.540  18.975  0.00  0.00    +0.000 A 
ATOM     26  C   UNL     1       9.760  14.850  18.577  0.00  0.00    +0.000 A 
ATOM     27 CL   UNL     1       9.523  16.185  17.500  0.00  0.00    +0.000 Cl
ENDBRANCH   3  21
BRANCH  19  28
ATOM     28  C   UNL     1       1.375  12.933  20.686  0.00  0.00    +0.000 C 
BRANCH  28  29
ATOM     29  C   UNL     1       0.615  11.951  19.810  0.00  0.00    +0.000 A 
ATOM     30  C   UNL     1       1.276  10.890  19.171  0.00  0.00    +0.000 A 
ATOM     31  C   UNL     1       0.596  10.072  18.267  0.00  0.00    +0.000 A 
ATOM     32  C   UNL     1      -0.753  10.293  18.015  0.00  0.00    +0.000 A 
ATOM     33  F   UNL     1      -1.392   9.525  17.123  0.00  0.00    +0.000 F 
ATOM     34  C   UNL     1      -1.441  11.304  18.671  0.00  0.00    +0.000 A 
ATOM     35  C   UNL     1      -0.760  12.131  19.566  0.00  0.00    +0.000 A 
ENDBRANCH  28  29
ENDBRANCH  19  28
TORSDOF 3
ENDMDL
MODEL 9
REMARK VINA RESULT:      -6.9      3.815      9.520
REMARK  Name = 
REMARK  3 active torsions:
REMARK  status: ('A' for Active; 'I' for Inactive)
REMARK    1  A    between atoms: N_3  and  C_4
REMARK    2  A    between atoms: N_26  and  C_27
REMARK    3  A    between atoms: C_27  and  C_28
REMARK                            x       y       z     vdW  Elec       q    Type
REMARK                         _______ _______ _______ _____ _____    ______ ____
ROOT
ATOM      1  O   UNL     1       0.494   9.512  17.838  0.00  0.00    +0.000 OA
ATOM      2  C   UNL     1       0.526   9.349  19.055  0.00  0.00    +0.000 C 
ATOM      3  N   UNL     1       1.345   8.435  19.678  0.00  0.00    +0.000 N 
ATOM      4  N   UNL     1      -0.311  10.059  19.910  0.00  0.00    +0.000 N 
ATOM      5  C   UNL     1      -0.119  10.243  21.348  0.00  0.00    +0.000 C 
ATOM      6  C   UNL     1       0.251  11.702  21.654  0.00  0.00    +0.000 C 
ATOM      7  C   UNL     1      -0.793  12.694  21.080  0.00  0.00    +0.000 C 
ATOM      8  C   UNL     1      -0.954  12.394  19.562  0.00  0.00    +0.000 C 
ATOM      9  C   UNL     1      -1.317  10.933  19.322  0.00  0.00    +0.000 C 
ATOM     10  O   UNL     1      -2.016  12.370  21.787  0.00  0.00    +0.000 OA
ATOM     11  C   UNL     1      -3.057  13.224  21.552  0.00  0.00    +0.000 A 
ATOM     12  C   UNL     1      -4.343  12.739  21.777  0.00  0.00    +0.000 A 
ATOM     13  C   UNL     1      -5.446  13.552  21.512  0.00  0.00    +0.000 A 
ATOM     14  C   UNL     1      -5.261  14.845  21.020  0.00  0.00    +0.000 A 
ATOM     15  C   UNL     1      -3.972  15.341  20.829  0.00  0.00    +0.000 A 
ATOM     16  C   UNL     1      -2.871  14.528  21.113  0.00  0.00    +0.000 A 
ATOM     17  C   UNL     1      -1.496  15.056  21.043  0.00  0.00    +0.000 C 
ATOM     18  O   UNL     1      -1.308  16.247  20.827  0.00  0.00    +0.000 OA
ATOM     19  N   UNL     1      -0.489  14.126  21.291  0.00  0.00    +0.000 N 
ATOM     20  H   UNL     1       0.914   7.962  20.461  0.00  0.00    +0.000 HD
ENDROOT
BRANCH   3  21
ATOM     21  C   UNL     1       2.313   7.661  18.985  0.00  0.00    +0.000 A 
ATOM     22  C   UNL     1       3.038   8.189  17.911  0.00  0.00    +0.000 A 
ATOM     23  C   UNL     1       3.980   7.405  17.236  0.00  0.00    +0.000 A 
ATOM     24  C   UNL     1       4.201   6.085  17.626  0.00  0.00    +0.000 A 
ATOM     25  C   UNL     1       3.493   5.551  18.703  0.00  0.00    +0.000 A 
ATOM     26  C   UNL     1       2.567   6.342  19.390  0.00  0.00    +0.000 A 
ATOM     27 CL   UNL     1       1.696   5.633  20.708  0.00  0.00    +0.000 Cl
ENDBRANCH   3  21
BRANCH  19  28
ATOM     28  C   UNL     1       0.864  14.639  21.515  0.00  0.00    +0.000 C 
BRANCH  28  29
ATOM     29  C   UNL     1       1.606  14.822  20.202  0.00  0.00    +0.000 A 
ATOM     30  C   UNL     1       2.332  13.767  19.628  0.00  0.00    +0.000 A 
ATOM     31  C   UNL     1       3.114  13.980  18.491  0.00  0.00    +0.000 A 
ATOM     32  C   UNL     1       3.156  15.240  17.908  0.00  0.00    +0.000 A 
ATOM     33  F   UNL     1       3.933  15.446  16.836  0.00  0.00    +0.000 F 
ATOM     34  C   UNL     1       2.409  16.288  18.427  0.00  0.00    +0.000 A 
ATOM     35  C   UNL     1       1.636  16.080  19.571  0.00  0.00    +0.000 A 
ENDBRANCH  28  29
ENDBRANCH  19  28
TORSDOF 3
ENDMDL
