MODEL 1
REMARK VINA RESULT:      -8.7      0.000      0.000
REMARK  Name = 
REMARK  5 active torsions:
REMARK  status: ('A' for Active; 'I' for Inactive)
REMARK    1  A    between atoms: C_1  and  C_2
REMARK    2  A    between atoms: C_11  and  O_12
REMARK    3  A    between atoms: C_13  and  C_14
REMARK    4  A    between atoms: N_16  and  C_17
REMARK    5  A    between atoms: C_17  and  C_18
REMARK                            x       y       z     vdW  Elec       q    Type
REMARK                         _______ _______ _______ _____ _____    ______ ____
ROOT
ATOM      1  C   UNL     1      -1.166  10.969  22.992  0.00  0.00    +0.000 C 
ATOM      2  C   UNL     1      -1.321  12.104  21.962  0.00  0.00    +0.000 C 
ATOM      3  C   UNL     1      -2.493  13.004  22.373  0.00  0.00    +0.000 C 
ATOM      4  C   UNL     1      -3.731  12.991  21.506  0.00  0.00    +0.000 C 
ATOM      5  C   UNL     1      -3.588  12.364  20.160  0.00  0.00    +0.000 A 
ATOM      6  C   UNL     1      -4.689  12.471  19.296  0.00  0.00    +0.000 A 
ATOM      7  C   UNL     1      -4.642  11.895  18.043  0.00  0.00    +0.000 A 
ATOM      8  F   UNL     1      -5.695  11.994  17.221  0.00  0.00    +0.000 F 
ATOM      9  C   UNL     1      -3.511  11.205  17.622  0.00  0.00    +0.000 A 
ATOM     10  C   UNL     1      -2.387  11.102  18.455  0.00  0.00    +0.000 A 
ATOM     11  C   UNL     1      -1.166  10.379  18.032  0.00  0.00    +0.000 A 
ATOM     12  C   UNL     1      -0.070  10.301  18.818  0.00  0.00    +0.000 A 
ATOM     13  C   UNL     1      -0.086  11.033  20.130  0.00  0.00    +0.000 A 
ATOM     14  O   UNL     1       0.957  11.181  20.782  0.00  0.00    +0.000 OA
ATOM     15  N   UNL     1      -1.296  11.589  20.582  0.00  0.00    +0.000 N 
ATOM     16  C   UNL     1      -2.431  11.683  19.738  0.00  0.00    +0.000 A 
ENDROOT
BRANCH  12  17
ATOM     17  C   UNL     1       1.148   9.478  18.445  0.00  0.00    +0.000 C 
ATOM     18  O   UNL     1       1.805   9.700  17.450  0.00  0.00    +0.000 OA
ATOM     19  N   UNL     1       1.512   8.466  19.300  0.00  0.00    +0.000 N 
ATOM     20  H   UNL     1       0.965   8.349  20.147  0.00  0.00    +0.000 HD
BRANCH  19  21
ATOM     21  C   UNL     1       2.629   7.555  19.090  0.00  0.00    +0.000 C 
BRANCH  21  22
ATOM     22  C   UNL     1       2.114   6.137  19.176  0.00  0.00    +0.000 A 
ATOM     23  C   UNL     1       2.198   5.271  18.054  0.00  0.00    +0.000 A 
ATOM     24  C   UNL     1       2.186   3.884  18.222  0.00  0.00    +0.000 A 
ATOM     25  C   UNL     1       2.135   3.422  19.517  0.00  0.00    +0.000 A 
ATOM     26  C   UNL     1       1.912   4.261  20.590  0.00  0.00    +0.000 A 
ATOM     27  C   UNL     1       1.836   5.621  20.450  0.00  0.00    +0.000 A 
ATOM     28  O   UNL     1       2.047   3.609  21.782  0.00  0.00    +0.000 OA
ATOM     29  C   UNL     1       2.817   2.492  21.307  0.00  0.00    +0.000 C 
ATOM     30  O   UNL     1       2.495   2.171  19.935  0.00  0.00    +0.000 OA
ENDBRANCH  21  22
ENDBRANCH  19  21
ENDBRANCH  12  17
BRANCH  11  31
ATOM     31  O   UNL     1      -1.193   9.745  16.791  0.00  0.00    +0.000 OA
ATOM     32  H   UNL     1      -1.323  10.404  16.089  0.00  0.00    +0.000 HD
ENDBRANCH  11  31
TORSDOF 4
ENDMDL
MODEL 2
REMARK VINA RESULT:      -8.7      3.294      9.007
REMARK  Name = 
REMARK  5 active torsions:
REMARK  status: ('A' for Active; 'I' for Inactive)
REMARK    1  A    between atoms: C_1  and  C_2
REMARK    2  A    between atoms: C_11  and  O_12
REMARK    3  A    between atoms: C_13  and  C_14
REMARK    4  A    between atoms: N_16  and  C_17
REMARK    5  A    between atoms: C_17  and  C_18
REMARK                            x       y       z     vdW  Elec       q    Type
REMARK                         _______ _______ _______ _____ _____    ______ ____
ROOT
ATOM      1  C   UNL     1       2.770   2.881  21.192  0.00  0.00    +0.000 C 
ATOM      2  C   UNL     1       2.293   2.987  19.732  0.00  0.00    +0.000 C 
ATOM      3  C   UNL     1       2.799   1.770  18.946  0.00  0.00    +0.000 C 
ATOM      4  C   UNL     1       3.852   2.003  17.886  0.00  0.00    +0.000 C 
ATOM      5  C   UNL     1       4.069   3.419  17.470  0.00  0.00    +0.000 A 
ATOM      6  C   UNL     1       4.941   3.631  16.392  0.00  0.00    +0.000 A 
ATOM      7  C   UNL     1       5.213   4.915  15.965  0.00  0.00    +0.000 A 
ATOM      8  F   UNL     1       6.049   5.116  14.938  0.00  0.00    +0.000 F 
ATOM      9  C   UNL     1       4.629   6.009  16.594  0.00  0.00    +0.000 A 
ATOM     10  C   UNL     1       3.734   5.826  17.659  0.00  0.00    +0.000 A 
ATOM     11  C   UNL     1       3.092   6.971  18.343  0.00  0.00    +0.000 A 
ATOM     12  C   UNL     1       2.208   6.801  19.350  0.00  0.00    +0.000 A 
ATOM     13  C   UNL     1       1.827   5.398  19.728  0.00  0.00    +0.000 A 
ATOM     14  O   UNL     1       0.866   5.186  20.482  0.00  0.00    +0.000 OA
ATOM     15  N   UNL     1       2.550   4.326  19.174  0.00  0.00    +0.000 N 
ATOM     16  C   UNL     1       3.459   4.518  18.103  0.00  0.00    +0.000 A 
ENDROOT
BRANCH  12  17
ATOM     17  C   UNL     1       1.622   7.962  20.131  0.00  0.00    +0.000 C 
ATOM     18  O   UNL     1       1.643   8.008  21.343  0.00  0.00    +0.000 OA
ATOM     19  N   UNL     1       1.077   8.996  19.411  0.00  0.00    +0.000 N 
ATOM     20  H   UNL     1       1.127   8.939  18.398  0.00  0.00    +0.000 HD
BRANCH  19  21
ATOM     21  C   UNL     1       0.443  10.174  19.987  0.00  0.00    +0.000 C 
BRANCH  21  22
ATOM     22  C   UNL     1      -0.581  10.696  19.006  0.00  0.00    +0.000 A 
ATOM     23  C   UNL     1      -0.830  10.006  17.791  0.00  0.00    +0.000 A 
ATOM     24  C   UNL     1      -2.043  10.166  17.116  0.00  0.00    +0.000 A 
ATOM     25  C   UNL     1      -2.977  10.980  17.715  0.00  0.00    +0.000 A 
ATOM     26  C   UNL     1      -2.679  11.755  18.817  0.00  0.00    +0.000 A 
ATOM     27  C   UNL     1      -1.469  11.683  19.455  0.00  0.00    +0.000 A 
ATOM     28  O   UNL     1      -3.790  12.365  19.325  0.00  0.00    +0.000 OA
ATOM     29  C   UNL     1      -4.775  11.506  18.727  0.00  0.00    +0.000 C 
ATOM     30  O   UNL     1      -4.320  10.979  17.460  0.00  0.00    +0.000 OA
ENDBRANCH  21  22
ENDBRANCH  19  21
ENDBRANCH  12  17
BRANCH  11  31
ATOM     31  O   UNL     1       3.457   8.252  17.931  0.00  0.00    +0.000 OA
ATOM     32  H   UNL     1       4.425   8.319  17.886  0.00  0.00    +0.000 HD
ENDBRANCH  11  31
TORSDOF 4
ENDMDL
MODEL 3
REMARK VINA RESULT:      -8.7      3.209      8.961
REMARK  Name = 
REMARK  5 active torsions:
REMARK  status: ('A' for Active; 'I' for Inactive)
REMARK    1  A    between atoms: C_1  and  C_2
REMARK    2  A    between atoms: C_11  and  O_12
REMARK    3  A    between atoms: C_13  and  C_14
REMARK    4  A    between atoms: N_16  and  C_17
REMARK    5  A    between atoms: C_17  and  C_18
REMARK                            x       y       z     vdW  Elec       q    Type
REMARK                         _______ _______ _______ _____ _____    ______ ____
ROOT
ATOM      1  C   UNL     1       2.465   3.029  21.386  0.00  0.00    +0.000 C 
ATOM      2  C   UNL     1       2.026   3.081  19.911  0.00  0.00    +0.000 C 
ATOM      3  C   UNL     1       2.464   1.790  19.207  0.00  0.00    +0.000 C 
ATOM      4  C   UNL     1       3.552   1.889  18.162  0.00  0.00    +0.000 C 
ATOM      5  C   UNL     1       3.873   3.261  17.672  0.00  0.00    +0.000 A 
ATOM      6  C   UNL     1       4.781   3.351  16.605  0.00  0.00    +0.000 A 
ATOM      7  C   UNL     1       5.147   4.587  16.112  0.00  0.00    +0.000 A 
ATOM      8  F   UNL     1       6.016   4.671  15.097  0.00  0.00    +0.000 F 
ATOM      9  C   UNL     1       4.627   5.752  16.663  0.00  0.00    +0.000 A 
ATOM     10  C   UNL     1       3.700   5.692  17.715  0.00  0.00    +0.000 A 
ATOM     11  C   UNL     1       3.124   6.915  18.317  0.00  0.00    +0.000 A 
ATOM     12  C   UNL     1       2.210   6.863  19.311  0.00  0.00    +0.000 A 
ATOM     13  C   UNL     1       1.726   5.514  19.759  0.00  0.00    +0.000 A 
ATOM     14  O   UNL     1       0.738   5.411  20.499  0.00  0.00    +0.000 OA
ATOM     15  N   UNL     1       2.385   4.366  19.284  0.00  0.00    +0.000 N 
ATOM     16  C   UNL     1       3.327   4.434  18.226  0.00  0.00    +0.000 A 
ENDROOT
BRANCH  12  17
ATOM     17  C   UNL     1       1.689   8.105  20.010  0.00  0.00    +0.000 C 
ATOM     18  O   UNL     1       1.619   8.191  21.218  0.00  0.00    +0.000 OA
ATOM     19  N   UNL     1       1.314   9.164  19.221  0.00  0.00    +0.000 N 
ATOM     20  H   UNL     1       1.437   9.067  18.217  0.00  0.00    +0.000 HD
BRANCH  19  21
ATOM     21  C   UNL     1       0.762  10.419  19.712  0.00  0.00    +0.000 C 
BRANCH  21  22
ATOM     22  C   UNL     1      -0.685  10.506  19.285  0.00  0.00    +0.000 A 
ATOM     23  C   UNL     1      -1.510  11.565  19.747  0.00  0.00    +0.000 A 
ATOM     24  C   UNL     1      -2.650  11.943  19.034  0.00  0.00    +0.000 A 
ATOM     25  C   UNL     1      -2.892  11.271  17.858  0.00  0.00    +0.000 A 
ATOM     26  C   UNL     1      -2.171  10.154  17.487  0.00  0.00    +0.000 A 
ATOM     27  C   UNL     1      -1.096   9.706  18.209  0.00  0.00    +0.000 A 
ATOM     28  O   UNL     1      -2.484   9.743  16.224  0.00  0.00    +0.000 OA
ATOM     29  C   UNL     1      -3.065  10.972  15.757  0.00  0.00    +0.000 C 
ATOM     30  O   UNL     1      -3.686  11.708  16.835  0.00  0.00    +0.000 OA
ENDBRANCH  21  22
ENDBRANCH  19  21
ENDBRANCH  12  17
BRANCH  11  31
ATOM     31  O   UNL     1       3.583   8.142  17.842  0.00  0.00    +0.000 OA
ATOM     32  H   UNL     1       2.829   8.694  17.576  0.00  0.00    +0.000 HD
ENDBRANCH  11  31
TORSDOF 4
ENDMDL
MODEL 4
REMARK VINA RESULT:      -8.5      0.958      1.316
REMARK  Name = 
REMARK  5 active torsions:
REMARK  status: ('A' for Active; 'I' for Inactive)
REMARK    1  A    between atoms: C_1  and  C_2
REMARK    2  A    between atoms: C_11  and  O_12
REMARK    3  A    between atoms: C_13  and  C_14
REMARK    4  A    between atoms: N_16  and  C_17
REMARK    5  A    between atoms: C_17  and  C_18
REMARK                            x       y       z     vdW  Elec       q    Type
REMARK                         _______ _______ _______ _____ _____    ______ ____
ROOT
ATOM      1  C   UNL     1      -0.615  10.179  23.324  0.00  0.00    +0.000 C 
ATOM      2  C   UNL     1      -0.732  11.492  22.526  0.00  0.00    +0.000 C 
ATOM      3  C   UNL     1      -1.819  12.371  23.157  0.00  0.00    +0.000 C 
ATOM      4  C   UNL     1      -3.091  12.595  22.370  0.00  0.00    +0.000 C 
ATOM      5  C   UNL     1      -3.048  12.220  20.927  0.00  0.00    +0.000 A 
ATOM      6  C   UNL     1      -4.174  12.553  20.158  0.00  0.00    +0.000 A 
ATOM      7  C   UNL     1      -4.220  12.217  18.820  0.00  0.00    +0.000 A 
ATOM      8  F   UNL     1      -5.297  12.531  18.088  0.00  0.00    +0.000 F 
ATOM      9  C   UNL     1      -3.160  11.548  18.220  0.00  0.00    +0.000 A 
ATOM     10  C   UNL     1      -2.012  11.224  18.959  0.00  0.00    +0.000 A 
ATOM     11  C   UNL     1      -0.864  10.518  18.346  0.00  0.00    +0.000 A 
ATOM     12  C   UNL     1       0.256  10.228  19.045  0.00  0.00    +0.000 A 
ATOM     13  C   UNL     1       0.347  10.704  20.466  0.00  0.00    +0.000 A 
ATOM     14  O   UNL     1       1.424  10.664  21.077  0.00  0.00    +0.000 OA
ATOM     15  N   UNL     1      -0.801  11.240  21.077  0.00  0.00    +0.000 N 
ATOM     16  C   UNL     1      -1.961  11.559  20.326  0.00  0.00    +0.000 A 
ENDROOT
BRANCH  12  17
ATOM     17  C   UNL     1       1.396   9.413  18.463  0.00  0.00    +0.000 C 
ATOM     18  O   UNL     1       1.938   9.705  17.417  0.00  0.00    +0.000 OA
ATOM     19  N   UNL     1       1.827   8.326  19.183  0.00  0.00    +0.000 N 
ATOM     20  H   UNL     1       1.380   8.149  20.078  0.00  0.00    +0.000 HD
BRANCH  19  21
ATOM     21  C   UNL     1       2.884   7.413  18.768  0.00  0.00    +0.000 C 
BRANCH  21  22
ATOM     22  C   UNL     1       2.755   6.136  19.566  0.00  0.00    +0.000 A 
ATOM     23  C   UNL     1       1.547   5.831  20.246  0.00  0.00    +0.000 A 
ATOM     24  C   UNL     1       1.227   4.511  20.572  0.00  0.00    +0.000 A 
ATOM     25  C   UNL     1       2.114   3.543  20.160  0.00  0.00    +0.000 A 
ATOM     26  C   UNL     1       3.348   3.855  19.627  0.00  0.00    +0.000 A 
ATOM     27  C   UNL     1       3.728   5.146  19.370  0.00  0.00    +0.000 A 
ATOM     28  O   UNL     1       3.994   2.748  19.158  0.00  0.00    +0.000 OA
ATOM     29  C   UNL     1       2.847   1.889  19.036  0.00  0.00    +0.000 C 
ATOM     30  O   UNL     1       1.837   2.212  20.020  0.00  0.00    +0.000 OA
ENDBRANCH  21  22
ENDBRANCH  19  21
ENDBRANCH  12  17
BRANCH  11  31
ATOM     31  O   UNL     1      -0.988  10.127  17.014  0.00  0.00    +0.000 OA
ATOM     32  H   UNL     1      -1.144   9.169  16.966  0.00  0.00    +0.000 HD
ENDBRANCH  11  31
TORSDOF 4
ENDMDL
MODEL 5
REMARK VINA RESULT:      -8.4      1.721      3.393
REMARK  Name = 
REMARK  5 active torsions:
REMARK  status: ('A' for Active; 'I' for Inactive)
REMARK    1  A    between atoms: C_1  and  C_2
REMARK    2  A    between atoms: C_11  and  O_12
REMARK    3  A    between atoms: C_13  and  C_14
REMARK    4  A    between atoms: N_16  and  C_17
REMARK    5  A    between atoms: C_17  and  C_18
REMARK                            x       y       z     vdW  Elec       q    Type
REMARK                         _______ _______ _______ _____ _____    ______ ____
ROOT
ATOM      1  C   UNL     1      -3.180  11.208  15.680  0.00  0.00    +0.000 C 
ATOM      2  C   UNL     1      -3.521  10.673  17.084  0.00  0.00    +0.000 C 
ATOM      3  C   UNL     1      -4.949  11.096  17.452  0.00  0.00    +0.000 C 
ATOM      4  C   UNL     1      -5.122  12.111  18.559  0.00  0.00    +0.000 C 
ATOM      5  C   UNL     1      -3.926  12.367  19.413  0.00  0.00    +0.000 A 
ATOM      6  C   UNL     1      -4.115  13.201  20.526  0.00  0.00    +0.000 A 
ATOM      7  C   UNL     1      -3.049  13.505  21.349  0.00  0.00    +0.000 A 
ATOM      8  F   UNL     1      -3.230  14.304  22.409  0.00  0.00    +0.000 F 
ATOM      9  C   UNL     1      -1.784  12.994  21.089  0.00  0.00    +0.000 A 
ATOM     10  C   UNL     1      -1.571  12.139  19.997  0.00  0.00    +0.000 A 
ATOM     11  C   UNL     1      -0.235  11.574  19.699  0.00  0.00    +0.000 A 
ATOM     12  C   UNL     1      -0.029  10.727  18.666  0.00  0.00    +0.000 A 
ATOM     13  C   UNL     1      -1.217  10.306  17.848  0.00  0.00    +0.000 A 
ATOM     14  O   UNL     1      -1.126   9.371  17.040  0.00  0.00    +0.000 OA
ATOM     15  N   UNL     1      -2.445  10.960  18.048  0.00  0.00    +0.000 N 
ATOM     16  C   UNL     1      -2.652  11.830  19.150  0.00  0.00    +0.000 A 
ENDROOT
BRANCH  12  17
ATOM     17  C   UNL     1       1.349  10.222  18.282  0.00  0.00    +0.000 C 
ATOM     18  O   UNL     1       2.265  10.971  18.012  0.00  0.00    +0.000 OA
ATOM     19  N   UNL     1       1.545   8.863  18.276  0.00  0.00    +0.000 N 
ATOM     20  H   UNL     1       0.765   8.276  18.559  0.00  0.00    +0.000 HD
BRANCH  19  21
ATOM     21  C   UNL     1       2.786   8.198  17.904  0.00  0.00    +0.000 C 
BRANCH  21  22
ATOM     22  C   UNL     1       2.858   6.876  18.633  0.00  0.00    +0.000 A 
ATOM     23  C   UNL     1       2.220   6.710  19.889  0.00  0.00    +0.000 A 
ATOM     24  C   UNL     1       1.863   5.439  20.346  0.00  0.00    +0.000 A 
ATOM     25  C   UNL     1       2.123   4.386  19.498  0.00  0.00    +0.000 A 
ATOM     26  C   UNL     1       2.867   4.536  18.346  0.00  0.00    +0.000 A 
ATOM     27  C   UNL     1       3.304   5.759  17.912  0.00  0.00    +0.000 A 
ATOM     28  O   UNL     1       2.872   3.397  17.592  0.00  0.00    +0.000 OA
ATOM     29  C   UNL     1       1.705   2.780  18.163  0.00  0.00    +0.000 C 
ATOM     30  O   UNL     1       1.533   3.154  19.550  0.00  0.00    +0.000 OA
ENDBRANCH  21  22
ENDBRANCH  19  21
ENDBRANCH  12  17
BRANCH  11  31
ATOM     31  O   UNL     1       0.826  11.972  20.509  0.00  0.00    +0.000 OA
ATOM     32  H   UNL     1       0.533  12.676  21.111  0.00  0.00    +0.000 HD
ENDBRANCH  11  31
TORSDOF 4
ENDMDL
MODEL 6
REMARK VINA RESULT:      -8.4      1.174      1.682
REMARK  Name = 
REMARK  5 active torsions:
REMARK  status: ('A' for Active; 'I' for Inactive)
REMARK    1  A    between atoms: C_1  and  C_2
REMARK    2  A    between atoms: C_11  and  O_12
REMARK    3  A    between atoms: C_13  and  C_14
REMARK    4  A    between atoms: N_16  and  C_17
REMARK    5  A    between atoms: C_17  and  C_18
REMARK                            x       y       z     vdW  Elec       q    Type
REMARK                         _______ _______ _______ _____ _____    ______ ____
ROOT
ATOM      1  C   UNL     1      -1.587  11.490  23.063  0.00  0.00    +0.000 C 
ATOM      2  C   UNL     1      -1.967  12.617  22.085  0.00  0.00    +0.000 C 
ATOM      3  C   UNL     1      -3.300  13.237  22.522  0.00  0.00    +0.000 C 
ATOM      4  C   UNL     1      -4.506  13.013  21.638  0.00  0.00    +0.000 C 
ATOM      5  C   UNL     1      -4.232  12.494  20.266  0.00  0.00    +0.000 A 
ATOM      6  C   UNL     1      -5.329  12.415  19.394  0.00  0.00    +0.000 A 
ATOM      7  C   UNL     1      -5.160  11.921  18.116  0.00  0.00    +0.000 A 
ATOM      8  F   UNL     1      -6.208  11.842  17.286  0.00  0.00    +0.000 F 
ATOM      9  C   UNL     1      -3.910  11.498  17.679  0.00  0.00    +0.000 A 
ATOM     10  C   UNL     1      -2.792  11.588  18.521  0.00  0.00    +0.000 A 
ATOM     11  C   UNL     1      -1.447  11.151  18.081  0.00  0.00    +0.000 A 
ATOM     12  C   UNL     1      -0.361  11.261  18.878  0.00  0.00    +0.000 A 
ATOM     13  C   UNL     1      -0.531  11.911  20.222  0.00  0.00    +0.000 A 
ATOM     14  O   UNL     1       0.457  12.238  20.894  0.00  0.00    +0.000 OA
ATOM     15  N   UNL     1      -1.831  12.185  20.683  0.00  0.00    +0.000 N 
ATOM     16  C   UNL     1      -2.959  12.085  19.828  0.00  0.00    +0.000 A 
ENDROOT
BRANCH  12  17
ATOM     17  C   UNL     1       1.002  10.723  18.484  0.00  0.00    +0.000 C 
ATOM     18  O   UNL     1       1.958  11.446  18.298  0.00  0.00    +0.000 OA
ATOM     19  N   UNL     1       1.133   9.362  18.367  0.00  0.00    +0.000 N 
ATOM     20  H   UNL     1       0.320   8.792  18.581  0.00  0.00    +0.000 HD
BRANCH  19  21
ATOM     21  C   UNL     1       2.352   8.670  17.968  0.00  0.00    +0.000 C 
BRANCH  21  22
ATOM     22  C   UNL     1       2.471   7.402  18.781  0.00  0.00    +0.000 A 
ATOM     23  C   UNL     1       1.952   7.341  20.100  0.00  0.00    +0.000 A 
ATOM     24  C   UNL     1       1.619   6.113  20.679  0.00  0.00    +0.000 A 
ATOM     25  C   UNL     1       1.781   4.997  19.890  0.00  0.00    +0.000 A 
ATOM     26  C   UNL     1       2.416   5.047  18.665  0.00  0.00    +0.000 A 
ATOM     27  C   UNL     1       2.829   6.227  18.105  0.00  0.00    +0.000 A 
ATOM     28  O   UNL     1       2.332   3.858  18.000  0.00  0.00    +0.000 OA
ATOM     29  C   UNL     1       1.215   3.310  18.720  0.00  0.00    +0.000 C 
ATOM     30  O   UNL     1       1.180   3.786  20.085  0.00  0.00    +0.000 OA
ENDBRANCH  21  22
ENDBRANCH  19  21
ENDBRANCH  12  17
BRANCH  11  31
ATOM     31  O   UNL     1      -1.339  10.585  16.813  0.00  0.00    +0.000 OA
ATOM     32  H   UNL     1      -0.403  10.443  16.596  0.00  0.00    +0.000 HD
ENDBRANCH  11  31
TORSDOF 4
ENDMDL
MODEL 7
REMARK VINA RESULT:      -8.0      3.593      9.179
REMARK  Name = 
REMARK  5 active torsions:
REMARK  status: ('A' for Active; 'I' for Inactive)
REMARK    1  A    between atoms: C_1  and  C_2
REMARK    2  A    between atoms: C_11  and  O_12
REMARK    3  A    between atoms: C_13  and  C_14
REMARK    4  A    between atoms: N_16  and  C_17
REMARK    5  A    between atoms: C_17  and  C_18
REMARK                            x       y       z     vdW  Elec       q    Type
REMARK                         _______ _______ _______ _____ _____    ______ ____
ROOT
ATOM      1  C   UNL     1       2.872   2.883  21.172  0.00  0.00    +0.000 C 
ATOM      2  C   UNL     1       2.364   3.027  19.725  0.00  0.00    +0.000 C 
ATOM      3  C   UNL     1       2.884   1.851  18.888  0.00  0.00    +0.000 C 
ATOM      4  C   UNL     1       3.910   2.147  17.817  0.00  0.00    +0.000 C 
ATOM      5  C   UNL     1       4.084   3.581  17.447  0.00  0.00    +0.000 A 
ATOM      6  C   UNL     1       4.930   3.852  16.360  0.00  0.00    +0.000 A 
ATOM      7  C   UNL     1       5.161   5.157  15.973  0.00  0.00    +0.000 A 
ATOM      8  F   UNL     1       5.972   5.414  14.938  0.00  0.00    +0.000 F 
ATOM      9  C   UNL     1       4.563   6.213  16.650  0.00  0.00    +0.000 A 
ATOM     10  C   UNL     1       3.694   5.971  17.725  0.00  0.00    +0.000 A 
ATOM     11  C   UNL     1       3.038   7.076  18.460  0.00  0.00    +0.000 A 
ATOM     12  C   UNL     1       2.178   6.848  19.478  0.00  0.00    +0.000 A 
ATOM     13  C   UNL     1       1.839   5.424  19.814  0.00  0.00    +0.000 A 
ATOM     14  O   UNL     1       0.899   5.163  20.577  0.00  0.00    +0.000 OA
ATOM     15  N   UNL     1       2.577   4.391  19.209  0.00  0.00    +0.000 N 
ATOM     16  C   UNL     1       3.460   4.643  18.128  0.00  0.00    +0.000 A 
ENDROOT
BRANCH  12  17
ATOM     17  C   UNL     1       1.579   7.967  20.309  0.00  0.00    +0.000 C 
ATOM     18  O   UNL     1       1.703   8.020  21.515  0.00  0.00    +0.000 OA
ATOM     19  N   UNL     1       0.899   8.956  19.642  0.00  0.00    +0.000 N 
ATOM     20  H   UNL     1       0.865   8.898  18.628  0.00  0.00    +0.000 HD
BRANCH  19  21
ATOM     21  C   UNL     1       0.233  10.086  20.274  0.00  0.00    +0.000 C 
BRANCH  21  22
ATOM     22  C   UNL     1       0.379  11.293  19.375  0.00  0.00    +0.000 A 
ATOM     23  C   UNL     1      -0.602  12.318  19.381  0.00  0.00    +0.000 A 
ATOM     24  C   UNL     1      -0.284  13.611  18.956  0.00  0.00    +0.000 A 
ATOM     25  C   UNL     1       1.022  13.832  18.584  0.00  0.00    +0.000 A 
ATOM     26  C   UNL     1       1.932  12.804  18.446  0.00  0.00    +0.000 A 
ATOM     27  C   UNL     1       1.628  11.510  18.776  0.00  0.00    +0.000 A 
ATOM     28  O   UNL     1       3.194  13.270  18.213  0.00  0.00    +0.000 OA
ATOM     29  C   UNL     1       3.001  14.609  18.701  0.00  0.00    +0.000 C 
ATOM     30  O   UNL     1       1.637  15.050  18.513  0.00  0.00    +0.000 OA
ENDBRANCH  21  22
ENDBRANCH  19  21
ENDBRANCH  12  17
BRANCH  11  31
ATOM     31  O   UNL     1       3.362   8.378  18.086  0.00  0.00    +0.000 OA
ATOM     32  H   UNL     1       3.324   8.461  17.119  0.00  0.00    +0.000 HD
ENDBRANCH  11  31
TORSDOF 4
ENDMDL
MODEL 8
REMARK VINA RESULT:      -8.0      3.033      4.008
REMARK  Name = 
REMARK  5 active torsions:
REMARK  status: ('A' for Active; 'I' for Inactive)
REMARK    1  A    between atoms: C_1  and  C_2
REMARK    2  A    between atoms: C_11  and  O_12
REMARK    3  A    between atoms: C_13  and  C_14
REMARK    4  A    between atoms: N_16  and  C_17
REMARK    5  A    between atoms: C_17  and  C_18
REMARK                            x       y       z     vdW  Elec       q    Type
REMARK                         _______ _______ _______ _____ _____    ______ ____
ROOT
ATOM      1  C   UNL     1       2.723  12.816  18.310  0.00  0.00    +0.000 C 
ATOM      2  C   UNL     1       1.294  12.258  18.443  0.00  0.00    +0.000 C 
ATOM      3  C   UNL     1       0.390  13.326  19.071  0.00  0.00    +0.000 C 
ATOM      4  C   UNL     1      -0.132  13.076  20.468  0.00  0.00    +0.000 C 
ATOM      5  C   UNL     1       0.003  11.683  20.984  0.00  0.00    +0.000 A 
ATOM      6  C   UNL     1      -0.602  11.409  22.221  0.00  0.00    +0.000 A 
ATOM      7  C   UNL     1      -0.499  10.150  22.776  0.00  0.00    +0.000 A 
ATOM      8  F   UNL     1      -1.074   9.891  23.958  0.00  0.00    +0.000 F 
ATOM      9  C   UNL     1       0.201   9.142  22.122  0.00  0.00    +0.000 A 
ATOM     10  C   UNL     1       0.795   9.381  20.874  0.00  0.00    +0.000 A 
ATOM     11  C   UNL     1       1.541   8.325  20.152  0.00  0.00    +0.000 A 
ATOM     12  C   UNL     1       2.092   8.541  18.937  0.00  0.00    +0.000 A 
ATOM     13  C   UNL     1       1.872   9.876  18.286  0.00  0.00    +0.000 A 
ATOM     14  O   UNL     1       2.159  10.052  17.093  0.00  0.00    +0.000 OA
ATOM     15  N   UNL     1       1.292  10.911  19.041  0.00  0.00    +0.000 N 
ATOM     16  C   UNL     1       0.699  10.666  20.306  0.00  0.00    +0.000 A 
ENDROOT
BRANCH  12  17
ATOM     17  C   UNL     1       2.948   7.506  18.230  0.00  0.00    +0.000 C 
ATOM     18  O   UNL     1       4.067   7.748  17.833  0.00  0.00    +0.000 OA
ATOM     19  N   UNL     1       2.417   6.249  18.073  0.00  0.00    +0.000 N 
ATOM     20  H   UNL     1       1.497   6.076  18.467  0.00  0.00    +0.000 HD
BRANCH  19  21
ATOM     21  C   UNL     1       3.077   5.141  17.395  0.00  0.00    +0.000 C 
BRANCH  21  22
ATOM     22  C   UNL     1       3.058   3.939  18.309  0.00  0.00    +0.000 A 
ATOM     23  C   UNL     1       4.271   3.365  18.769  0.00  0.00    +0.000 A 
ATOM     24  C   UNL     1       4.301   2.602  19.939  0.00  0.00    +0.000 A 
ATOM     25  C   UNL     1       3.114   2.483  20.626  0.00  0.00    +0.000 A 
ATOM     26  C   UNL     1       1.915   2.923  20.104  0.00  0.00    +0.000 A 
ATOM     27  C   UNL     1       1.840   3.603  18.918  0.00  0.00    +0.000 A 
ATOM     28  O   UNL     1       0.901   2.836  21.015  0.00  0.00    +0.000 OA
ATOM     29  C   UNL     1       1.711   2.772  22.202  0.00  0.00    +0.000 C 
ATOM     30  O   UNL     1       2.983   2.136  21.942  0.00  0.00    +0.000 OA
ENDBRANCH  21  22
ENDBRANCH  19  21
ENDBRANCH  12  17
BRANCH  11  31
ATOM     31  O   UNL     1       1.687   7.093  20.787  0.00  0.00    +0.000 OA
ATOM     32  H   UNL     1       2.154   7.213  21.631  0.00  0.00    +0.000 HD
ENDBRANCH  11  31
TORSDOF 4
ENDMDL
MODEL 9
REMARK VINA RESULT:      -8.0      0.958      1.344
REMARK  Name = 
REMARK  5 active torsions:
REMARK  status: ('A' for Active; 'I' for Inactive)
REMARK    1  A    between atoms: C_1  and  C_2
REMARK    2  A    between atoms: C_11  and  O_12
REMARK    3  A    between atoms: C_13  and  C_14
REMARK    4  A    between atoms: N_16  and  C_17
REMARK    5  A    between atoms: C_17  and  C_18
REMARK                            x       y       z     vdW  Elec       q    Type
REMARK                         _______ _______ _______ _____ _____    ______ ____
ROOT
ATOM      1  C   UNL     1      -0.755  11.908  22.651  0.00  0.00    +0.000 C 
ATOM      2  C   UNL     1      -1.194  12.800  21.475  0.00  0.00    +0.000 C 
ATOM      3  C   UNL     1      -2.465  13.564  21.868  0.00  0.00    +0.000 C 
ATOM      4  C   UNL     1      -3.753  13.201  21.164  0.00  0.00    +0.000 C 
ATOM      5  C   UNL     1      -3.620  12.373  19.930  0.00  0.00    +0.000 A 
ATOM      6  C   UNL     1      -4.794  12.149  19.194  0.00  0.00    +0.000 A 
ATOM      7  C   UNL     1      -4.756  11.371  18.054  0.00  0.00    +0.000 A 
ATOM      8  F   UNL     1      -5.878  11.155  17.355  0.00  0.00    +0.000 F 
ATOM      9  C   UNL     1      -3.563  10.803  17.623  0.00  0.00    +0.000 A 
ATOM     10  C   UNL     1      -2.370  11.029  18.326  0.00  0.00    +0.000 A 
ATOM     11  C   UNL     1      -1.084  10.443  17.887  0.00  0.00    +0.000 A 
ATOM     12  C   UNL     1       0.073  10.680  18.543  0.00  0.00    +0.000 A 
ATOM     13  C   UNL     1       0.045  11.625  19.711  0.00  0.00    +0.000 A 
ATOM     14  O   UNL     1       1.098  12.049  20.205  0.00  0.00    +0.000 OA
ATOM     15  N   UNL     1      -1.200  12.056  20.204  0.00  0.00    +0.000 N 
ATOM     16  C   UNL     1      -2.404  11.817  19.493  0.00  0.00    +0.000 A 
ENDROOT
BRANCH  12  17
ATOM     17  C   UNL     1       1.380  10.005  18.170  0.00  0.00    +0.000 C 
ATOM     18  O   UNL     1       2.319  10.616  17.705  0.00  0.00    +0.000 OA
ATOM     19  N   UNL     1       1.482   8.656  18.404  0.00  0.00    +0.000 N 
ATOM     20  H   UNL     1       0.690   8.195  18.842  0.00  0.00    +0.000 HD
BRANCH  19  21
ATOM     21  C   UNL     1       2.643   7.836  18.081  0.00  0.00    +0.000 C 
BRANCH  21  22
ATOM     22  C   UNL     1       2.805   6.789  19.159  0.00  0.00    +0.000 A 
ATOM     23  C   UNL     1       1.790   6.594  20.132  0.00  0.00    +0.000 A 
ATOM     24  C   UNL     1       1.679   5.379  20.812  0.00  0.00    +0.000 A 
ATOM     25  C   UNL     1       2.566   4.390  20.453  0.00  0.00    +0.000 A 
ATOM     26  C   UNL     1       3.634   4.629  19.613  0.00  0.00    +0.000 A 
ATOM     27  C   UNL     1       3.819   5.836  18.993  0.00  0.00    +0.000 A 
ATOM     28  O   UNL     1       4.289   3.478  19.283  0.00  0.00    +0.000 OA
ATOM     29  C   UNL     1       3.236   2.554  19.608  0.00  0.00    +0.000 C 
ATOM     30  O   UNL     1       2.408   3.052  20.684  0.00  0.00    +0.000 OA
ENDBRANCH  21  22
ENDBRANCH  19  21
ENDBRANCH  12  17
BRANCH  11  31
ATOM     31  O   UNL     1      -1.108   9.600  16.777  0.00  0.00    +0.000 OA
ATOM     32  H   UNL     1      -0.759   8.727  17.021  0.00  0.00    +0.000 HD
ENDBRANCH  11  31
TORSDOF 4
ENDMDL
