MODEL 1
REMARK VINA RESULT:      -9.2      0.000      0.000
REMARK  Name = 
REMARK  5 active torsions:
REMARK  status: ('A' for Active; 'I' for Inactive)
REMARK    1  A    between atoms: C_1  and  C_2
REMARK    2  A    between atoms: C_5  and  C_6
REMARK    3  A    between atoms: N_9  and  C_10
REMARK    4  A    between atoms: C_10  and  C_11
REMARK    5  A    between atoms: C_17  and  C_19
REMARK                            x       y       z     vdW  Elec       q    Type
REMARK                         _______ _______ _______ _____ _____    ______ ____
ROOT
ATOM      1  C   UNL     1       2.807   6.765  18.503  0.00  0.00    +0.000 A 
ATOM      2  N   UNL     1       2.294   5.539  18.168  0.00  0.00    +0.000 NA
ATOM      3  C   UNL     1       3.348   4.831  17.806  0.00  0.00    +0.000 A 
ATOM      4  N   UNL     1       3.373   3.547  17.372  0.00  0.00    +0.000 N 
ATOM      5  N   UNL     1       4.482   5.635  17.903  0.00  0.00    +0.000 N 
ATOM      6  C   UNL     1       5.830   5.390  17.552  0.00  0.00    +0.000 C 
ATOM      7  O   UNL     1       6.074   4.296  17.036  0.00  0.00    +0.000 OA
ATOM      8  N   UNL     1       4.135   6.841  18.409  0.00  0.00    +0.000 NA
ATOM      9  H   UNL     1       4.275   3.099  17.192  0.00  0.00    +0.000 HD
ENDROOT
BRANCH   1  14
ATOM     10  C   UNL     1      -0.664  11.169  19.850  0.00  0.00    +0.000 C 
ATOM     11  C   UNL     1       0.296  10.065  19.513  0.00  0.00    +0.000 A 
ATOM     12  C   UNL     1       0.731   9.881  18.198  0.00  0.00    +0.000 A 
ATOM     13  C   UNL     1       1.587   8.826  17.889  0.00  0.00    +0.000 A 
ATOM     14  C   UNL     1       2.029   7.935  18.883  0.00  0.00    +0.000 A 
ATOM     15  C   UNL     1       1.615   8.136  20.201  0.00  0.00    +0.000 A 
ATOM     16  C   UNL     1       0.748   9.191  20.511  0.00  0.00    +0.000 A 
ENDBRANCH   1  14
BRANCH   6  17
ATOM     17  C   UNL     1       6.845   6.415  17.778  0.00  0.00    +0.000 A 
ATOM     18  C   UNL     1       7.866   6.546  18.711  0.00  0.00    +0.000 A 
ATOM     19  C   UNL     1       8.473   7.802  18.499  0.00  0.00    +0.000 A 
ATOM     20  C   UNL     1       7.818   8.362  17.432  0.00  0.00    +0.000 A 
ATOM     21  O   UNL     1       6.849   7.528  16.972  0.00  0.00    +0.000 OA
ENDBRANCH   6  17
BRANCH   4  22
ATOM     22  C   UNL     1       2.347   2.609  17.809  0.00  0.00    +0.000 C 
BRANCH  22  23
ATOM     23  C   UNL     1       2.062   2.652  19.276  0.00  0.00    +0.000 A 
ATOM     24  C   UNL     1       0.915   2.861  20.016  0.00  0.00    +0.000 A 
ATOM     25  C   UNL     1       1.296   2.773  21.378  0.00  0.00    +0.000 A 
ATOM     26  C   UNL     1       2.646   2.513  21.384  0.00  0.00    +0.000 A 
ATOM     27  O   UNL     1       3.122   2.442  20.113  0.00  0.00    +0.000 OA
ENDBRANCH  22  23
ENDBRANCH   4  22
TORSDOF 4
ENDMDL
MODEL 2
REMARK VINA RESULT:      -8.8      0.550      1.230
REMARK  Name = 
REMARK  5 active torsions:
REMARK  status: ('A' for Active; 'I' for Inactive)
REMARK    1  A    between atoms: C_1  and  C_2
REMARK    2  A    between atoms: C_5  and  C_6
REMARK    3  A    between atoms: N_9  and  C_10
REMARK    4  A    between atoms: C_10  and  C_11
REMARK    5  A    between atoms: C_17  and  C_19
REMARK                            x       y       z     vdW  Elec       q    Type
REMARK                         _______ _______ _______ _____ _____    ______ ____
ROOT
ATOM      1  C   UNL     1       2.969   6.597  18.436  0.00  0.00    +0.000 A 
ATOM      2  N   UNL     1       2.554   5.324  18.142  0.00  0.00    +0.000 NA
ATOM      3  C   UNL     1       3.664   4.683  17.823  0.00  0.00    +0.000 A 
ATOM      4  N   UNL     1       3.792   3.389  17.441  0.00  0.00    +0.000 N 
ATOM      5  N   UNL     1       4.734   5.572  17.906  0.00  0.00    +0.000 N 
ATOM      6  C   UNL     1       6.102   5.415  17.585  0.00  0.00    +0.000 C 
ATOM      7  O   UNL     1       6.436   4.324  17.117  0.00  0.00    +0.000 OA
ATOM      8  N   UNL     1       4.289   6.768  18.358  0.00  0.00    +0.000 NA
ATOM      9  H   UNL     1       4.727   3.003  17.292  0.00  0.00    +0.000 HD
ENDROOT
BRANCH   1  14
ATOM     10  C   UNL     1      -0.091  11.265  19.884  0.00  0.00    +0.000 C 
ATOM     11  C   UNL     1       0.644  10.017  19.492  0.00  0.00    +0.000 A 
ATOM     12  C   UNL     1       0.966   9.053  20.452  0.00  0.00    +0.000 A 
ATOM     13  C   UNL     1       1.687   7.918  20.086  0.00  0.00    +0.000 A 
ATOM     14  C   UNL     1       2.100   7.720  18.757  0.00  0.00    +0.000 A 
ATOM     15  C   UNL     1       1.755   8.669  17.793  0.00  0.00    +0.000 A 
ATOM     16  C   UNL     1       1.037   9.814  18.163  0.00  0.00    +0.000 A 
ENDBRANCH   1  14
BRANCH   6  17
ATOM     17  C   UNL     1       7.034   6.521  17.786  0.00  0.00    +0.000 A 
ATOM     18  C   UNL     1       8.025   6.764  18.729  0.00  0.00    +0.000 A 
ATOM     19  C   UNL     1       8.542   8.052  18.476  0.00  0.00    +0.000 A 
ATOM     20  C   UNL     1       7.868   8.520  17.377  0.00  0.00    +0.000 A 
ATOM     21  O   UNL     1       6.971   7.598  16.936  0.00  0.00    +0.000 OA
ENDBRANCH   6  17
BRANCH   4  22
ATOM     22  C   UNL     1       2.829   2.395  17.900  0.00  0.00    +0.000 C 
BRANCH  22  23
ATOM     23  C   UNL     1       2.493   2.491  19.352  0.00  0.00    +0.000 A 
ATOM     24  C   UNL     1       3.246   2.440  20.509  0.00  0.00    +0.000 A 
ATOM     25  C   UNL     1       2.340   2.600  21.585  0.00  0.00    +0.000 A 
ATOM     26  C   UNL     1       1.094   2.741  21.021  0.00  0.00    +0.000 A 
ATOM     27  O   UNL     1       1.175   2.672  19.667  0.00  0.00    +0.000 OA
ENDBRANCH  22  23
ENDBRANCH   4  22
TORSDOF 4
ENDMDL
MODEL 3
REMARK VINA RESULT:      -8.6      1.816      5.238
REMARK  Name = 
REMARK  5 active torsions:
REMARK  status: ('A' for Active; 'I' for Inactive)
REMARK    1  A    between atoms: C_1  and  C_2
REMARK    2  A    between atoms: C_5  and  C_6
REMARK    3  A    between atoms: N_9  and  C_10
REMARK    4  A    between atoms: C_10  and  C_11
REMARK    5  A    between atoms: C_17  and  C_19
REMARK                            x       y       z     vdW  Elec       q    Type
REMARK                         _______ _______ _______ _____ _____    ______ ____
ROOT
ATOM      1  C   UNL     1       2.943   7.171  18.688  0.00  0.00    +0.000 A 
ATOM      2  N   UNL     1       4.148   7.255  18.041  0.00  0.00    +0.000 NA
ATOM      3  C   UNL     1       4.685   6.058  18.194  0.00  0.00    +0.000 A 
ATOM      4  N   UNL     1       5.890   5.628  17.745  0.00  0.00    +0.000 N 
ATOM      5  N   UNL     1       3.817   5.271  18.947  0.00  0.00    +0.000 N 
ATOM      6  C   UNL     1       3.956   3.960  19.460  0.00  0.00    +0.000 C 
ATOM      7  O   UNL     1       5.034   3.399  19.252  0.00  0.00    +0.000 OA
ATOM      8  N   UNL     1       2.685   5.968  19.200  0.00  0.00    +0.000 NA
ATOM      9  H   UNL     1       6.150   4.648  17.876  0.00  0.00    +0.000 HD
ENDROOT
BRANCH   1  14
ATOM     10  C   UNL     1      -1.105  11.232  19.305  0.00  0.00    +0.000 C 
ATOM     11  C   UNL     1      -0.002  10.226  19.158  0.00  0.00    +0.000 A 
ATOM     12  C   UNL     1       0.558   9.966  17.903  0.00  0.00    +0.000 A 
ATOM     13  C   UNL     1       1.552   8.997  17.771  0.00  0.00    +0.000 A 
ATOM     14  C   UNL     1       2.008   8.270  18.884  0.00  0.00    +0.000 A 
ATOM     15  C   UNL     1       1.467   8.548  20.141  0.00  0.00    +0.000 A 
ATOM     16  C   UNL     1       0.463   9.516  20.273  0.00  0.00    +0.000 A 
ENDBRANCH   1  14
BRANCH   6  17
ATOM     17  C   UNL     1       2.866   3.349  20.216  0.00  0.00    +0.000 A 
ATOM     18  C   UNL     1       2.617   3.212  21.576  0.00  0.00    +0.000 A 
ATOM     19  C   UNL     1       1.442   2.443  21.715  0.00  0.00    +0.000 A 
ATOM     20  C   UNL     1       1.014   2.175  20.440  0.00  0.00    +0.000 A 
ATOM     21  O   UNL     1       1.850   2.734  19.525  0.00  0.00    +0.000 OA
ENDBRANCH   6  17
BRANCH   4  22
ATOM     22  C   UNL     1       6.476   6.220  16.549  0.00  0.00    +0.000 C 
BRANCH  22  23
ATOM     23  C   UNL     1       6.439   5.335  15.346  0.00  0.00    +0.000 A 
ATOM     24  C   UNL     1       5.550   4.379  14.894  0.00  0.00    +0.000 A 
ATOM     25  C   UNL     1       6.074   3.890  13.672  0.00  0.00    +0.000 A 
ATOM     26  C   UNL     1       7.245   4.577  13.453  0.00  0.00    +0.000 A 
ATOM     27  O   UNL     1       7.478   5.453  14.465  0.00  0.00    +0.000 OA
ENDBRANCH  22  23
ENDBRANCH   4  22
TORSDOF 4
ENDMDL
MODEL 4
REMARK VINA RESULT:      -8.6      1.820      5.324
REMARK  Name = 
REMARK  5 active torsions:
REMARK  status: ('A' for Active; 'I' for Inactive)
REMARK    1  A    between atoms: C_1  and  C_2
REMARK    2  A    between atoms: C_5  and  C_6
REMARK    3  A    between atoms: N_9  and  C_10
REMARK    4  A    between atoms: C_10  and  C_11
REMARK    5  A    between atoms: C_17  and  C_19
REMARK                            x       y       z     vdW  Elec       q    Type
REMARK                         _______ _______ _______ _____ _____    ______ ____
ROOT
ATOM      1  C   UNL     1       3.161   7.054  18.590  0.00  0.00    +0.000 A 
ATOM      2  N   UNL     1       4.404   7.105  18.013  0.00  0.00    +0.000 NA
ATOM      3  C   UNL     1       4.913   5.906  18.226  0.00  0.00    +0.000 A 
ATOM      4  N   UNL     1       6.136   5.448  17.858  0.00  0.00    +0.000 N 
ATOM      5  N   UNL     1       3.991   5.148  18.945  0.00  0.00    +0.000 N 
ATOM      6  C   UNL     1       4.080   3.849  19.497  0.00  0.00    +0.000 C 
ATOM      7  O   UNL     1       5.161   3.269  19.366  0.00  0.00    +0.000 OA
ATOM      8  N   UNL     1       2.857   5.866  19.114  0.00  0.00    +0.000 NA
ATOM      9  H   UNL     1       6.373   4.468  18.028  0.00  0.00    +0.000 HD
ENDROOT
BRANCH   1  14
ATOM     10  C   UNL     1      -0.183  11.696  19.301  0.00  0.00    +0.000 C 
ATOM     11  C   UNL     1       0.630  10.454  19.088  0.00  0.00    +0.000 A 
ATOM     12  C   UNL     1       0.735   9.493  20.098  0.00  0.00    +0.000 A 
ATOM     13  C   UNL     1       1.530   8.364  19.906  0.00  0.00    +0.000 A 
ATOM     14  C   UNL     1       2.233   8.169  18.704  0.00  0.00    +0.000 A 
ATOM     15  C   UNL     1       2.107   9.116  17.686  0.00  0.00    +0.000 A 
ATOM     16  C   UNL     1       1.315  10.255  17.882  0.00  0.00    +0.000 A 
ENDBRANCH   1  14
BRANCH   6  17
ATOM     17  C   UNL     1       2.939   3.271  20.201  0.00  0.00    +0.000 A 
ATOM     18  C   UNL     1       2.627   3.137  21.549  0.00  0.00    +0.000 A 
ATOM     19  C   UNL     1       1.423   2.407  21.633  0.00  0.00    +0.000 A 
ATOM     20  C   UNL     1       1.042   2.158  20.339  0.00  0.00    +0.000 A 
ATOM     21  O   UNL     1       1.934   2.693  19.464  0.00  0.00    +0.000 OA
ENDBRANCH   6  17
BRANCH   4  22
ATOM     22  C   UNL     1       6.799   6.002  16.685  0.00  0.00    +0.000 C 
BRANCH  22  23
ATOM     23  C   UNL     1       6.611   5.200  15.438  0.00  0.00    +0.000 A 
ATOM     24  C   UNL     1       5.679   4.261  15.043  0.00  0.00    +0.000 A 
ATOM     25  C   UNL     1       6.040   3.866  13.731  0.00  0.00    +0.000 A 
ATOM     26  C   UNL     1       7.164   4.589  13.407  0.00  0.00    +0.000 A 
ATOM     27  O   UNL     1       7.522   5.398  14.438  0.00  0.00    +0.000 OA
ENDBRANCH  22  23
ENDBRANCH   4  22
TORSDOF 4
ENDMDL
MODEL 5
REMARK VINA RESULT:      -8.3      1.781      5.326
REMARK  Name = 
REMARK  5 active torsions:
REMARK  status: ('A' for Active; 'I' for Inactive)
REMARK    1  A    between atoms: C_1  and  C_2
REMARK    2  A    between atoms: C_5  and  C_6
REMARK    3  A    between atoms: N_9  and  C_10
REMARK    4  A    between atoms: C_10  and  C_11
REMARK    5  A    between atoms: C_17  and  C_19
REMARK                            x       y       z     vdW  Elec       q    Type
REMARK                         _______ _______ _______ _____ _____    ______ ____
ROOT
ATOM      1  C   UNL     1       3.521   6.590  18.848  0.00  0.00    +0.000 A 
ATOM      2  N   UNL     1       4.817   6.571  18.401  0.00  0.00    +0.000 NA
ATOM      3  C   UNL     1       5.234   5.346  18.662  0.00  0.00    +0.000 A 
ATOM      4  N   UNL     1       6.461   4.820  18.420  0.00  0.00    +0.000 N 
ATOM      5  N   UNL     1       4.203   4.643  19.280  0.00  0.00    +0.000 N 
ATOM      6  C   UNL     1       4.164   3.342  19.835  0.00  0.00    +0.000 C 
ATOM      7  O   UNL     1       5.218   2.703  19.813  0.00  0.00    +0.000 OA
ATOM      8  N   UNL     1       3.099   5.423  19.335  0.00  0.00    +0.000 NA
ATOM      9  H   UNL     1       6.625   3.829  18.610  0.00  0.00    +0.000 HD
ENDROOT
BRANCH   1  14
ATOM     10  C   UNL     1      -0.260  10.941  18.708  0.00  0.00    +0.000 C 
ATOM     11  C   UNL     1       0.773   9.855  18.768  0.00  0.00    +0.000 A 
ATOM     12  C   UNL     1       1.550   9.553  17.646  0.00  0.00    +0.000 A 
ATOM     13  C   UNL     1       2.476   8.513  17.699  0.00  0.00    +0.000 A 
ATOM     14  C   UNL     1       2.649   7.755  18.870  0.00  0.00    +0.000 A 
ATOM     15  C   UNL     1       1.892   8.074  19.999  0.00  0.00    +0.000 A 
ATOM     16  C   UNL     1       0.955   9.114  19.943  0.00  0.00    +0.000 A 
ENDBRANCH   1  14
BRANCH   6  17
ATOM     17  C   UNL     1       2.926   2.830  20.417  0.00  0.00    +0.000 A 
ATOM     18  C   UNL     1       1.733   2.383  19.863  0.00  0.00    +0.000 A 
ATOM     19  C   UNL     1       0.854   2.095  20.929  0.00  0.00    +0.000 A 
ATOM     20  C   UNL     1       1.559   2.349  22.077  0.00  0.00    +0.000 A 
ATOM     21  O   UNL     1       2.818   2.771  21.786  0.00  0.00    +0.000 OA
ENDBRANCH   6  17
BRANCH   4  22
ATOM     22  C   UNL     1       7.270   5.334  17.322  0.00  0.00    +0.000 C 
BRANCH  22  23
ATOM     23  C   UNL     1       6.876   4.818  15.976  0.00  0.00    +0.000 A 
ATOM     24  C   UNL     1       5.959   3.878  15.548  0.00  0.00    +0.000 A 
ATOM     25  C   UNL     1       6.052   3.842  14.135  0.00  0.00    +0.000 A 
ATOM     26  C   UNL     1       7.015   4.760  13.789  0.00  0.00    +0.000 A 
ATOM     27  O   UNL     1       7.525   5.355  14.899  0.00  0.00    +0.000 OA
ENDBRANCH  22  23
ENDBRANCH   4  22
TORSDOF 4
ENDMDL
MODEL 6
REMARK VINA RESULT:      -7.9      1.858      5.314
REMARK  Name = 
REMARK  5 active torsions:
REMARK  status: ('A' for Active; 'I' for Inactive)
REMARK    1  A    between atoms: C_1  and  C_2
REMARK    2  A    between atoms: C_5  and  C_6
REMARK    3  A    between atoms: N_9  and  C_10
REMARK    4  A    between atoms: C_10  and  C_11
REMARK    5  A    between atoms: C_17  and  C_19
REMARK                            x       y       z     vdW  Elec       q    Type
REMARK                         _______ _______ _______ _____ _____    ______ ____
ROOT
ATOM      1  C   UNL     1       3.055   7.035  18.514  0.00  0.00    +0.000 A 
ATOM      2  N   UNL     1       4.256   7.101  17.855  0.00  0.00    +0.000 NA
ATOM      3  C   UNL     1       4.770   5.893  17.991  0.00  0.00    +0.000 A 
ATOM      4  N   UNL     1       5.962   5.443  17.526  0.00  0.00    +0.000 N 
ATOM      5  N   UNL     1       3.893   5.115  18.744  0.00  0.00    +0.000 N 
ATOM      6  C   UNL     1       4.011   3.796  19.242  0.00  0.00    +0.000 C 
ATOM      7  O   UNL     1       5.076   3.216  19.017  0.00  0.00    +0.000 OA
ATOM      8  N   UNL     1       2.778   5.831  19.015  0.00  0.00    +0.000 NA
ATOM      9  H   UNL     1       6.203   4.457  17.644  0.00  0.00    +0.000 HD
ENDROOT
BRANCH   1  14
ATOM     10  C   UNL     1      -0.201  11.667  19.608  0.00  0.00    +0.000 C 
ATOM     11  C   UNL     1       0.588  10.428  19.298  0.00  0.00    +0.000 A 
ATOM     12  C   UNL     1       0.764   9.439  20.270  0.00  0.00    +0.000 A 
ATOM     13  C   UNL     1       1.535   8.313  19.986  0.00  0.00    +0.000 A 
ATOM     14  C   UNL     1       2.144   8.150  18.729  0.00  0.00    +0.000 A 
ATOM     15  C   UNL     1       1.946   9.125  17.750  0.00  0.00    +0.000 A 
ATOM     16  C   UNL     1       1.178  10.261  18.038  0.00  0.00    +0.000 A 
ENDBRANCH   1  14
BRANCH   6  17
ATOM     17  C   UNL     1       2.916   3.199  20.001  0.00  0.00    +0.000 A 
ATOM     18  C   UNL     1       1.769   2.509  19.626  0.00  0.00    +0.000 A 
ATOM     19  C   UNL     1       1.028   2.252  20.799  0.00  0.00    +0.000 A 
ATOM     20  C   UNL     1       1.768   2.766  21.832  0.00  0.00    +0.000 A 
ATOM     21  O   UNL     1       2.920   3.320  21.370  0.00  0.00    +0.000 OA
ENDBRANCH   6  17
BRANCH   4  22
ATOM     22  C   UNL     1       6.548   6.036  16.331  0.00  0.00    +0.000 C 
BRANCH  22  23
ATOM     23  C   UNL     1       6.432   5.188  15.105  0.00  0.00    +0.000 A 
ATOM     24  C   UNL     1       7.289   4.903  14.061  0.00  0.00    +0.000 A 
ATOM     25  C   UNL     1       6.593   4.019  13.201  0.00  0.00    +0.000 A 
ATOM     26  C   UNL     1       5.359   3.817  13.773  0.00  0.00    +0.000 A 
ATOM     27  O   UNL     1       5.249   4.527  14.927  0.00  0.00    +0.000 OA
ENDBRANCH  22  23
ENDBRANCH   4  22
TORSDOF 4
ENDMDL
MODEL 7
REMARK VINA RESULT:      -7.3      1.079      5.606
REMARK  Name = 
REMARK  5 active torsions:
REMARK  status: ('A' for Active; 'I' for Inactive)
REMARK    1  A    between atoms: C_1  and  C_2
REMARK    2  A    between atoms: C_5  and  C_6
REMARK    3  A    between atoms: N_9  and  C_10
REMARK    4  A    between atoms: C_10  and  C_11
REMARK    5  A    between atoms: C_17  and  C_19
REMARK                            x       y       z     vdW  Elec       q    Type
REMARK                         _______ _______ _______ _____ _____    ______ ____
ROOT
ATOM      1  C   UNL     1       2.902   7.284  18.490  0.00  0.00    +0.000 A 
ATOM      2  N   UNL     1       4.207   7.484  18.119  0.00  0.00    +0.000 NA
ATOM      3  C   UNL     1       4.718   6.268  18.056  0.00  0.00    +0.000 A 
ATOM      4  N   UNL     1       5.990   5.919  17.740  0.00  0.00    +0.000 N 
ATOM      5  N   UNL     1       3.732   5.348  18.407  0.00  0.00    +0.000 N 
ATOM      6  C   UNL     1       3.785   3.945  18.582  0.00  0.00    +0.000 C 
ATOM      7  O   UNL     1       4.889   3.415  18.438  0.00  0.00    +0.000 OA
ATOM      8  N   UNL     1       2.565   6.001  18.618  0.00  0.00    +0.000 NA
ATOM      9  H   UNL     1       6.230   4.929  17.660  0.00  0.00    +0.000 HD
ENDROOT
BRANCH   1  14
ATOM     10  C   UNL     1      -1.265  11.137  19.512  0.00  0.00    +0.000 C 
ATOM     11  C   UNL     1      -0.132  10.186  19.259  0.00  0.00    +0.000 A 
ATOM     12  C   UNL     1       0.369  10.009  17.966  0.00  0.00    +0.000 A 
ATOM     13  C   UNL     1       1.391   9.090  17.735  0.00  0.00    +0.000 A 
ATOM     14  C   UNL     1       1.936   8.332  18.787  0.00  0.00    +0.000 A 
ATOM     15  C   UNL     1       1.454   8.529  20.082  0.00  0.00    +0.000 A 
ATOM     16  C   UNL     1       0.420   9.446  20.313  0.00  0.00    +0.000 A 
ENDBRANCH   1  14
BRANCH   6  17
ATOM     17  C   UNL     1       2.579   3.205  18.940  0.00  0.00    +0.000 A 
ATOM     18  C   UNL     1       1.627   2.525  18.190  0.00  0.00    +0.000 A 
ATOM     19  C   UNL     1       0.628   2.079  19.081  0.00  0.00    +0.000 A 
ATOM     20  C   UNL     1       1.029   2.479  20.329  0.00  0.00    +0.000 A 
ATOM     21  O   UNL     1       2.216   3.139  20.264  0.00  0.00    +0.000 OA
ENDBRANCH   6  17
BRANCH   4  22
ATOM     22  C   UNL     1       6.784   6.774  16.866  0.00  0.00    +0.000 C 
BRANCH  22  23
ATOM     23  C   UNL     1       7.582   7.813  17.583  0.00  0.00    +0.000 A 
ATOM     24  C   UNL     1       8.454   7.772  18.653  0.00  0.00    +0.000 A 
ATOM     25  C   UNL     1       8.898   9.102  18.860  0.00  0.00    +0.000 A 
ATOM     26  C   UNL     1       8.273   9.869  17.905  0.00  0.00    +0.000 A 
ATOM     27  O   UNL     1       7.468   9.097  17.128  0.00  0.00    +0.000 OA
ENDBRANCH  22  23
ENDBRANCH   4  22
TORSDOF 4
ENDMDL
MODEL 8
REMARK VINA RESULT:      -7.3      2.521      5.652
REMARK  Name = 
REMARK  5 active torsions:
REMARK  status: ('A' for Active; 'I' for Inactive)
REMARK    1  A    between atoms: C_1  and  C_2
REMARK    2  A    between atoms: C_5  and  C_6
REMARK    3  A    between atoms: N_9  and  C_10
REMARK    4  A    between atoms: C_10  and  C_11
REMARK    5  A    between atoms: C_17  and  C_19
REMARK                            x       y       z     vdW  Elec       q    Type
REMARK                         _______ _______ _______ _____ _____    ______ ____
ROOT
ATOM      1  C   UNL     1       3.794   5.832  18.293  0.00  0.00    +0.000 A 
ATOM      2  N   UNL     1       3.605   4.971  19.344  0.00  0.00    +0.000 NA
ATOM      3  C   UNL     1       2.792   5.621  20.156  0.00  0.00    +0.000 A 
ATOM      4  N   UNL     1       2.308   5.202  21.352  0.00  0.00    +0.000 N 
ATOM      5  N   UNL     1       2.514   6.871  19.607  0.00  0.00    +0.000 N 
ATOM      6  C   UNL     1       1.780   7.969  20.113  0.00  0.00    +0.000 C 
ATOM      7  O   UNL     1       1.320   7.845  21.251  0.00  0.00    +0.000 OA
ATOM      8  N   UNL     1       3.104   6.968  18.393  0.00  0.00    +0.000 NA
ATOM      9  H   UNL     1       1.627   5.784  21.845  0.00  0.00    +0.000 HD
ENDROOT
BRANCH   1  14
ATOM     10  C   UNL     1       6.996   4.731  13.625  0.00  0.00    +0.000 C 
ATOM     11  C   UNL     1       6.222   5.041  14.873  0.00  0.00    +0.000 A 
ATOM     12  C   UNL     1       6.041   4.064  15.856  0.00  0.00    +0.000 A 
ATOM     13  C   UNL     1       5.283   4.349  16.990  0.00  0.00    +0.000 A 
ATOM     14  C   UNL     1       4.692   5.612  17.169  0.00  0.00    +0.000 A 
ATOM     15  C   UNL     1       4.896   6.597  16.200  0.00  0.00    +0.000 A 
ATOM     16  C   UNL     1       5.651   6.308  15.056  0.00  0.00    +0.000 A 
ENDBRANCH   1  14
BRANCH   6  17
ATOM     17  C   UNL     1       1.622   9.178  19.310  0.00  0.00    +0.000 A 
ATOM     18  C   UNL     1       1.944   9.490  17.995  0.00  0.00    +0.000 A 
ATOM     19  C   UNL     1       1.639  10.853  17.797  0.00  0.00    +0.000 A 
ATOM     20  C   UNL     1       1.119  11.299  18.985  0.00  0.00    +0.000 A 
ATOM     21  O   UNL     1       1.081  10.294  19.900  0.00  0.00    +0.000 OA
ENDBRANCH   6  17
BRANCH   4  22
ATOM     22  C   UNL     1       2.139   3.778  21.611  0.00  0.00    +0.000 C 
BRANCH  22  23
ATOM     23  C   UNL     1       1.692   2.987  20.425  0.00  0.00    +0.000 A 
ATOM     24  C   UNL     1       0.515   2.933  19.706  0.00  0.00    +0.000 A 
ATOM     25  C   UNL     1       0.716   1.981  18.677  0.00  0.00    +0.000 A 
ATOM     26  C   UNL     1       2.002   1.516  18.829  0.00  0.00    +0.000 A 
ATOM     27  O   UNL     1       2.601   2.117  19.890  0.00  0.00    +0.000 OA
ENDBRANCH  22  23
ENDBRANCH   4  22
TORSDOF 4
ENDMDL
MODEL 9
REMARK VINA RESULT:      -7.2      1.068      5.690
REMARK  Name = 
REMARK  5 active torsions:
REMARK  status: ('A' for Active; 'I' for Inactive)
REMARK    1  A    between atoms: C_1  and  C_2
REMARK    2  A    between atoms: C_5  and  C_6
REMARK    3  A    between atoms: N_9  and  C_10
REMARK    4  A    between atoms: C_10  and  C_11
REMARK    5  A    between atoms: C_17  and  C_19
REMARK                            x       y       z     vdW  Elec       q    Type
REMARK                         _______ _______ _______ _____ _____    ______ ____
ROOT
ATOM      1  C   UNL     1       3.027   7.108  18.594  0.00  0.00    +0.000 A 
ATOM      2  N   UNL     1       4.325   7.342  18.217  0.00  0.00    +0.000 NA
ATOM      3  C   UNL     1       4.897   6.152  18.259  0.00  0.00    +0.000 A 
ATOM      4  N   UNL     1       6.188   5.844  17.982  0.00  0.00    +0.000 N 
ATOM      5  N   UNL     1       3.954   5.216  18.679  0.00  0.00    +0.000 N 
ATOM      6  C   UNL     1       4.076   3.837  18.971  0.00  0.00    +0.000 C 
ATOM      7  O   UNL     1       5.207   3.354  18.880  0.00  0.00    +0.000 OA
ATOM      8  N   UNL     1       2.754   5.824  18.826  0.00  0.00    +0.000 NA
ATOM      9  H   UNL     1       6.479   4.864  17.987  0.00  0.00    +0.000 HD
ENDROOT
BRANCH   1  14
ATOM     10  C   UNL     1      -0.674  11.420  19.569  0.00  0.00    +0.000 C 
ATOM     11  C   UNL     1       0.233  10.256  19.300  0.00  0.00    +0.000 A 
ATOM     12  C   UNL     1       0.619   9.404  20.339  0.00  0.00    +0.000 A 
ATOM     13  C   UNL     1       1.498   8.351  20.086  0.00  0.00    +0.000 A 
ATOM     14  C   UNL     1       2.007   8.126  18.795  0.00  0.00    +0.000 A 
ATOM     15  C   UNL     1       1.600   8.961  17.753  0.00  0.00    +0.000 A 
ATOM     16  C   UNL     1       0.723  10.024  18.008  0.00  0.00    +0.000 A 
ENDBRANCH   1  14
BRANCH   6  17
ATOM     17  C   UNL     1       2.905   3.069  19.382  0.00  0.00    +0.000 A 
ATOM     18  C   UNL     1       1.983   2.300  18.682  0.00  0.00    +0.000 A 
ATOM     19  C   UNL     1       1.005   1.869  19.603  0.00  0.00    +0.000 A 
ATOM     20  C   UNL     1       1.391   2.365  20.822  0.00  0.00    +0.000 A 
ATOM     21  O   UNL     1       2.547   3.072  20.709  0.00  0.00    +0.000 OA
ENDBRANCH   6  17
BRANCH   4  22
ATOM     22  C   UNL     1       6.948   6.662  17.045  0.00  0.00    +0.000 C 
BRANCH  22  23
ATOM     23  C   UNL     1       7.676   7.803  17.677  0.00  0.00    +0.000 A 
ATOM     24  C   UNL     1       8.557   7.900  18.736  0.00  0.00    +0.000 A 
ATOM     25  C   UNL     1       8.908   9.269  18.842  0.00  0.00    +0.000 A 
ATOM     26  C   UNL     1       8.222   9.920  17.843  0.00  0.00    +0.000 A 
ATOM     27  O   UNL     1       7.468   9.040  17.134  0.00  0.00    +0.000 OA
ENDBRANCH  22  23
ENDBRANCH   4  22
TORSDOF 4
ENDMDL
