MODEL 1
REMARK VINA RESULT:      -8.6      0.000      0.000
REMARK  Name = 
REMARK  13 active torsions:
REMARK  status: ('A' for Active; 'I' for Inactive)
REMARK    1  A    between atoms: C_1  and  O_2
REMARK    2  A    between atoms: O_2  and  C_3
REMARK    3  A    between atoms: C_4  and  C_5
REMARK    4  A    between atoms: C_4  and  C_9
REMARK    5  A    between atoms: C_5  and  O_7
REMARK    6  A    between atoms: O_7  and  C_8
REMARK    7  A    between atoms: C_14  and  C_15
REMARK    8  A    between atoms: C_15  and  O_16
REMARK    9  A    between atoms: O_16  and  C_17
REMARK   10  A    between atoms: C_21  and  C_22
REMARK   11  A    between atoms: C_22  and  C_24
REMARK   12  A    between atoms: C_25  and  C_26
REMARK   13  A    between atoms: C_29  and  C_30
REMARK                            x       y       z     vdW  Elec       q    Type
REMARK                         _______ _______ _______ _____ _____    ______ ____
ROOT
ATOM      1  C   UNL     1       1.967   7.979  19.556  0.00  0.00    +0.000 A 
ATOM      2  C   UNL     1       1.775   8.765  18.418  0.00  0.00    +0.000 A 
ATOM      3  C   UNL     1       1.023   9.937  18.481  0.00  0.00    +0.000 A 
ATOM      4  C   UNL     1       0.495  10.355  19.702  0.00  0.00    +0.000 A 
ATOM      5  C   UNL     1       0.724   9.603  20.861  0.00  0.00    +0.000 A 
ATOM      6  C   UNL     1       1.431   8.392  20.779  0.00  0.00    +0.000 A 
ENDROOT
BRANCH   5   7
ATOM      7  C   UNL     1       0.218  10.155  22.149  0.00  0.00    +0.000 C 
ATOM      8  O   UNL     1       0.666   9.742  23.213  0.00  0.00    +0.000 OA
BRANCH   7   9
ATOM      9  C   UNL     1      -0.881  11.159  22.091  0.00  0.00    +0.000 C 
ATOM     10  C   UNL     1      -1.699  11.324  23.143  0.00  0.00    +0.000 C 
BRANCH  10  11
ATOM     11  C   UNL     1      -2.797  12.303  23.178  0.00  0.00    +0.000 A 
ATOM     12  C   UNL     1      -2.931  13.224  22.130  0.00  0.00    +0.000 A 
ATOM     13  C   UNL     1      -3.999  14.127  22.104  0.00  0.00    +0.000 A 
ATOM     14  C   UNL     1      -4.961  14.118  23.120  0.00  0.00    +0.000 A 
ATOM     15  C   UNL     1      -6.131  15.055  23.094  0.00  0.00    +0.000 C 
ATOM     16  C   UNL     1      -4.832  13.198  24.165  0.00  0.00    +0.000 A 
ATOM     17  C   UNL     1      -3.765  12.295  24.189  0.00  0.00    +0.000 A 
ENDBRANCH  10  11
ENDBRANCH   7   9
ENDBRANCH   5   7
BRANCH   1  18
ATOM     18  O   UNL     1       2.766   6.883  19.365  0.00  0.00    +0.000 OA
BRANCH  18  19
ATOM     19  C   UNL     1       2.803   6.283  18.064  0.00  0.00    +0.000 C 
BRANCH  19  25
ATOM     20  C   UNL     1       3.941   4.027  17.722  0.00  0.00    +0.000 A 
ATOM     21  C   UNL     1       3.879   2.625  17.642  0.00  0.00    +0.000 A 
ATOM     22  C   UNL     1       2.690   1.948  17.901  0.00  0.00    +0.000 A 
ATOM     23  C   UNL     1       1.555   2.662  18.266  0.00  0.00    +0.000 A 
ATOM     24  C   UNL     1       1.603   4.054  18.352  0.00  0.00    +0.000 A 
ATOM     25  C   UNL     1       2.782   4.764  18.052  0.00  0.00    +0.000 A 
BRANCH  20  27
ATOM     26  C   UNL     1       5.728   4.740  16.203  0.00  0.00    +0.000 C 
ATOM     27  C   UNL     1       5.249   4.662  17.457  0.00  0.00    +0.000 C 
BRANCH  26  29
ATOM     28  C   UNL     1       5.878   3.971  14.007  0.00  0.00    +0.000 C 
ATOM     29  O   UNL     1       5.030   4.285  15.110  0.00  0.00    +0.000 OA
ENDBRANCH  26  29
BRANCH  27  30
ATOM     30  C   UNL     1       6.121   5.168  18.559  0.00  0.00    +0.000 C 
ATOM     31  O   UNL     1       6.359   4.556  19.591  0.00  0.00    +0.000 OA
BRANCH  30  32
ATOM     32  O   UNL     1       6.598   6.401  18.245  0.00  0.00    +0.000 OA
ATOM     33  C   UNL     1       7.961   6.629  18.601  0.00  0.00    +0.000 C 
ENDBRANCH  30  32
ENDBRANCH  27  30
ENDBRANCH  20  27
ENDBRANCH  19  25
ENDBRANCH  18  19
ENDBRANCH   1  18
TORSDOF 10
ENDMDL
MODEL 2
REMARK VINA RESULT:      -8.2      1.273      2.363
REMARK  Name = 
REMARK  13 active torsions:
REMARK  status: ('A' for Active; 'I' for Inactive)
REMARK    1  A    between atoms: C_1  and  O_2
REMARK    2  A    between atoms: O_2  and  C_3
REMARK    3  A    between atoms: C_4  and  C_5
REMARK    4  A    between atoms: C_4  and  C_9
REMARK    5  A    between atoms: C_5  and  O_7
REMARK    6  A    between atoms: O_7  and  C_8
REMARK    7  A    between atoms: C_14  and  C_15
REMARK    8  A    between atoms: C_15  and  O_16
REMARK    9  A    between atoms: O_16  and  C_17
REMARK   10  A    between atoms: C_21  and  C_22
REMARK   11  A    between atoms: C_22  and  C_24
REMARK   12  A    between atoms: C_25  and  C_26
REMARK   13  A    between atoms: C_29  and  C_30
REMARK                            x       y       z     vdW  Elec       q    Type
REMARK                         _______ _______ _______ _____ _____    ______ ____
ROOT
ATOM      1  C   UNL     1       1.844   8.648  18.407  0.00  0.00    +0.000 A 
ATOM      2  C   UNL     1       0.913   9.307  17.601  0.00  0.00    +0.000 A 
ATOM      3  C   UNL     1      -0.130  10.035  18.169  0.00  0.00    +0.000 A 
ATOM      4  C   UNL     1      -0.222  10.145  19.556  0.00  0.00    +0.000 A 
ATOM      5  C   UNL     1       0.735   9.532  20.374  0.00  0.00    +0.000 A 
ATOM      6  C   UNL     1       1.749   8.750  19.797  0.00  0.00    +0.000 A 
ENDROOT
BRANCH   5   7
ATOM      7  C   UNL     1       0.637   9.771  21.842  0.00  0.00    +0.000 C 
ATOM      8  O   UNL     1       1.487   9.311  22.597  0.00  0.00    +0.000 OA
BRANCH   7   9
ATOM      9  C   UNL     1      -0.548  10.518  22.348  0.00  0.00    +0.000 C 
ATOM     10  C   UNL     1      -0.501  11.854  22.472  0.00  0.00    +0.000 C 
BRANCH  10  11
ATOM     11  C   UNL     1      -1.630  12.670  22.945  0.00  0.00    +0.000 A 
ATOM     12  C   UNL     1      -1.379  13.922  23.523  0.00  0.00    +0.000 A 
ATOM     13  C   UNL     1      -2.434  14.748  23.927  0.00  0.00    +0.000 A 
ATOM     14  C   UNL     1      -3.760  14.341  23.750  0.00  0.00    +0.000 A 
ATOM     15  C   UNL     1      -4.906  15.224  24.146  0.00  0.00    +0.000 C 
ATOM     16  C   UNL     1      -4.014  13.094  23.172  0.00  0.00    +0.000 A 
ATOM     17  C   UNL     1      -2.960  12.271  22.767  0.00  0.00    +0.000 A 
ENDBRANCH  10  11
ENDBRANCH   7   9
ENDBRANCH   5   7
BRANCH   1  18
ATOM     18  O   UNL     1       2.844   8.012  17.721  0.00  0.00    +0.000 OA
BRANCH  18  19
ATOM     19  C   UNL     1       3.633   7.035  18.413  0.00  0.00    +0.000 C 
BRANCH  19  25
ATOM     20  C   UNL     1       4.140   4.804  17.287  0.00  0.00    +0.000 A 
ATOM     21  C   UNL     1       3.766   3.493  16.944  0.00  0.00    +0.000 A 
ATOM     22  C   UNL     1       2.572   2.948  17.409  0.00  0.00    +0.000 A 
ATOM     23  C   UNL     1       1.749   3.698  18.240  0.00  0.00    +0.000 A 
ATOM     24  C   UNL     1       2.110   4.999  18.591  0.00  0.00    +0.000 A 
ATOM     25  C   UNL     1       3.291   5.588  18.098  0.00  0.00    +0.000 A 
BRANCH  20  27
ATOM     26  C   UNL     1       6.550   5.190  17.518  0.00  0.00    +0.000 C 
ATOM     27  C   UNL     1       5.436   5.293  16.771  0.00  0.00    +0.000 C 
BRANCH  26  29
ATOM     28  C   UNL     1       7.215   5.400  19.742  0.00  0.00    +0.000 C 
ATOM     29  O   UNL     1       6.562   4.601  18.759  0.00  0.00    +0.000 OA
ENDBRANCH  26  29
BRANCH  27  30
ATOM     30  C   UNL     1       5.554   5.983  15.451  0.00  0.00    +0.000 C 
ATOM     31  O   UNL     1       4.931   6.985  15.135  0.00  0.00    +0.000 OA
BRANCH  30  32
ATOM     32  O   UNL     1       6.446   5.326  14.663  0.00  0.00    +0.000 OA
ATOM     33  C   UNL     1       5.939   4.153  14.028  0.00  0.00    +0.000 C 
ENDBRANCH  30  32
ENDBRANCH  27  30
ENDBRANCH  20  27
ENDBRANCH  19  25
ENDBRANCH  18  19
ENDBRANCH   1  18
TORSDOF 10
ENDMDL
MODEL 3
REMARK VINA RESULT:      -8.2      2.391      2.922
REMARK  Name = 
REMARK  13 active torsions:
REMARK  status: ('A' for Active; 'I' for Inactive)
REMARK    1  A    between atoms: C_1  and  O_2
REMARK    2  A    between atoms: O_2  and  C_3
REMARK    3  A    between atoms: C_4  and  C_5
REMARK    4  A    between atoms: C_4  and  C_9
REMARK    5  A    between atoms: C_5  and  O_7
REMARK    6  A    between atoms: O_7  and  C_8
REMARK    7  A    between atoms: C_14  and  C_15
REMARK    8  A    between atoms: C_15  and  O_16
REMARK    9  A    between atoms: O_16  and  C_17
REMARK   10  A    between atoms: C_21  and  C_22
REMARK   11  A    between atoms: C_22  and  C_24
REMARK   12  A    between atoms: C_25  and  C_26
REMARK   13  A    between atoms: C_29  and  C_30
REMARK                            x       y       z     vdW  Elec       q    Type
REMARK                         _______ _______ _______ _____ _____    ______ ____
ROOT
ATOM      1  C   UNL     1       1.986   8.361  18.514  0.00  0.00    +0.000 A 
ATOM      2  C   UNL     1       1.773   7.798  19.774  0.00  0.00    +0.000 A 
ATOM      3  C   UNL     1       1.324   8.580  20.836  0.00  0.00    +0.000 A 
ATOM      4  C   UNL     1       1.040   9.929  20.630  0.00  0.00    +0.000 A 
ATOM      5  C   UNL     1       1.200  10.495  19.359  0.00  0.00    +0.000 A 
ATOM      6  C   UNL     1       1.711   9.716  18.308  0.00  0.00    +0.000 A 
ENDROOT
BRANCH   5   7
ATOM      7  C   UNL     1       0.786  11.915  19.183  0.00  0.00    +0.000 C 
ATOM      8  O   UNL     1       1.549  12.822  19.500  0.00  0.00    +0.000 OA
BRANCH   7   9
ATOM      9  C   UNL     1      -0.591  12.181  18.681  0.00  0.00    +0.000 C 
ATOM     10  C   UNL     1      -1.652  11.651  19.311  0.00  0.00    +0.000 C 
BRANCH  10  11
ATOM     11  C   UNL     1      -3.045  11.876  18.895  0.00  0.00    +0.000 A 
ATOM     12  C   UNL     1      -3.473  11.413  17.644  0.00  0.00    +0.000 A 
ATOM     13  C   UNL     1      -4.807  11.558  17.245  0.00  0.00    +0.000 A 
ATOM     14  C   UNL     1      -5.740  12.159  18.096  0.00  0.00    +0.000 A 
ATOM     15  C   UNL     1      -7.180  12.295  17.702  0.00  0.00    +0.000 C 
ATOM     16  C   UNL     1      -5.317  12.620  19.346  0.00  0.00    +0.000 A 
ATOM     17  C   UNL     1      -3.985  12.473  19.744  0.00  0.00    +0.000 A 
ENDBRANCH  10  11
ENDBRANCH   7   9
ENDBRANCH   5   7
BRANCH   1  18
ATOM     18  O   UNL     1       2.380   7.472  17.550  0.00  0.00    +0.000 OA
BRANCH  18  19
ATOM     19  C   UNL     1       3.509   6.630  17.817  0.00  0.00    +0.000 C 
BRANCH  19  25
ATOM     20  C   UNL     1       4.222   4.191  17.602  0.00  0.00    +0.000 A 
ATOM     21  C   UNL     1       3.905   2.822  17.567  0.00  0.00    +0.000 A 
ATOM     22  C   UNL     1       2.602   2.386  17.796  0.00  0.00    +0.000 A 
ATOM     23  C   UNL     1       1.606   3.310  18.085  0.00  0.00    +0.000 A 
ATOM     24  C   UNL     1       1.908   4.672  18.127  0.00  0.00    +0.000 A 
ATOM     25  C   UNL     1       3.208   5.141  17.856  0.00  0.00    +0.000 A 
BRANCH  20  27
ATOM     26  C   UNL     1       6.173   4.478  16.146  0.00  0.00    +0.000 C 
ATOM     27  C   UNL     1       5.634   4.564  17.375  0.00  0.00    +0.000 C 
BRANCH  26  29
ATOM     28  C   UNL     1       6.251   4.004  13.865  0.00  0.00    +0.000 C 
ATOM     29  O   UNL     1       5.452   4.089  15.043  0.00  0.00    +0.000 OA
ENDBRANCH  26  29
BRANCH  27  30
ATOM     30  C   UNL     1       6.535   4.972  18.494  0.00  0.00    +0.000 C 
ATOM     31  O   UNL     1       6.287   4.806  19.679  0.00  0.00    +0.000 OA
BRANCH  30  32
ATOM     32  O   UNL     1       7.657   5.557  17.997  0.00  0.00    +0.000 OA
ATOM     33  C   UNL     1       7.671   6.982  18.059  0.00  0.00    +0.000 C 
ENDBRANCH  30  32
ENDBRANCH  27  30
ENDBRANCH  20  27
ENDBRANCH  19  25
ENDBRANCH  18  19
ENDBRANCH   1  18
TORSDOF 10
ENDMDL
MODEL 4
REMARK VINA RESULT:      -8.2      2.541      3.257
REMARK  Name = 
REMARK  13 active torsions:
REMARK  status: ('A' for Active; 'I' for Inactive)
REMARK    1  A    between atoms: C_1  and  O_2
REMARK    2  A    between atoms: O_2  and  C_3
REMARK    3  A    between atoms: C_4  and  C_5
REMARK    4  A    between atoms: C_4  and  C_9
REMARK    5  A    between atoms: C_5  and  O_7
REMARK    6  A    between atoms: O_7  and  C_8
REMARK    7  A    between atoms: C_14  and  C_15
REMARK    8  A    between atoms: C_15  and  O_16
REMARK    9  A    between atoms: O_16  and  C_17
REMARK   10  A    between atoms: C_21  and  C_22
REMARK   11  A    between atoms: C_22  and  C_24
REMARK   12  A    between atoms: C_25  and  C_26
REMARK   13  A    between atoms: C_29  and  C_30
REMARK                            x       y       z     vdW  Elec       q    Type
REMARK                         _______ _______ _______ _____ _____    ______ ____
ROOT
ATOM      1  C   UNL     1       2.157   7.764  19.642  0.00  0.00    +0.000 A 
ATOM      2  C   UNL     1       1.430   7.463  20.796  0.00  0.00    +0.000 A 
ATOM      3  C   UNL     1       0.556   8.397  21.350  0.00  0.00    +0.000 A 
ATOM      4  C   UNL     1       0.369   9.627  20.722  0.00  0.00    +0.000 A 
ATOM      5  C   UNL     1       1.053   9.922  19.535  0.00  0.00    +0.000 A 
ATOM      6  C   UNL     1       1.977   9.001  19.016  0.00  0.00    +0.000 A 
ENDROOT
BRANCH   5   7
ATOM      7  C   UNL     1       0.734  11.212  18.862  0.00  0.00    +0.000 C 
ATOM      8  O   UNL     1       1.638  11.915  18.421  0.00  0.00    +0.000 OA
BRANCH   7   9
ATOM      9  C   UNL     1      -0.693  11.636  18.809  0.00  0.00    +0.000 C 
ATOM     10  C   UNL     1      -1.569  10.962  18.046  0.00  0.00    +0.000 C 
BRANCH  10  11
ATOM     11  C   UNL     1      -2.997  11.301  17.951  0.00  0.00    +0.000 A 
ATOM     12  C   UNL     1      -3.657  11.823  19.071  0.00  0.00    +0.000 A 
ATOM     13  C   UNL     1      -4.999  12.212  18.994  0.00  0.00    +0.000 A 
ATOM     14  C   UNL     1      -5.703  12.096  17.791  0.00  0.00    +0.000 A 
ATOM     15  C   UNL     1      -7.132  12.537  17.678  0.00  0.00    +0.000 C 
ATOM     16  C   UNL     1      -5.047  11.578  16.670  0.00  0.00    +0.000 A 
ATOM     17  C   UNL     1      -3.706  11.192  16.748  0.00  0.00    +0.000 A 
ENDBRANCH  10  11
ENDBRANCH   7   9
ENDBRANCH   5   7
BRANCH   1  18
ATOM     18  O   UNL     1       2.940   6.742  19.177  0.00  0.00    +0.000 OA
BRANCH  18  19
ATOM     19  C   UNL     1       2.524   6.045  17.995  0.00  0.00    +0.000 C 
BRANCH  19  25
ATOM     20  C   UNL     1       3.746   3.809  17.915  0.00  0.00    +0.000 A 
ATOM     21  C   UNL     1       3.729   2.403  17.938  0.00  0.00    +0.000 A 
ATOM     22  C   UNL     1       2.542   1.708  18.158  0.00  0.00    +0.000 A 
ATOM     23  C   UNL     1       1.363   2.409  18.379  0.00  0.00    +0.000 A 
ATOM     24  C   UNL     1       1.366   3.805  18.362  0.00  0.00    +0.000 A 
ATOM     25  C   UNL     1       2.545   4.529  18.099  0.00  0.00    +0.000 A 
BRANCH  20  27
ATOM     26  C   UNL     1       5.528   4.653  16.458  0.00  0.00    +0.000 C 
ATOM     27  C   UNL     1       5.053   4.465  17.702  0.00  0.00    +0.000 C 
BRANCH  26  29
ATOM     28  C   UNL     1       5.659   4.174  14.181  0.00  0.00    +0.000 C 
ATOM     29  O   UNL     1       4.827   4.295  15.332  0.00  0.00    +0.000 OA
ENDBRANCH  26  29
BRANCH  27  30
ATOM     30  C   UNL     1       5.928   4.874  18.842  0.00  0.00    +0.000 C 
ATOM     31  O   UNL     1       5.520   5.187  19.951  0.00  0.00    +0.000 OA
BRANCH  30  32
ATOM     32  O   UNL     1       7.231   4.850  18.457  0.00  0.00    +0.000 OA
ATOM     33  C   UNL     1       8.060   5.833  19.078  0.00  0.00    +0.000 C 
ENDBRANCH  30  32
ENDBRANCH  27  30
ENDBRANCH  20  27
ENDBRANCH  19  25
ENDBRANCH  18  19
ENDBRANCH   1  18
TORSDOF 10
ENDMDL
MODEL 5
REMARK VINA RESULT:      -8.2      0.918      2.331
REMARK  Name = 
REMARK  13 active torsions:
REMARK  status: ('A' for Active; 'I' for Inactive)
REMARK    1  A    between atoms: C_1  and  O_2
REMARK    2  A    between atoms: O_2  and  C_3
REMARK    3  A    between atoms: C_4  and  C_5
REMARK    4  A    between atoms: C_4  and  C_9
REMARK    5  A    between atoms: C_5  and  O_7
REMARK    6  A    between atoms: O_7  and  C_8
REMARK    7  A    between atoms: C_14  and  C_15
REMARK    8  A    between atoms: C_15  and  O_16
REMARK    9  A    between atoms: O_16  and  C_17
REMARK   10  A    between atoms: C_21  and  C_22
REMARK   11  A    between atoms: C_22  and  C_24
REMARK   12  A    between atoms: C_25  and  C_26
REMARK   13  A    between atoms: C_29  and  C_30
REMARK                            x       y       z     vdW  Elec       q    Type
REMARK                         _______ _______ _______ _____ _____    ______ ____
ROOT
ATOM      1  C   UNL     1       2.284   7.964  19.185  0.00  0.00    +0.000 A 
ATOM      2  C   UNL     1       1.818   8.628  18.049  0.00  0.00    +0.000 A 
ATOM      3  C   UNL     1       0.842   9.617  18.153  0.00  0.00    +0.000 A 
ATOM      4  C   UNL     1       0.357   9.981  19.407  0.00  0.00    +0.000 A 
ATOM      5  C   UNL     1       0.853   9.359  20.560  0.00  0.00    +0.000 A 
ATOM      6  C   UNL     1       1.792   8.321  20.444  0.00  0.00    +0.000 A 
ENDROOT
BRANCH   5   7
ATOM      7  C   UNL     1       0.366   9.863  21.875  0.00  0.00    +0.000 C 
ATOM      8  O   UNL     1       0.830   9.410  22.917  0.00  0.00    +0.000 OA
BRANCH   7   9
ATOM      9  C   UNL     1      -0.733  10.868  21.872  0.00  0.00    +0.000 C 
ATOM     10  C   UNL     1      -0.919  11.667  22.935  0.00  0.00    +0.000 C 
BRANCH  10  11
ATOM     11  C   UNL     1      -1.967  12.697  23.008  0.00  0.00    +0.000 A 
ATOM     12  C   UNL     1      -3.302  12.338  22.778  0.00  0.00    +0.000 A 
ATOM     13  C   UNL     1      -4.327  13.283  22.900  0.00  0.00    +0.000 A 
ATOM     14  C   UNL     1      -4.038  14.601  23.266  0.00  0.00    +0.000 A 
ATOM     15  C   UNL     1      -5.125  15.620  23.435  0.00  0.00    +0.000 C 
ATOM     16  C   UNL     1      -2.707  14.961  23.500  0.00  0.00    +0.000 A 
ATOM     17  C   UNL     1      -1.684  14.017  23.379  0.00  0.00    +0.000 A 
ENDBRANCH  10  11
ENDBRANCH   7   9
ENDBRANCH   5   7
BRANCH   1  18
ATOM     18  O   UNL     1       3.277   7.051  18.948  0.00  0.00    +0.000 OA
BRANCH  18  19
ATOM     19  C   UNL     1       3.301   6.383  17.680  0.00  0.00    +0.000 C 
BRANCH  19  25
ATOM     20  C   UNL     1       4.047   3.986  17.233  0.00  0.00    +0.000 A 
ATOM     21  C   UNL     1       3.788   2.604  17.226  0.00  0.00    +0.000 A 
ATOM     22  C   UNL     1       2.590   2.102  17.728  0.00  0.00    +0.000 A 
ATOM     23  C   UNL     1       1.648   2.971  18.264  0.00  0.00    +0.000 A 
ATOM     24  C   UNL     1       1.894   4.345  18.280  0.00  0.00    +0.000 A 
ATOM     25  C   UNL     1       3.079   4.881  17.738  0.00  0.00    +0.000 A 
BRANCH  20  27
ATOM     26  C   UNL     1       6.395   4.625  17.535  0.00  0.00    +0.000 C 
ATOM     27  C   UNL     1       5.355   4.430  16.705  0.00  0.00    +0.000 C 
BRANCH  26  29
ATOM     28  C   UNL     1       6.871   5.454  19.660  0.00  0.00    +0.000 C 
ATOM     29  O   UNL     1       6.322   4.390  18.887  0.00  0.00    +0.000 OA
ENDBRANCH  26  29
BRANCH  27  30
ATOM     30  C   UNL     1       5.558   4.751  15.260  0.00  0.00    +0.000 C 
ATOM     31  O   UNL     1       5.463   5.871  14.779  0.00  0.00    +0.000 OA
BRANCH  30  32
ATOM     32  O   UNL     1       5.853   3.618  14.570  0.00  0.00    +0.000 OA
ATOM     33  C   UNL     1       6.250   3.825  13.215  0.00  0.00    +0.000 C 
ENDBRANCH  30  32
ENDBRANCH  27  30
ENDBRANCH  20  27
ENDBRANCH  19  25
ENDBRANCH  18  19
ENDBRANCH   1  18
TORSDOF 10
ENDMDL
MODEL 6
REMARK VINA RESULT:      -8.1      3.411      9.841
REMARK  Name = 
REMARK  13 active torsions:
REMARK  status: ('A' for Active; 'I' for Inactive)
REMARK    1  A    between atoms: C_1  and  O_2
REMARK    2  A    between atoms: O_2  and  C_3
REMARK    3  A    between atoms: C_4  and  C_5
REMARK    4  A    between atoms: C_4  and  C_9
REMARK    5  A    between atoms: C_5  and  O_7
REMARK    6  A    between atoms: O_7  and  C_8
REMARK    7  A    between atoms: C_14  and  C_15
REMARK    8  A    between atoms: C_15  and  O_16
REMARK    9  A    between atoms: O_16  and  C_17
REMARK   10  A    between atoms: C_21  and  C_22
REMARK   11  A    between atoms: C_22  and  C_24
REMARK   12  A    between atoms: C_25  and  C_26
REMARK   13  A    between atoms: C_29  and  C_30
REMARK                            x       y       z     vdW  Elec       q    Type
REMARK                         _______ _______ _______ _____ _____    ______ ____
ROOT
ATOM      1  C   UNL     1       3.121   7.073  17.691  0.00  0.00    +0.000 A 
ATOM      2  C   UNL     1       2.932   5.855  18.346  0.00  0.00    +0.000 A 
ATOM      3  C   UNL     1       4.000   4.982  18.546  0.00  0.00    +0.000 A 
ATOM      4  C   UNL     1       5.279   5.347  18.130  0.00  0.00    +0.000 A 
ATOM      5  C   UNL     1       5.491   6.589  17.518  0.00  0.00    +0.000 A 
ATOM      6  C   UNL     1       4.401   7.437  17.265  0.00  0.00    +0.000 A 
ENDROOT
BRANCH   5   7
ATOM      7  C   UNL     1       6.896   6.960  17.188  0.00  0.00    +0.000 C 
ATOM      8  O   UNL     1       7.478   6.400  16.264  0.00  0.00    +0.000 OA
BRANCH   7   9
ATOM      9  C   UNL     1       7.572   7.967  18.052  0.00  0.00    +0.000 C 
ATOM     10  C   UNL     1       8.062   9.096  17.515  0.00  0.00    +0.000 C 
BRANCH  10  11
ATOM     11  C   UNL     1       8.726  10.151  18.297  0.00  0.00    +0.000 A 
ATOM     12  C   UNL     1       8.801  11.449  17.776  0.00  0.00    +0.000 A 
ATOM     13  C   UNL     1       9.372  12.487  18.521  0.00  0.00    +0.000 A 
ATOM     14  C   UNL     1       9.869  12.247  19.806  0.00  0.00    +0.000 A 
ATOM     15  C   UNL     1      10.455  13.351  20.634  0.00  0.00    +0.000 C 
ATOM     16  C   UNL     1       9.793  10.953  20.330  0.00  0.00    +0.000 A 
ATOM     17  C   UNL     1       9.221   9.917  19.585  0.00  0.00    +0.000 A 
ENDBRANCH  10  11
ENDBRANCH   7   9
ENDBRANCH   5   7
BRANCH   1  18
ATOM     18  O   UNL     1       2.000   7.855  17.604  0.00  0.00    +0.000 OA
BRANCH  18  19
ATOM     19  C   UNL     1       2.005   9.131  18.258  0.00  0.00    +0.000 C 
BRANCH  19  25
ATOM     20  C   UNL     1       0.196  10.137  19.747  0.00  0.00    +0.000 A 
ATOM     21  C   UNL     1      -0.459  10.226  20.988  0.00  0.00    +0.000 A 
ATOM     22  C   UNL     1      -0.115   9.378  22.038  0.00  0.00    +0.000 A 
ATOM     23  C   UNL     1       0.871   8.416  21.853  0.00  0.00    +0.000 A 
ATOM     24  C   UNL     1       1.526   8.315  20.625  0.00  0.00    +0.000 A 
ATOM     25  C   UNL     1       1.227   9.190  19.562  0.00  0.00    +0.000 A 
BRANCH  20  27
ATOM     26  C   UNL     1       0.302  12.277  18.555  0.00  0.00    +0.000 C 
ATOM     27  C   UNL     1      -0.252  11.058  18.680  0.00  0.00    +0.000 C 
BRANCH  26  29
ATOM     28  C   UNL     1       2.536  12.935  18.651  0.00  0.00    +0.000 C 
ATOM     29  O   UNL     1       1.321  12.719  19.365  0.00  0.00    +0.000 OA
ENDBRANCH  26  29
BRANCH  27  30
ATOM     30  C   UNL     1      -1.372  10.713  17.755  0.00  0.00    +0.000 C 
ATOM     31  O   UNL     1      -1.465   9.659  17.143  0.00  0.00    +0.000 OA
BRANCH  30  32
ATOM     32  O   UNL     1      -2.258  11.742  17.694  0.00  0.00    +0.000 OA
ATOM     33  C   UNL     1      -3.436  11.570  18.481  0.00  0.00    +0.000 C 
ENDBRANCH  30  32
ENDBRANCH  27  30
ENDBRANCH  20  27
ENDBRANCH  19  25
ENDBRANCH  18  19
ENDBRANCH   1  18
TORSDOF 10
ENDMDL
MODEL 7
REMARK VINA RESULT:      -7.9      1.451      2.769
REMARK  Name = 
REMARK  13 active torsions:
REMARK  status: ('A' for Active; 'I' for Inactive)
REMARK    1  A    between atoms: C_1  and  O_2
REMARK    2  A    between atoms: O_2  and  C_3
REMARK    3  A    between atoms: C_4  and  C_5
REMARK    4  A    between atoms: C_4  and  C_9
REMARK    5  A    between atoms: C_5  and  O_7
REMARK    6  A    between atoms: O_7  and  C_8
REMARK    7  A    between atoms: C_14  and  C_15
REMARK    8  A    between atoms: C_15  and  O_16
REMARK    9  A    between atoms: O_16  and  C_17
REMARK   10  A    between atoms: C_21  and  C_22
REMARK   11  A    between atoms: C_22  and  C_24
REMARK   12  A    between atoms: C_25  and  C_26
REMARK   13  A    between atoms: C_29  and  C_30
REMARK                            x       y       z     vdW  Elec       q    Type
REMARK                         _______ _______ _______ _____ _____    ______ ____
ROOT
ATOM      1  C   UNL     1       1.726   8.414  18.951  0.00  0.00    +0.000 A 
ATOM      2  C   UNL     1       1.639   7.882  20.239  0.00  0.00    +0.000 A 
ATOM      3  C   UNL     1       1.248   8.678  21.314  0.00  0.00    +0.000 A 
ATOM      4  C   UNL     1       0.895  10.009  21.096  0.00  0.00    +0.000 A 
ATOM      5  C   UNL     1       0.929  10.542  19.801  0.00  0.00    +0.000 A 
ATOM      6  C   UNL     1       1.382   9.751  18.732  0.00  0.00    +0.000 A 
ENDROOT
BRANCH   5   7
ATOM      7  C   UNL     1       0.445  11.940  19.621  0.00  0.00    +0.000 C 
ATOM      8  O   UNL     1       0.962  12.665  18.778  0.00  0.00    +0.000 OA
BRANCH   7   9
ATOM      9  C   UNL     1      -0.622  12.430  20.537  0.00  0.00    +0.000 C 
ATOM     10  C   UNL     1      -1.898  12.057  20.346  0.00  0.00    +0.000 C 
BRANCH  10  11
ATOM     11  C   UNL     1      -3.010  12.478  21.212  0.00  0.00    +0.000 A 
ATOM     12  C   UNL     1      -2.900  12.319  22.599  0.00  0.00    +0.000 A 
ATOM     13  C   UNL     1      -3.916  12.767  23.453  0.00  0.00    +0.000 A 
ATOM     14  C   UNL     1      -5.054  13.392  22.935  0.00  0.00    +0.000 A 
ATOM     15  C   UNL     1      -6.138  13.907  23.834  0.00  0.00    +0.000 C 
ATOM     16  C   UNL     1      -5.165  13.555  21.551  0.00  0.00    +0.000 A 
ATOM     17  C   UNL     1      -4.151  13.109  20.699  0.00  0.00    +0.000 A 
ENDBRANCH  10  11
ENDBRANCH   7   9
ENDBRANCH   5   7
BRANCH   1  18
ATOM     18  O   UNL     1       2.075   7.512  17.982  0.00  0.00    +0.000 OA
BRANCH  18  19
ATOM     19  C   UNL     1       3.271   6.743  18.163  0.00  0.00    +0.000 C 
BRANCH  19  25
ATOM     20  C   UNL     1       4.018   4.413  17.445  0.00  0.00    +0.000 A 
ATOM     21  C   UNL     1       3.785   3.030  17.342  0.00  0.00    +0.000 A 
ATOM     22  C   UNL     1       2.647   2.455  17.903  0.00  0.00    +0.000 A 
ATOM     23  C   UNL     1       1.741   3.251  18.593  0.00  0.00    +0.000 A 
ATOM     24  C   UNL     1       1.962   4.624  18.706  0.00  0.00    +0.000 A 
ATOM     25  C   UNL     1       3.083   5.236  18.110  0.00  0.00    +0.000 A 
BRANCH  20  27
ATOM     26  C   UNL     1       6.382   5.048  17.582  0.00  0.00    +0.000 C 
ATOM     27  C   UNL     1       5.264   4.935  16.844  0.00  0.00    +0.000 C 
BRANCH  26  29
ATOM     28  C   UNL     1       7.280   5.507  19.684  0.00  0.00    +0.000 C 
ATOM     29  O   UNL     1       6.448   4.657  18.898  0.00  0.00    +0.000 OA
ENDBRANCH  26  29
BRANCH  27  30
ATOM     30  C   UNL     1       5.318   5.423  15.434  0.00  0.00    +0.000 C 
ATOM     31  O   UNL     1       5.389   6.600  15.111  0.00  0.00    +0.000 OA
BRANCH  30  32
ATOM     32  O   UNL     1       5.270   4.371  14.576  0.00  0.00    +0.000 OA
ATOM     33  C   UNL     1       6.505   4.061  13.932  0.00  0.00    +0.000 C 
ENDBRANCH  30  32
ENDBRANCH  27  30
ENDBRANCH  20  27
ENDBRANCH  19  25
ENDBRANCH  18  19
ENDBRANCH   1  18
TORSDOF 10
ENDMDL
MODEL 8
REMARK VINA RESULT:      -7.8      3.504      9.762
REMARK  Name = 
REMARK  13 active torsions:
REMARK  status: ('A' for Active; 'I' for Inactive)
REMARK    1  A    between atoms: C_1  and  O_2
REMARK    2  A    between atoms: O_2  and  C_3
REMARK    3  A    between atoms: C_4  and  C_5
REMARK    4  A    between atoms: C_4  and  C_9
REMARK    5  A    between atoms: C_5  and  O_7
REMARK    6  A    between atoms: O_7  and  C_8
REMARK    7  A    between atoms: C_14  and  C_15
REMARK    8  A    between atoms: C_15  and  O_16
REMARK    9  A    between atoms: O_16  and  C_17
REMARK   10  A    between atoms: C_21  and  C_22
REMARK   11  A    between atoms: C_22  and  C_24
REMARK   12  A    between atoms: C_25  and  C_26
REMARK   13  A    between atoms: C_29  and  C_30
REMARK                            x       y       z     vdW  Elec       q    Type
REMARK                         _______ _______ _______ _____ _____    ______ ____
ROOT
ATOM      1  C   UNL     1       3.123   7.192  17.871  0.00  0.00    +0.000 A 
ATOM      2  C   UNL     1       3.035   6.009  18.608  0.00  0.00    +0.000 A 
ATOM      3  C   UNL     1       4.159   5.211  18.810  0.00  0.00    +0.000 A 
ATOM      4  C   UNL     1       5.396   5.619  18.312  0.00  0.00    +0.000 A 
ATOM      5  C   UNL     1       5.508   6.830  17.616  0.00  0.00    +0.000 A 
ATOM      6  C   UNL     1       4.360   7.599  17.363  0.00  0.00    +0.000 A 
ENDROOT
BRANCH   5   7
ATOM      7  C   UNL     1       6.873   7.256  17.197  0.00  0.00    +0.000 C 
ATOM      8  O   UNL     1       7.603   6.475  16.597  0.00  0.00    +0.000 OA
BRANCH   7   9
ATOM      9  C   UNL     1       7.327   8.619  17.590  0.00  0.00    +0.000 C 
ATOM     10  C   UNL     1       8.452   8.773  18.307  0.00  0.00    +0.000 C 
BRANCH  10  11
ATOM     11  C   UNL     1       8.983  10.082  18.722  0.00  0.00    +0.000 A 
ATOM     12  C   UNL     1       9.334  10.287  20.063  0.00  0.00    +0.000 A 
ATOM     13  C   UNL     1       9.897  11.500  20.476  0.00  0.00    +0.000 A 
ATOM     14  C   UNL     1      10.131  12.525  19.553  0.00  0.00    +0.000 A 
ATOM     15  C   UNL     1      10.764  13.819  19.969  0.00  0.00    +0.000 C 
ATOM     16  C   UNL     1       9.785  12.321  18.214  0.00  0.00    +0.000 A 
ATOM     17  C   UNL     1       9.223  11.109  17.802  0.00  0.00    +0.000 A 
ENDBRANCH  10  11
ENDBRANCH   7   9
ENDBRANCH   5   7
BRANCH   1  18
ATOM     18  O   UNL     1       1.956   7.904  17.791  0.00  0.00    +0.000 OA
BRANCH  18  19
ATOM     19  C   UNL     1       1.913   9.215  18.370  0.00  0.00    +0.000 C 
BRANCH  19  25
ATOM     20  C   UNL     1       0.260  10.381  19.922  0.00  0.00    +0.000 A 
ATOM     21  C   UNL     1      -0.371  10.498  21.172  0.00  0.00    +0.000 A 
ATOM     22  C   UNL     1      -0.137   9.564  22.179  0.00  0.00    +0.000 A 
ATOM     23  C   UNL     1       0.712   8.491  21.940  0.00  0.00    +0.000 A 
ATOM     24  C   UNL     1       1.343   8.360  20.702  0.00  0.00    +0.000 A 
ATOM     25  C   UNL     1       1.156   9.316  19.683  0.00  0.00    +0.000 A 
BRANCH  20  27
ATOM     26  C   UNL     1      -0.986  11.148  17.954  0.00  0.00    +0.000 C 
ATOM     27  C   UNL     1      -0.066  11.401  18.902  0.00  0.00    +0.000 C 
BRANCH  26  29
ATOM     28  C   UNL     1      -2.453   9.842  16.700  0.00  0.00    +0.000 C 
ATOM     29  O   UNL     1      -1.693   9.971  17.899  0.00  0.00    +0.000 OA
ENDBRANCH  26  29
BRANCH  27  30
ATOM     30  C   UNL     1       0.652  12.708  18.833  0.00  0.00    +0.000 C 
ATOM     31  O   UNL     1       0.247  13.749  19.330  0.00  0.00    +0.000 OA
BRANCH  30  32
ATOM     32  O   UNL     1       1.808  12.566  18.133  0.00  0.00    +0.000 OA
ATOM     33  C   UNL     1       2.853  13.463  18.506  0.00  0.00    +0.000 C 
ENDBRANCH  30  32
ENDBRANCH  27  30
ENDBRANCH  20  27
ENDBRANCH  19  25
ENDBRANCH  18  19
ENDBRANCH   1  18
TORSDOF 10
ENDMDL
MODEL 9
REMARK VINA RESULT:      -7.8      3.107      3.934
REMARK  Name = 
REMARK  13 active torsions:
REMARK  status: ('A' for Active; 'I' for Inactive)
REMARK    1  A    between atoms: C_1  and  O_2
REMARK    2  A    between atoms: O_2  and  C_3
REMARK    3  A    between atoms: C_4  and  C_5
REMARK    4  A    between atoms: C_4  and  C_9
REMARK    5  A    between atoms: C_5  and  O_7
REMARK    6  A    between atoms: O_7  and  C_8
REMARK    7  A    between atoms: C_14  and  C_15
REMARK    8  A    between atoms: C_15  and  O_16
REMARK    9  A    between atoms: O_16  and  C_17
REMARK   10  A    between atoms: C_21  and  C_22
REMARK   11  A    between atoms: C_22  and  C_24
REMARK   12  A    between atoms: C_25  and  C_26
REMARK   13  A    between atoms: C_29  and  C_30
REMARK                            x       y       z     vdW  Elec       q    Type
REMARK                         _______ _______ _______ _____ _____    ______ ____
ROOT
ATOM      1  C   UNL     1       1.730   8.539  19.035  0.00  0.00    +0.000 A 
ATOM      2  C   UNL     1       1.894   7.751  20.177  0.00  0.00    +0.000 A 
ATOM      3  C   UNL     1       1.441   8.194  21.418  0.00  0.00    +0.000 A 
ATOM      4  C   UNL     1       0.774   9.414  21.516  0.00  0.00    +0.000 A 
ATOM      5  C   UNL     1       0.556  10.190  20.370  0.00  0.00    +0.000 A 
ATOM      6  C   UNL     1       1.069   9.767  19.133  0.00  0.00    +0.000 A 
ENDROOT
BRANCH   5   7
ATOM      7  C   UNL     1      -0.249  11.434  20.526  0.00  0.00    +0.000 C 
ATOM      8  O   UNL     1      -1.161  11.477  21.345  0.00  0.00    +0.000 OA
BRANCH   7   9
ATOM      9  C   UNL     1       0.051  12.575  19.617  0.00  0.00    +0.000 C 
ATOM     10  C   UNL     1       0.038  13.833  20.088  0.00  0.00    +0.000 C 
BRANCH  10  11
ATOM     11  C   UNL     1       0.339  15.015  19.265  0.00  0.00    +0.000 A 
ATOM     12  C   UNL     1      -0.699  15.883  18.902  0.00  0.00    +0.000 A 
ATOM     13  C   UNL     1      -0.435  17.048  18.172  0.00  0.00    +0.000 A 
ATOM     14  C   UNL     1       0.874  17.372  17.802  0.00  0.00    +0.000 A 
ATOM     15  C   UNL     1       1.182  18.631  17.049  0.00  0.00    +0.000 C 
ATOM     16  C   UNL     1       1.913  16.510  18.166  0.00  0.00    +0.000 A 
ATOM     17  C   UNL     1       1.648  15.347  18.896  0.00  0.00    +0.000 A 
ENDBRANCH  10  11
ENDBRANCH   7   9
ENDBRANCH   5   7
BRANCH   1  18
ATOM     18  O   UNL     1       2.176   7.964  17.875  0.00  0.00    +0.000 OA
BRANCH  18  19
ATOM     19  C   UNL     1       3.363   7.162  17.923  0.00  0.00    +0.000 C 
BRANCH  19  25
ATOM     20  C   UNL     1       4.198   4.791  17.495  0.00  0.00    +0.000 A 
ATOM     21  C   UNL     1       3.949   3.418  17.321  0.00  0.00    +0.000 A 
ATOM     22  C   UNL     1       2.664   2.902  17.474  0.00  0.00    +0.000 A 
ATOM     23  C   UNL     1       1.618   3.747  17.824  0.00  0.00    +0.000 A 
ATOM     24  C   UNL     1       1.853   5.111  18.004  0.00  0.00    +0.000 A 
ATOM     25  C   UNL     1       3.134   5.664  17.812  0.00  0.00    +0.000 A 
BRANCH  20  27
ATOM     26  C   UNL     1       6.114   5.455  16.117  0.00  0.00    +0.000 C 
ATOM     27  C   UNL     1       5.595   5.249  17.341  0.00  0.00    +0.000 C 
BRANCH  26  29
ATOM     28  C   UNL     1       5.851   4.217  14.160  0.00  0.00    +0.000 C 
ATOM     29  O   UNL     1       5.384   5.298  14.963  0.00  0.00    +0.000 OA
ENDBRANCH  26  29
BRANCH  27  30
ATOM     30  C   UNL     1       6.504   5.427  18.512  0.00  0.00    +0.000 C 
ATOM     31  O   UNL     1       6.187   5.213  19.673  0.00  0.00    +0.000 OA
BRANCH  30  32
ATOM     32  O   UNL     1       7.720   5.864  18.094  0.00  0.00    +0.000 OA
ATOM     33  C   UNL     1       8.092   7.157  18.569  0.00  0.00    +0.000 C 
ENDBRANCH  30  32
ENDBRANCH  27  30
ENDBRANCH  20  27
ENDBRANCH  19  25
ENDBRANCH  18  19
ENDBRANCH   1  18
TORSDOF 10
ENDMDL
