MODEL 1
REMARK VINA RESULT:      -9.3      0.000      0.000
REMARK  Name = 
REMARK  9 active torsions:
REMARK  status: ('A' for Active; 'I' for Inactive)
REMARK    1  A    between atoms: C_1  and  C_2
REMARK    2  A    between atoms: C_2  and  C_3
REMARK    3  A    between atoms: C_3  and  C_4
REMARK    4  A    between atoms: C_4  and  C_5
REMARK    5  A    between atoms: N_7  and  C_8
REMARK    6  A    between atoms: C_8  and  C_9
REMARK    7  A    between atoms: C_8  and  C_16
REMARK    8  A    between atoms: C_12  and  C_13
REMARK    9  A    between atoms: C_25  and  O_26
REMARK                            x       y       z     vdW  Elec       q    Type
REMARK                         _______ _______ _______ _____ _____    ______ ____
ROOT
ATOM      1  C   UNL     1       5.578   4.539  17.047  0.00  0.00    +0.000 C 
ENDROOT
BRANCH   1   2
ATOM      2  C   UNL     1       4.362   4.336  17.940  0.00  0.00    +0.000 A 
ATOM      3  C   UNL     1       3.136   4.904  17.551  0.00  0.00    +0.000 A 
ATOM      4  C   UNL     1       1.975   4.695  18.301  0.00  0.00    +0.000 A 
ATOM      5  C   UNL     1       2.015   3.906  19.463  0.00  0.00    +0.000 A 
ATOM      6  C   UNL     1       0.873   3.653  20.234  0.00  0.00    +0.000 A 
ATOM      7  C   UNL     1       0.970   2.857  21.371  0.00  0.00    +0.000 A 
ATOM      8  C   UNL     1       2.211   2.343  21.700  0.00  0.00    +0.000 A 
ATOM      9  N   UNL     1       3.334   2.561  20.984  0.00  0.00    +0.000 NA
ATOM     10  C   UNL     1       3.227   3.333  19.879  0.00  0.00    +0.000 A 
ATOM     11  C   UNL     1       4.369   3.558  19.109  0.00  0.00    +0.000 A 
BRANCH  11  12
ATOM     12  O   UNL     1       5.537   2.952  19.536  0.00  0.00    +0.000 OA
ATOM     13  H   UNL     1       6.235   3.576  19.233  0.00  0.00    +0.000 HD
ENDBRANCH  11  12
ENDBRANCH   1   2
BRANCH   1  14
ATOM     14  C   UNL     1       6.364   5.792  17.423  0.00  0.00    +0.000 A 
ATOM     15  C   UNL     1       6.033   7.052  16.897  0.00  0.00    +0.000 A 
ATOM     16  C   UNL     1       6.781   8.186  17.218  0.00  0.00    +0.000 A 
ATOM     17  C   UNL     1       7.880   8.089  18.075  0.00  0.00    +0.000 A 
ATOM     18  C   UNL     1       8.716   9.291  18.396  0.00  0.00    +0.000 C 
ATOM     19  C   UNL     1       8.203   6.842  18.624  0.00  0.00    +0.000 A 
ATOM     20  C   UNL     1       7.454   5.706  18.301  0.00  0.00    +0.000 A 
ENDBRANCH   1  14
BRANCH   1  23
ATOM     21  C   UNL     1       6.228   4.414  14.673  0.00  0.00    +0.000 C 
ATOM     22  O   UNL     1       7.429   4.414  14.920  0.00  0.00    +0.000 OA
ATOM     23  N   UNL     1       5.253   4.566  15.632  0.00  0.00    +0.000 N 
ATOM     24  H   UNL     1       4.346   4.175  15.410  0.00  0.00    +0.000 HD
BRANCH  21  25
ATOM     25  C   UNL     1       5.671   4.324  13.262  0.00  0.00    +0.000 C 
BRANCH  25  26
ATOM     26  C   UNL     1       6.406   3.302  12.397  0.00  0.00    +0.000 C 
BRANCH  26  28
ATOM     27  C   UNL     1       4.149   3.170  11.288  0.00  0.00    +0.000 C 
ATOM     28  C   UNL     1       5.445   2.433  11.582  0.00  0.00    +0.000 C 
ENDBRANCH  26  28
ENDBRANCH  25  26
ENDBRANCH  21  25
ENDBRANCH   1  23
TORSDOF 7
ENDMDL
MODEL 2
REMARK VINA RESULT:      -8.5      2.977      5.627
REMARK  Name = 
REMARK  9 active torsions:
REMARK  status: ('A' for Active; 'I' for Inactive)
REMARK    1  A    between atoms: C_1  and  C_2
REMARK    2  A    between atoms: C_2  and  C_3
REMARK    3  A    between atoms: C_3  and  C_4
REMARK    4  A    between atoms: C_4  and  C_5
REMARK    5  A    between atoms: N_7  and  C_8
REMARK    6  A    between atoms: C_8  and  C_9
REMARK    7  A    between atoms: C_8  and  C_16
REMARK    8  A    between atoms: C_12  and  C_13
REMARK    9  A    between atoms: C_25  and  O_26
REMARK                            x       y       z     vdW  Elec       q    Type
REMARK                         _______ _______ _______ _____ _____    ______ ____
ROOT
ATOM      1  C   UNL     1       4.224   5.061  18.540  0.00  0.00    +0.000 C 
ENDROOT
BRANCH   1   2
ATOM      2  C   UNL     1       3.434   6.357  18.653  0.00  0.00    +0.000 A 
ATOM      3  C   UNL     1       3.435   7.246  17.563  0.00  0.00    +0.000 A 
ATOM      4  C   UNL     1       2.675   8.419  17.589  0.00  0.00    +0.000 A 
ATOM      5  C   UNL     1       1.891   8.729  18.713  0.00  0.00    +0.000 A 
ATOM      6  C   UNL     1       1.099   9.884  18.775  0.00  0.00    +0.000 A 
ATOM      7  C   UNL     1       0.336  10.137  19.910  0.00  0.00    +0.000 A 
ATOM      8  C   UNL     1       0.395   9.226  20.950  0.00  0.00    +0.000 A 
ATOM      9  N   UNL     1       1.143   8.103  20.928  0.00  0.00    +0.000 NA
ATOM     10  C   UNL     1       1.878   7.865  19.818  0.00  0.00    +0.000 A 
ATOM     11  C   UNL     1       2.645   6.700  19.763  0.00  0.00    +0.000 A 
BRANCH  11  12
ATOM     12  O   UNL     1       2.582   5.860  20.860  0.00  0.00    +0.000 OA
ATOM     13  H   UNL     1       1.805   6.202  21.358  0.00  0.00    +0.000 HD
ENDBRANCH  11  12
ENDBRANCH   1   2
BRANCH   1  14
ATOM     14  C   UNL     1       5.106   5.033  17.295  0.00  0.00    +0.000 A 
ATOM     15  C   UNL     1       6.335   5.710  17.251  0.00  0.00    +0.000 A 
ATOM     16  C   UNL     1       7.117   5.710  16.093  0.00  0.00    +0.000 A 
ATOM     17  C   UNL     1       6.688   5.030  14.951  0.00  0.00    +0.000 A 
ATOM     18  C   UNL     1       7.498   5.055  13.690  0.00  0.00    +0.000 C 
ATOM     19  C   UNL     1       5.475   4.332  14.992  0.00  0.00    +0.000 A 
ATOM     20  C   UNL     1       4.692   4.334  16.151  0.00  0.00    +0.000 A 
ENDBRANCH   1  14
BRANCH   1  23
ATOM     21  C   UNL     1       3.739   2.781  19.341  0.00  0.00    +0.000 C 
ATOM     22  O   UNL     1       4.828   2.658  19.892  0.00  0.00    +0.000 OA
ATOM     23  N   UNL     1       3.389   3.874  18.581  0.00  0.00    +0.000 N 
ATOM     24  H   UNL     1       2.398   4.064  18.506  0.00  0.00    +0.000 HD
BRANCH  21  25
ATOM     25  C   UNL     1       2.668   1.703  19.367  0.00  0.00    +0.000 C 
BRANCH  25  26
ATOM     26  C   UNL     1       1.266   2.252  19.110  0.00  0.00    +0.000 C 
BRANCH  26  28
ATOM     27  C   UNL     1       1.361   2.616  21.601  0.00  0.00    +0.000 C 
ATOM     28  C   UNL     1       0.737   3.070  20.291  0.00  0.00    +0.000 C 
ENDBRANCH  26  28
ENDBRANCH  25  26
ENDBRANCH  21  25
ENDBRANCH   1  23
TORSDOF 7
ENDMDL
MODEL 3
REMARK VINA RESULT:      -8.3      1.238      1.325
REMARK  Name = 
REMARK  9 active torsions:
REMARK  status: ('A' for Active; 'I' for Inactive)
REMARK    1  A    between atoms: C_1  and  C_2
REMARK    2  A    between atoms: C_2  and  C_3
REMARK    3  A    between atoms: C_3  and  C_4
REMARK    4  A    between atoms: C_4  and  C_5
REMARK    5  A    between atoms: N_7  and  C_8
REMARK    6  A    between atoms: C_8  and  C_9
REMARK    7  A    between atoms: C_8  and  C_16
REMARK    8  A    between atoms: C_12  and  C_13
REMARK    9  A    between atoms: C_25  and  O_26
REMARK                            x       y       z     vdW  Elec       q    Type
REMARK                         _______ _______ _______ _____ _____    ______ ____
ROOT
ATOM      1  C   UNL     1       6.134   4.905  17.283  0.00  0.00    +0.000 C 
ENDROOT
BRANCH   1   2
ATOM      2  C   UNL     1       4.864   4.682  18.093  0.00  0.00    +0.000 A 
ATOM      3  C   UNL     1       4.411   5.714  18.935  0.00  0.00    +0.000 A 
ATOM      4  C   UNL     1       3.218   5.588  19.651  0.00  0.00    +0.000 A 
ATOM      5  C   UNL     1       2.446   4.420  19.539  0.00  0.00    +0.000 A 
ATOM      6  C   UNL     1       1.233   4.257  20.223  0.00  0.00    +0.000 A 
ATOM      7  C   UNL     1       0.505   3.082  20.068  0.00  0.00    +0.000 A 
ATOM      8  C   UNL     1       1.019   2.105  19.234  0.00  0.00    +0.000 A 
ATOM      9  N   UNL     1       2.180   2.223  18.557  0.00  0.00    +0.000 NA
ATOM     10  C   UNL     1       2.878   3.371  18.713  0.00  0.00    +0.000 A 
ATOM     11  C   UNL     1       4.072   3.527  18.008  0.00  0.00    +0.000 A 
BRANCH  11  12
ATOM     12  O   UNL     1       4.449   2.483  17.182  0.00  0.00    +0.000 OA
ATOM     13  H   UNL     1       5.427   2.579  17.133  0.00  0.00    +0.000 HD
ENDBRANCH  11  12
ENDBRANCH   1   2
BRANCH   1  14
ATOM     14  C   UNL     1       6.866   6.177  17.700  0.00  0.00    +0.000 A 
ATOM     15  C   UNL     1       6.624   7.405  17.063  0.00  0.00    +0.000 A 
ATOM     16  C   UNL     1       7.326   8.556  17.427  0.00  0.00    +0.000 A 
ATOM     17  C   UNL     1       8.288   8.508  18.439  0.00  0.00    +0.000 A 
ATOM     18  C   UNL     1       9.077   9.727  18.812  0.00  0.00    +0.000 C 
ATOM     19  C   UNL     1       8.519   7.294  19.097  0.00  0.00    +0.000 A 
ATOM     20  C   UNL     1       7.817   6.141  18.731  0.00  0.00    +0.000 A 
ENDBRANCH   1  14
BRANCH   1  23
ATOM     21  C   UNL     1       6.942   4.730  14.961  0.00  0.00    +0.000 C 
ATOM     22  O   UNL     1       8.124   4.715  15.290  0.00  0.00    +0.000 OA
ATOM     23  N   UNL     1       5.907   4.913  15.849  0.00  0.00    +0.000 N 
ATOM     24  H   UNL     1       5.010   4.533  15.572  0.00  0.00    +0.000 HD
BRANCH  21  25
ATOM     25  C   UNL     1       6.481   4.625  13.517  0.00  0.00    +0.000 C 
BRANCH  25  26
ATOM     26  C   UNL     1       5.339   3.628  13.329  0.00  0.00    +0.000 C 
BRANCH  26  28
ATOM     27  C   UNL     1       3.995   3.254  11.233  0.00  0.00    +0.000 C 
ATOM     28  C   UNL     1       5.327   3.016  11.926  0.00  0.00    +0.000 C 
ENDBRANCH  26  28
ENDBRANCH  25  26
ENDBRANCH  21  25
ENDBRANCH   1  23
TORSDOF 7
ENDMDL
MODEL 4
REMARK VINA RESULT:      -8.3      3.998      6.200
REMARK  Name = 
REMARK  9 active torsions:
REMARK  status: ('A' for Active; 'I' for Inactive)
REMARK    1  A    between atoms: C_1  and  C_2
REMARK    2  A    between atoms: C_2  and  C_3
REMARK    3  A    between atoms: C_3  and  C_4
REMARK    4  A    between atoms: C_4  and  C_5
REMARK    5  A    between atoms: N_7  and  C_8
REMARK    6  A    between atoms: C_8  and  C_9
REMARK    7  A    between atoms: C_8  and  C_16
REMARK    8  A    between atoms: C_12  and  C_13
REMARK    9  A    between atoms: C_25  and  O_26
REMARK                            x       y       z     vdW  Elec       q    Type
REMARK                         _______ _______ _______ _____ _____    ______ ____
ROOT
ATOM      1  C   UNL     1       3.076   6.065  19.186  0.00  0.00    +0.000 C 
ENDROOT
BRANCH   1   2
ATOM      2  C   UNL     1       2.436   7.444  19.087  0.00  0.00    +0.000 A 
ATOM      3  C   UNL     1       2.429   8.097  17.842  0.00  0.00    +0.000 A 
ATOM      4  C   UNL     1       1.799   9.334  17.681  0.00  0.00    +0.000 A 
ATOM      5  C   UNL     1       1.156   9.947  18.769  0.00  0.00    +0.000 A 
ATOM      6  C   UNL     1       0.495  11.178  18.649  0.00  0.00    +0.000 A 
ATOM      7  C   UNL     1      -0.132  11.735  19.759  0.00  0.00    +0.000 A 
ATOM      8  C   UNL     1      -0.073  11.042  20.955  0.00  0.00    +0.000 A 
ATOM      9  N   UNL     1       0.551   9.856  21.112  0.00  0.00    +0.000 NA
ATOM     10  C   UNL     1       1.154   9.322  20.025  0.00  0.00    +0.000 A 
ATOM     11  C   UNL     1       1.790   8.086  20.155  0.00  0.00    +0.000 A 
BRANCH  11  12
ATOM     12  O   UNL     1       1.741   7.488  21.402  0.00  0.00    +0.000 OA
ATOM     13  H   UNL     1       2.668   7.189  21.541  0.00  0.00    +0.000 HD
ENDBRANCH  11  12
ENDBRANCH   1   2
BRANCH   1  14
ATOM     14  C   UNL     1       4.099   5.827  18.079  0.00  0.00    +0.000 A 
ATOM     15  C   UNL     1       5.238   6.637  17.945  0.00  0.00    +0.000 A 
ATOM     16  C   UNL     1       6.149   6.435  16.906  0.00  0.00    +0.000 A 
ATOM     17  C   UNL     1       5.942   5.414  15.974  0.00  0.00    +0.000 A 
ATOM     18  C   UNL     1       6.890   5.212  14.830  0.00  0.00    +0.000 C 
ATOM     19  C   UNL     1       4.822   4.586  16.112  0.00  0.00    +0.000 A 
ATOM     20  C   UNL     1       3.910   4.790  17.152  0.00  0.00    +0.000 A 
ENDBRANCH   1  14
BRANCH   1  23
ATOM     21  C   UNL     1       1.764   4.356  20.382  0.00  0.00    +0.000 C 
ATOM     22  O   UNL     1       2.349   4.537  21.445  0.00  0.00    +0.000 OA
ATOM     23  N   UNL     1       2.109   4.983  19.206  0.00  0.00    +0.000 N 
ATOM     24  H   UNL     1       1.371   5.077  18.519  0.00  0.00    +0.000 HD
BRANCH  21  25
ATOM     25  C   UNL     1       0.634   3.354  20.217  0.00  0.00    +0.000 C 
BRANCH  25  26
ATOM     26  C   UNL     1       0.905   2.330  19.116  0.00  0.00    +0.000 C 
BRANCH  26  28
ATOM     27  C   UNL     1       3.071   1.692  18.001  0.00  0.00    +0.000 C 
ATOM     28  C   UNL     1       2.260   1.639  19.286  0.00  0.00    +0.000 C 
ENDBRANCH  26  28
ENDBRANCH  25  26
ENDBRANCH  21  25
ENDBRANCH   1  23
TORSDOF 7
ENDMDL
MODEL 5
REMARK VINA RESULT:      -8.1      3.246      5.718
REMARK  Name = 
REMARK  9 active torsions:
REMARK  status: ('A' for Active; 'I' for Inactive)
REMARK    1  A    between atoms: C_1  and  C_2
REMARK    2  A    between atoms: C_2  and  C_3
REMARK    3  A    between atoms: C_3  and  C_4
REMARK    4  A    between atoms: C_4  and  C_5
REMARK    5  A    between atoms: N_7  and  C_8
REMARK    6  A    between atoms: C_8  and  C_9
REMARK    7  A    between atoms: C_8  and  C_16
REMARK    8  A    between atoms: C_12  and  C_13
REMARK    9  A    between atoms: C_25  and  O_26
REMARK                            x       y       z     vdW  Elec       q    Type
REMARK                         _______ _______ _______ _____ _____    ______ ____
ROOT
ATOM      1  C   UNL     1       4.089   5.619  18.896  0.00  0.00    +0.000 C 
ENDROOT
BRANCH   1   2
ATOM      2  C   UNL     1       3.202   6.857  18.864  0.00  0.00    +0.000 A 
ATOM      3  C   UNL     1       3.246   7.690  17.732  0.00  0.00    +0.000 A 
ATOM      4  C   UNL     1       2.407   8.802  17.624  0.00  0.00    +0.000 A 
ATOM      5  C   UNL     1       1.498   9.106  18.651  0.00  0.00    +0.000 A 
ATOM      6  C   UNL     1       0.625  10.200  18.576  0.00  0.00    +0.000 A 
ATOM      7  C   UNL     1      -0.260  10.448  19.620  0.00  0.00    +0.000 A 
ATOM      8  C   UNL     1      -0.239   9.594  20.708  0.00  0.00    +0.000 A 
ATOM      9  N   UNL     1       0.585   8.531  20.818  0.00  0.00    +0.000 NA
ATOM     10  C   UNL     1       1.439   8.296  19.796  0.00  0.00    +0.000 A 
ATOM     11  C   UNL     1       2.287   7.191  19.875  0.00  0.00    +0.000 A 
BRANCH  11  12
ATOM     12  O   UNL     1       2.178   6.402  21.006  0.00  0.00    +0.000 OA
ATOM     13  H   UNL     1       1.780   7.013  21.666  0.00  0.00    +0.000 HD
ENDBRANCH  11  12
ENDBRANCH   1   2
BRANCH   1  14
ATOM     14  C   UNL     1       4.871   5.440  17.597  0.00  0.00    +0.000 A 
ATOM     15  C   UNL     1       4.371   4.662  16.541  0.00  0.00    +0.000 A 
ATOM     16  C   UNL     1       5.111   4.474  15.371  0.00  0.00    +0.000 A 
ATOM     17  C   UNL     1       6.371   5.061  15.230  0.00  0.00    +0.000 A 
ATOM     18  C   UNL     1       7.192   4.834  13.997  0.00  0.00    +0.000 C 
ATOM     19  C   UNL     1       6.868   5.857  16.268  0.00  0.00    +0.000 A 
ATOM     20  C   UNL     1       6.127   6.045  17.439  0.00  0.00    +0.000 A 
ENDBRANCH   1  14
BRANCH   1  23
ATOM     21  C   UNL     1       4.007   3.302  19.732  0.00  0.00    +0.000 C 
ATOM     22  O   UNL     1       5.227   3.206  19.816  0.00  0.00    +0.000 OA
ATOM     23  N   UNL     1       3.364   4.400  19.208  0.00  0.00    +0.000 N 
ATOM     24  H   UNL     1       2.416   4.556  19.527  0.00  0.00    +0.000 HD
BRANCH  21  25
ATOM     25  C   UNL     1       3.056   2.184  20.125  0.00  0.00    +0.000 C 
BRANCH  25  26
ATOM     26  C   UNL     1       1.871   2.676  20.954  0.00  0.00    +0.000 C 
BRANCH  26  28
ATOM     27  C   UNL     1       0.587   2.298  18.820  0.00  0.00    +0.000 C 
ATOM     28  C   UNL     1       0.704   3.142  20.079  0.00  0.00    +0.000 C 
ENDBRANCH  26  28
ENDBRANCH  25  26
ENDBRANCH  21  25
ENDBRANCH   1  23
TORSDOF 7
ENDMDL
MODEL 6
REMARK VINA RESULT:      -7.9      3.548      6.307
REMARK  Name = 
REMARK  9 active torsions:
REMARK  status: ('A' for Active; 'I' for Inactive)
REMARK    1  A    between atoms: C_1  and  C_2
REMARK    2  A    between atoms: C_2  and  C_3
REMARK    3  A    between atoms: C_3  and  C_4
REMARK    4  A    between atoms: C_4  and  C_5
REMARK    5  A    between atoms: N_7  and  C_8
REMARK    6  A    between atoms: C_8  and  C_9
REMARK    7  A    between atoms: C_8  and  C_16
REMARK    8  A    between atoms: C_12  and  C_13
REMARK    9  A    between atoms: C_25  and  O_26
REMARK                            x       y       z     vdW  Elec       q    Type
REMARK                         _______ _______ _______ _____ _____    ______ ____
ROOT
ATOM      1  C   UNL     1       3.581   6.585  17.671  0.00  0.00    +0.000 C 
ENDROOT
BRANCH   1   2
ATOM      2  C   UNL     1       2.696   7.632  18.334  0.00  0.00    +0.000 A 
ATOM      3  C   UNL     1       2.211   8.698  17.555  0.00  0.00    +0.000 A 
ATOM      4  C   UNL     1       1.344   9.650  18.098  0.00  0.00    +0.000 A 
ATOM      5  C   UNL     1       0.939   9.555  19.440  0.00  0.00    +0.000 A 
ATOM      6  C   UNL     1       0.056  10.476  20.020  0.00  0.00    +0.000 A 
ATOM      7  C   UNL     1      -0.318  10.328  21.352  0.00  0.00    +0.000 A 
ATOM      8  C   UNL     1       0.209   9.264  22.061  0.00  0.00    +0.000 A 
ATOM      9  N   UNL     1       1.060   8.355  21.539  0.00  0.00    +0.000 NA
ATOM     10  C   UNL     1       1.414   8.507  20.242  0.00  0.00    +0.000 A 
ATOM     11  C   UNL     1       2.276   7.569  19.673  0.00  0.00    +0.000 A 
BRANCH  11  12
ATOM     12  O   UNL     1       2.699   6.535  20.488  0.00  0.00    +0.000 OA
ATOM     13  H   UNL     1       3.663   6.706  20.584  0.00  0.00    +0.000 HD
ENDBRANCH  11  12
ENDBRANCH   1   2
BRANCH   1  14
ATOM     14  C   UNL     1       3.095   5.165  17.948  0.00  0.00    +0.000 A 
ATOM     15  C   UNL     1       1.759   4.791  17.734  0.00  0.00    +0.000 A 
ATOM     16  C   UNL     1       1.316   3.499  18.026  0.00  0.00    +0.000 A 
ATOM     17  C   UNL     1       2.202   2.547  18.539  0.00  0.00    +0.000 A 
ATOM     18  C   UNL     1       1.731   1.169  18.895  0.00  0.00    +0.000 C 
ATOM     19  C   UNL     1       3.541   2.903  18.733  0.00  0.00    +0.000 A 
ATOM     20  C   UNL     1       3.984   4.197  18.441  0.00  0.00    +0.000 A 
ENDBRANCH   1  14
BRANCH   1  23
ATOM     21  C   UNL     1       5.949   6.901  17.070  0.00  0.00    +0.000 C 
ATOM     22  O   UNL     1       5.736   6.820  15.865  0.00  0.00    +0.000 OA
ATOM     23  N   UNL     1       4.982   6.707  18.029  0.00  0.00    +0.000 N 
ATOM     24  H   UNL     1       5.142   7.160  18.920  0.00  0.00    +0.000 HD
BRANCH  21  25
ATOM     25  C   UNL     1       7.330   7.150  17.654  0.00  0.00    +0.000 C 
BRANCH  25  26
ATOM     26  C   UNL     1       7.784   8.601  17.508  0.00  0.00    +0.000 C 
BRANCH  26  28
ATOM     27  C   UNL     1       9.141  10.486  18.481  0.00  0.00    +0.000 C 
ATOM     28  C   UNL     1       8.718   9.035  18.641  0.00  0.00    +0.000 C 
ENDBRANCH  26  28
ENDBRANCH  25  26
ENDBRANCH  21  25
ENDBRANCH   1  23
TORSDOF 7
ENDMDL
MODEL 7
REMARK VINA RESULT:      -7.9      1.130      1.647
REMARK  Name = 
REMARK  9 active torsions:
REMARK  status: ('A' for Active; 'I' for Inactive)
REMARK    1  A    between atoms: C_1  and  C_2
REMARK    2  A    between atoms: C_2  and  C_3
REMARK    3  A    between atoms: C_3  and  C_4
REMARK    4  A    between atoms: C_4  and  C_5
REMARK    5  A    between atoms: N_7  and  C_8
REMARK    6  A    between atoms: C_8  and  C_9
REMARK    7  A    between atoms: C_8  and  C_16
REMARK    8  A    between atoms: C_12  and  C_13
REMARK    9  A    between atoms: C_25  and  O_26
REMARK                            x       y       z     vdW  Elec       q    Type
REMARK                         _______ _______ _______ _____ _____    ______ ____
ROOT
ATOM      1  C   UNL     1       5.915   4.241  17.103  0.00  0.00    +0.000 C 
ENDROOT
BRANCH   1   2
ATOM      2  C   UNL     1       4.924   3.791  18.168  0.00  0.00    +0.000 A 
ATOM      3  C   UNL     1       5.333   2.828  19.108  0.00  0.00    +0.000 A 
ATOM      4  C   UNL     1       4.484   2.428  20.144  0.00  0.00    +0.000 A 
ATOM      5  C   UNL     1       3.202   2.988  20.265  0.00  0.00    +0.000 A 
ATOM      6  C   UNL     1       2.325   2.631  21.299  0.00  0.00    +0.000 A 
ATOM      7  C   UNL     1       1.069   3.224  21.375  0.00  0.00    +0.000 A 
ATOM      8  C   UNL     1       0.730   4.153  20.408  0.00  0.00    +0.000 A 
ATOM      9  N   UNL     1       1.545   4.525  19.398  0.00  0.00    +0.000 NA
ATOM     10  C   UNL     1       2.765   3.945  19.337  0.00  0.00    +0.000 A 
ATOM     11  C   UNL     1       3.634   4.327  18.314  0.00  0.00    +0.000 A 
BRANCH  11  12
ATOM     12  O   UNL     1       3.178   5.294  17.436  0.00  0.00    +0.000 OA
ATOM     13  H   UNL     1       3.782   6.051  17.606  0.00  0.00    +0.000 HD
ENDBRANCH  11  12
ENDBRANCH   1   2
BRANCH   1  14
ATOM     14  C   UNL     1       6.559   5.581  17.447  0.00  0.00    +0.000 A 
ATOM     15  C   UNL     1       6.145   6.774  16.833  0.00  0.00    +0.000 A 
ATOM     16  C   UNL     1       6.766   7.990  17.127  0.00  0.00    +0.000 A 
ATOM     17  C   UNL     1       7.817   8.042  18.045  0.00  0.00    +0.000 A 
ATOM     18  C   UNL     1       8.519   9.334  18.340  0.00  0.00    +0.000 C 
ATOM     19  C   UNL     1       8.222   6.863  18.681  0.00  0.00    +0.000 A 
ATOM     20  C   UNL     1       7.601   5.645  18.386  0.00  0.00    +0.000 A 
ENDBRANCH   1  14
BRANCH   1  23
ATOM     21  C   UNL     1       6.136   4.227  14.649  0.00  0.00    +0.000 C 
ATOM     22  O   UNL     1       7.360   4.284  14.680  0.00  0.00    +0.000 OA
ATOM     23  N   UNL     1       5.342   4.296  15.771  0.00  0.00    +0.000 N 
ATOM     24  H   UNL     1       4.429   3.864  15.697  0.00  0.00    +0.000 HD
BRANCH  21  25
ATOM     25  C   UNL     1       5.340   4.154  13.356  0.00  0.00    +0.000 C 
BRANCH  25  26
ATOM     26  C   UNL     1       6.068   3.388  12.254  0.00  0.00    +0.000 C 
BRANCH  26  28
ATOM     27  C   UNL     1       3.873   3.214  11.032  0.00  0.00    +0.000 C 
ATOM     28  C   UNL     1       5.129   2.474  11.463  0.00  0.00    +0.000 C 
ENDBRANCH  26  28
ENDBRANCH  25  26
ENDBRANCH  21  25
ENDBRANCH   1  23
TORSDOF 7
ENDMDL
MODEL 8
REMARK VINA RESULT:      -7.9      1.005      1.550
REMARK  Name = 
REMARK  9 active torsions:
REMARK  status: ('A' for Active; 'I' for Inactive)
REMARK    1  A    between atoms: C_1  and  C_2
REMARK    2  A    between atoms: C_2  and  C_3
REMARK    3  A    between atoms: C_3  and  C_4
REMARK    4  A    between atoms: C_4  and  C_5
REMARK    5  A    between atoms: N_7  and  C_8
REMARK    6  A    between atoms: C_8  and  C_9
REMARK    7  A    between atoms: C_8  and  C_16
REMARK    8  A    between atoms: C_12  and  C_13
REMARK    9  A    between atoms: C_25  and  O_26
REMARK                            x       y       z     vdW  Elec       q    Type
REMARK                         _______ _______ _______ _____ _____    ______ ____
ROOT
ATOM      1  C   UNL     1       6.419   5.369  17.189  0.00  0.00    +0.000 C 
ENDROOT
BRANCH   1   2
ATOM      2  C   UNL     1       5.077   5.221  17.893  0.00  0.00    +0.000 A 
ATOM      3  C   UNL     1       4.055   6.142  17.598  0.00  0.00    +0.000 A 
ATOM      4  C   UNL     1       2.785   6.015  18.168  0.00  0.00    +0.000 A 
ATOM      5  C   UNL     1       2.507   4.956  19.048  0.00  0.00    +0.000 A 
ATOM      6  C   UNL     1       1.243   4.779  19.627  0.00  0.00    +0.000 A 
ATOM      7  C   UNL     1       1.022   3.707  20.486  0.00  0.00    +0.000 A 
ATOM      8  C   UNL     1       2.077   2.850  20.741  0.00  0.00    +0.000 A 
ATOM      9  N   UNL     1       3.308   2.985  20.203  0.00  0.00    +0.000 NA
ATOM     10  C   UNL     1       3.510   4.028  19.367  0.00  0.00    +0.000 A 
ATOM     11  C   UNL     1       4.768   4.179  18.781  0.00  0.00    +0.000 A 
BRANCH  11  12
ATOM     12  O   UNL     1       5.721   3.227  19.098  0.00  0.00    +0.000 OA
ATOM     13  H   UNL     1       6.340   3.718  19.684  0.00  0.00    +0.000 HD
ENDBRANCH  11  12
ENDBRANCH   1   2
BRANCH   1  14
ATOM     14  C   UNL     1       7.192   6.591  17.677  0.00  0.00    +0.000 A 
ATOM     15  C   UNL     1       8.006   6.536  18.820  0.00  0.00    +0.000 A 
ATOM     16  C   UNL     1       8.679   7.670  19.280  0.00  0.00    +0.000 A 
ATOM     17  C   UNL     1       8.556   8.888  18.606  0.00  0.00    +0.000 A 
ATOM     18  C   UNL     1       9.241  10.121  19.112  0.00  0.00    +0.000 C 
ATOM     19  C   UNL     1       7.766   8.947  17.452  0.00  0.00    +0.000 A 
ATOM     20  C   UNL     1       7.091   7.811  16.992  0.00  0.00    +0.000 A 
ENDBRANCH   1  14
BRANCH   1  23
ATOM     21  C   UNL     1       6.138   4.245  15.014  0.00  0.00    +0.000 C 
ATOM     22  O   UNL     1       6.235   3.120  15.494  0.00  0.00    +0.000 OA
ATOM     23  N   UNL     1       6.308   5.400  15.742  0.00  0.00    +0.000 N 
ATOM     24  H   UNL     1       5.843   6.225  15.382  0.00  0.00    +0.000 HD
BRANCH  21  25
ATOM     25  C   UNL     1       5.897   4.499  13.535  0.00  0.00    +0.000 C 
BRANCH  25  26
ATOM     26  C   UNL     1       4.807   3.603  12.949  0.00  0.00    +0.000 C 
BRANCH  26  28
ATOM     27  C   UNL     1       5.850   1.842  11.482  0.00  0.00    +0.000 C 
ATOM     28  C   UNL     1       5.118   3.173  11.513  0.00  0.00    +0.000 C 
ENDBRANCH  26  28
ENDBRANCH  25  26
ENDBRANCH  21  25
ENDBRANCH   1  23
TORSDOF 7
ENDMDL
MODEL 9
REMARK VINA RESULT:      -7.8      1.062      1.651
REMARK  Name = 
REMARK  9 active torsions:
REMARK  status: ('A' for Active; 'I' for Inactive)
REMARK    1  A    between atoms: C_1  and  C_2
REMARK    2  A    between atoms: C_2  and  C_3
REMARK    3  A    between atoms: C_3  and  C_4
REMARK    4  A    between atoms: C_4  and  C_5
REMARK    5  A    between atoms: N_7  and  C_8
REMARK    6  A    between atoms: C_8  and  C_9
REMARK    7  A    between atoms: C_8  and  C_16
REMARK    8  A    between atoms: C_12  and  C_13
REMARK    9  A    between atoms: C_25  and  O_26
REMARK                            x       y       z     vdW  Elec       q    Type
REMARK                         _______ _______ _______ _____ _____    ______ ____
ROOT
ATOM      1  C   UNL     1       6.101   5.150  17.221  0.00  0.00    +0.000 C 
ENDROOT
BRANCH   1   2
ATOM      2  C   UNL     1       4.824   5.005  18.039  0.00  0.00    +0.000 A 
ATOM      3  C   UNL     1       3.775   5.916  17.821  0.00  0.00    +0.000 A 
ATOM      4  C   UNL     1       2.559   5.789  18.497  0.00  0.00    +0.000 A 
ATOM      5  C   UNL     1       2.364   4.740  19.411  0.00  0.00    +0.000 A 
ATOM      6  C   UNL     1       1.154   4.562  20.097  0.00  0.00    +0.000 A 
ATOM      7  C   UNL     1       1.014   3.500  20.985  0.00  0.00    +0.000 A 
ATOM      8  C   UNL     1       2.093   2.652  21.160  0.00  0.00    +0.000 A 
ATOM      9  N   UNL     1       3.272   2.787  20.518  0.00  0.00    +0.000 NA
ATOM     10  C   UNL     1       3.396   3.821  19.654  0.00  0.00    +0.000 A 
ATOM     11  C   UNL     1       4.599   3.972  18.963  0.00  0.00    +0.000 A 
BRANCH  11  12
ATOM     12  O   UNL     1       5.581   3.029  19.208  0.00  0.00    +0.000 OA
ATOM     13  H   UNL     1       6.274   3.252  18.546  0.00  0.00    +0.000 HD
ENDBRANCH  11  12
ENDBRANCH   1   2
BRANCH   1  14
ATOM     14  C   UNL     1       6.936   6.347  17.669  0.00  0.00    +0.000 A 
ATOM     15  C   UNL     1       7.818   6.260  18.758  0.00  0.00    +0.000 A 
ATOM     16  C   UNL     1       8.549   7.372  19.184  0.00  0.00    +0.000 A 
ATOM     17  C   UNL     1       8.416   8.599  18.528  0.00  0.00    +0.000 A 
ATOM     18  C   UNL     1       9.164   9.809  19.000  0.00  0.00    +0.000 C 
ATOM     19  C   UNL     1       7.557   8.689  17.427  0.00  0.00    +0.000 A 
ATOM     20  C   UNL     1       6.825   7.576  17.002  0.00  0.00    +0.000 A 
ENDBRANCH   1  14
BRANCH   1  23
ATOM     21  C   UNL     1       5.711   4.083  15.035  0.00  0.00    +0.000 C 
ATOM     22  O   UNL     1       5.928   2.953  15.460  0.00  0.00    +0.000 OA
ATOM     23  N   UNL     1       5.862   5.222  15.791  0.00  0.00    +0.000 N 
ATOM     24  H   UNL     1       5.311   6.022  15.505  0.00  0.00    +0.000 HD
BRANCH  21  25
ATOM     25  C   UNL     1       5.325   4.368  13.593  0.00  0.00    +0.000 C 
BRANCH  25  26
ATOM     26  C   UNL     1       6.271   3.719  12.585  0.00  0.00    +0.000 C 
BRANCH  26  28
ATOM     27  C   UNL     1       7.624   5.683  11.773  0.00  0.00    +0.000 C 
ATOM     28  C   UNL     1       7.649   4.387  12.569  0.00  0.00    +0.000 C 
ENDBRANCH  26  28
ENDBRANCH  25  26
ENDBRANCH  21  25
ENDBRANCH   1  23
TORSDOF 7
ENDMDL
