MODEL 1
REMARK VINA RESULT:      -7.3      0.000      0.000
REMARK  Name = 
REMARK  8 active torsions:
REMARK  status: ('A' for Active; 'I' for Inactive)
REMARK    1  A    between atoms: C_1  and  N_2
REMARK    2  A    between atoms: N_2  and  C_3
REMARK    3  A    between atoms: N_2  and  C_4
REMARK    4  A    between atoms: C_4  and  C_5
REMARK    5  A    between atoms: C_5  and  N_6
REMARK    6  A    between atoms: N_6  and  C_7
REMARK    7  A    between atoms: C_13  and  C_14
REMARK    8  A    between atoms: C_20  and  C_21
REMARK                            x       y       z     vdW  Elec       q    Type
REMARK                         _______ _______ _______ _____ _____    ______ ____
ROOT
ATOM      1  C   UNL     1       0.777   9.623  20.042  0.00  0.00    +0.000 A 
ATOM      2  N   UNL     1       0.711  10.863  19.484  0.00  0.00    +0.000 NA
ATOM      3  C   UNL     1       1.460  11.186  18.395  0.00  0.00    +0.000 A 
ATOM      4  N   UNL     1       2.277  10.258  17.823  0.00  0.00    +0.000 NA
ATOM      5  C   UNL     1       2.357   9.002  18.331  0.00  0.00    +0.000 A 
ATOM      6  N   UNL     1       3.120   8.054  17.730  0.00  0.00    +0.000 NA
ATOM      7  C   UNL     1       3.174   6.767  18.185  0.00  0.00    +0.000 A 
ATOM      8  C   UNL     1       2.444   6.437  19.371  0.00  0.00    +0.000 A 
ATOM      9  N   UNL     1       1.680   7.396  19.949  0.00  0.00    +0.000 NA
ATOM     10  C   UNL     1       1.607   8.659  19.458  0.00  0.00    +0.000 A 
ENDROOT
BRANCH   7  11
ATOM     11  C   UNL     1       3.918   5.766  17.361  0.00  0.00    +0.000 A 
ATOM     12  C   UNL     1       5.124   6.117  16.733  0.00  0.00    +0.000 A 
ATOM     13  C   UNL     1       5.846   5.160  16.003  0.00  0.00    +0.000 A 
ATOM     14  C   UNL     1       5.363   3.855  15.875  0.00  0.00    +0.000 A 
ATOM     15  C   UNL     1       4.143   3.507  16.451  0.00  0.00    +0.000 A 
ATOM     16  C   UNL     1       3.421   4.455  17.172  0.00  0.00    +0.000 A 
ENDBRANCH   7  11
BRANCH   8  17
ATOM     17  C   UNL     1       2.484   5.110  20.050  0.00  0.00    +0.000 A 
ATOM     18  C   UNL     1       3.689   4.393  20.206  0.00  0.00    +0.000 A 
ATOM     19  C   UNL     1       3.695   3.122  20.782  0.00  0.00    +0.000 A 
ATOM     20  C   UNL     1       2.503   2.558  21.235  0.00  0.00    +0.000 A 
ATOM     21  C   UNL     1       1.307   3.273  21.133  0.00  0.00    +0.000 A 
ATOM     22  C   UNL     1       1.297   4.547  20.555  0.00  0.00    +0.000 A 
ENDBRANCH   8  17
BRANCH   1  23
ATOM     23  N   UNL     1       0.014   9.306  21.201  0.00  0.00    +0.000 N 
ATOM     24  H   UNL     1      -0.780   8.653  21.114  0.00  0.00    +0.000 HD
BRANCH  23  25
ATOM     25  C   UNL     1       0.269   9.937  22.479  0.00  0.00    +0.000 C 
BRANCH  25  26
ATOM     26  C   UNL     1      -1.045  10.401  23.132  0.00  0.00    +0.000 C 
BRANCH  26  28
ATOM     27  C   UNL     1      -2.785  12.122  23.179  0.00  0.00    +0.000 C 
ATOM     28  N   UNL     1      -1.606  11.598  22.464  0.00  0.00    +0.000 NA
ATOM     29  C   UNL     1      -0.583  12.653  22.381  0.00  0.00    +0.000 C 
ENDBRANCH  26  28
ENDBRANCH  25  26
ENDBRANCH  23  25
ENDBRANCH   1  23
TORSDOF 6
ENDMDL
MODEL 2
REMARK VINA RESULT:      -7.2      1.852      7.314
REMARK  Name = 
REMARK  8 active torsions:
REMARK  status: ('A' for Active; 'I' for Inactive)
REMARK    1  A    between atoms: C_1  and  N_2
REMARK    2  A    between atoms: N_2  and  C_3
REMARK    3  A    between atoms: N_2  and  C_4
REMARK    4  A    between atoms: C_4  and  C_5
REMARK    5  A    between atoms: C_5  and  N_6
REMARK    6  A    between atoms: N_6  and  C_7
REMARK    7  A    between atoms: C_13  and  C_14
REMARK    8  A    between atoms: C_20  and  C_21
REMARK                            x       y       z     vdW  Elec       q    Type
REMARK                         _______ _______ _______ _____ _____    ______ ____
ROOT
ATOM      1  C   UNL     1       2.900   6.145  19.480  0.00  0.00    +0.000 A 
ATOM      2  N   UNL     1       3.655   5.596  18.488  0.00  0.00    +0.000 NA
ATOM      3  C   UNL     1       3.873   6.259  17.320  0.00  0.00    +0.000 A 
ATOM      4  N   UNL     1       3.358   7.506  17.131  0.00  0.00    +0.000 NA
ATOM      5  C   UNL     1       2.620   8.102  18.102  0.00  0.00    +0.000 A 
ATOM      6  N   UNL     1       2.156   9.368  17.946  0.00  0.00    +0.000 NA
ATOM      7  C   UNL     1       1.460  10.014  18.929  0.00  0.00    +0.000 A 
ATOM      8  C   UNL     1       1.166   9.298  20.133  0.00  0.00    +0.000 A 
ATOM      9  N   UNL     1       1.648   8.039  20.271  0.00  0.00    +0.000 NA
ATOM     10  C   UNL     1       2.372   7.429  19.300  0.00  0.00    +0.000 A 
ENDROOT
BRANCH   7  11
ATOM     11  C   UNL     1       1.133  11.458  18.719  0.00  0.00    +0.000 A 
ATOM     12  C   UNL     1      -0.148  11.842  18.290  0.00  0.00    +0.000 A 
ATOM     13  C   UNL     1      -0.467  13.200  18.143  0.00  0.00    +0.000 A 
ATOM     14  C   UNL     1       0.491  14.184  18.402  0.00  0.00    +0.000 A 
ATOM     15  C   UNL     1       1.780  13.816  18.779  0.00  0.00    +0.000 A 
ATOM     16  C   UNL     1       2.102  12.468  18.921  0.00  0.00    +0.000 A 
ENDBRANCH   7  11
BRANCH   8  17
ATOM     17  C   UNL     1       0.331   9.825  21.250  0.00  0.00    +0.000 A 
ATOM     18  C   UNL     1       0.355   9.241  22.534  0.00  0.00    +0.000 A 
ATOM     19  C   UNL     1      -0.485   9.706  23.547  0.00  0.00    +0.000 A 
ATOM     20  C   UNL     1      -1.343  10.776  23.303  0.00  0.00    +0.000 A 
ATOM     21  C   UNL     1      -1.347  11.398  22.051  0.00  0.00    +0.000 A 
ATOM     22  C   UNL     1      -0.507  10.935  21.033  0.00  0.00    +0.000 A 
ENDBRANCH   8  17
BRANCH   1  23
ATOM     23  N   UNL     1       2.651   5.428  20.684  0.00  0.00    +0.000 N 
ATOM     24  H   UNL     1       3.279   5.569  21.490  0.00  0.00    +0.000 HD
BRANCH  23  25
ATOM     25  C   UNL     1       1.590   4.447  20.782  0.00  0.00    +0.000 C 
BRANCH  25  26
ATOM     26  C   UNL     1       2.167   3.038  21.005  0.00  0.00    +0.000 C 
BRANCH  26  28
ATOM     27  C   UNL     1       0.943   2.678  18.916  0.00  0.00    +0.000 C 
ATOM     28  N   UNL     1       1.996   2.171  19.817  0.00  0.00    +0.000 NA
ATOM     29  C   UNL     1       3.265   2.080  19.075  0.00  0.00    +0.000 C 
ENDBRANCH  26  28
ENDBRANCH  25  26
ENDBRANCH  23  25
ENDBRANCH   1  23
TORSDOF 6
ENDMDL
MODEL 3
REMARK VINA RESULT:      -7.1      1.910      7.345
REMARK  Name = 
REMARK  8 active torsions:
REMARK  status: ('A' for Active; 'I' for Inactive)
REMARK    1  A    between atoms: C_1  and  N_2
REMARK    2  A    between atoms: N_2  and  C_3
REMARK    3  A    between atoms: N_2  and  C_4
REMARK    4  A    between atoms: C_4  and  C_5
REMARK    5  A    between atoms: C_5  and  N_6
REMARK    6  A    between atoms: N_6  and  C_7
REMARK    7  A    between atoms: C_13  and  C_14
REMARK    8  A    between atoms: C_20  and  C_21
REMARK                            x       y       z     vdW  Elec       q    Type
REMARK                         _______ _______ _______ _____ _____    ______ ____
ROOT
ATOM      1  C   UNL     1       3.055   6.227  19.234  0.00  0.00    +0.000 A 
ATOM      2  N   UNL     1       3.826   5.749  18.218  0.00  0.00    +0.000 NA
ATOM      3  C   UNL     1       4.009   6.465  17.076  0.00  0.00    +0.000 A 
ATOM      4  N   UNL     1       3.441   7.695  16.938  0.00  0.00    +0.000 NA
ATOM      5  C   UNL     1       2.684   8.222  17.934  0.00  0.00    +0.000 A 
ATOM      6  N   UNL     1       2.166   9.472  17.830  0.00  0.00    +0.000 NA
ATOM      7  C   UNL     1       1.449  10.050  18.839  0.00  0.00    +0.000 A 
ATOM      8  C   UNL     1       1.192   9.276  20.016  0.00  0.00    +0.000 A 
ATOM      9  N   UNL     1       1.728   8.034  20.103  0.00  0.00    +0.000 NA
ATOM     10  C   UNL     1       2.472   7.493  19.106  0.00  0.00    +0.000 A 
ENDROOT
BRANCH   7  11
ATOM     11  C   UNL     1       1.060  11.485  18.686  0.00  0.00    +0.000 A 
ATOM     12  C   UNL     1       1.982  12.506  18.969  0.00  0.00    +0.000 A 
ATOM     13  C   UNL     1       1.630  13.850  18.775  0.00  0.00    +0.000 A 
ATOM     14  C   UNL     1       0.353  14.189  18.319  0.00  0.00    +0.000 A 
ATOM     15  C   UNL     1      -0.587  13.189  18.083  0.00  0.00    +0.000 A 
ATOM     16  C   UNL     1      -0.244  11.854  18.279  0.00  0.00    +0.000 A 
ENDBRANCH   7  11
BRANCH   8  17
ATOM     17  C   UNL     1       0.342   9.723  21.156  0.00  0.00    +0.000 A 
ATOM     18  C   UNL     1      -0.596  10.768  21.017  0.00  0.00    +0.000 A 
ATOM     19  C   UNL     1      -1.333  11.218  22.112  0.00  0.00    +0.000 A 
ATOM     20  C   UNL     1      -1.164  10.617  23.359  0.00  0.00    +0.000 A 
ATOM     21  C   UNL     1      -0.275   9.549  23.505  0.00  0.00    +0.000 A 
ATOM     22  C   UNL     1       0.466   9.095  22.409  0.00  0.00    +0.000 A 
ENDBRANCH   8  17
BRANCH   1  23
ATOM     23  N   UNL     1       2.843   5.454  20.410  0.00  0.00    +0.000 N 
ATOM     24  H   UNL     1       3.377   5.682  21.262  0.00  0.00    +0.000 HD
BRANCH  23  25
ATOM     25  C   UNL     1       1.958   4.308  20.421  0.00  0.00    +0.000 C 
BRANCH  25  26
ATOM     26  C   UNL     1       2.762   2.996  20.372  0.00  0.00    +0.000 C 
BRANCH  26  28
ATOM     27  C   UNL     1       0.952   2.506  18.797  0.00  0.00    +0.000 C 
ATOM     28  N   UNL     1       2.259   2.074  19.328  0.00  0.00    +0.000 NA
ATOM     29  C   UNL     1       3.227   1.990  18.222  0.00  0.00    +0.000 C 
ENDBRANCH  26  28
ENDBRANCH  25  26
ENDBRANCH  23  25
ENDBRANCH   1  23
TORSDOF 6
ENDMDL
MODEL 4
REMARK VINA RESULT:      -7.0      0.517      1.205
REMARK  Name = 
REMARK  8 active torsions:
REMARK  status: ('A' for Active; 'I' for Inactive)
REMARK    1  A    between atoms: C_1  and  N_2
REMARK    2  A    between atoms: N_2  and  C_3
REMARK    3  A    between atoms: N_2  and  C_4
REMARK    4  A    between atoms: C_4  and  C_5
REMARK    5  A    between atoms: C_5  and  N_6
REMARK    6  A    between atoms: N_6  and  C_7
REMARK    7  A    between atoms: C_13  and  C_14
REMARK    8  A    between atoms: C_20  and  C_21
REMARK                            x       y       z     vdW  Elec       q    Type
REMARK                         _______ _______ _______ _____ _____    ______ ____
ROOT
ATOM      1  C   UNL     1       0.624   9.661  20.165  0.00  0.00    +0.000 A 
ATOM      2  N   UNL     1       0.609  10.926  19.661  0.00  0.00    +0.000 NA
ATOM      3  C   UNL     1       1.406  11.276  18.615  0.00  0.00    +0.000 A 
ATOM      4  N   UNL     1       2.218  10.353  18.030  0.00  0.00    +0.000 NA
ATOM      5  C   UNL     1       2.248   9.074  18.484  0.00  0.00    +0.000 A 
ATOM      6  N   UNL     1       3.008   8.133  17.868  0.00  0.00    +0.000 NA
ATOM      7  C   UNL     1       3.014   6.826  18.266  0.00  0.00    +0.000 A 
ATOM      8  C   UNL     1       2.233   6.464  19.411  0.00  0.00    +0.000 A 
ATOM      9  N   UNL     1       1.473   7.417  20.003  0.00  0.00    +0.000 NA
ATOM     10  C   UNL     1       1.450   8.702  19.568  0.00  0.00    +0.000 A 
ENDROOT
BRANCH   7  11
ATOM     11  C   UNL     1       3.761   5.843  17.424  0.00  0.00    +0.000 A 
ATOM     12  C   UNL     1       4.893   6.245  16.697  0.00  0.00    +0.000 A 
ATOM     13  C   UNL     1       5.622   5.308  15.948  0.00  0.00    +0.000 A 
ATOM     14  C   UNL     1       5.219   3.971  15.902  0.00  0.00    +0.000 A 
ATOM     15  C   UNL     1       4.070   3.569  16.579  0.00  0.00    +0.000 A 
ATOM     16  C   UNL     1       3.340   4.496  17.318  0.00  0.00    +0.000 A 
ENDBRANCH   7  11
BRANCH   8  17
ATOM     17  C   UNL     1       2.215   5.108  20.030  0.00  0.00    +0.000 A 
ATOM     18  C   UNL     1       1.012   4.400  20.232  0.00  0.00    +0.000 A 
ATOM     19  C   UNL     1       1.010   3.162  20.874  0.00  0.00    +0.000 A 
ATOM     20  C   UNL     1       2.210   2.599  21.304  0.00  0.00    +0.000 A 
ATOM     21  C   UNL     1       3.417   3.263  21.070  0.00  0.00    +0.000 A 
ATOM     22  C   UNL     1       3.424   4.505  20.427  0.00  0.00    +0.000 A 
ENDBRANCH   8  17
BRANCH   1  23
ATOM     23  N   UNL     1      -0.188   9.314  21.281  0.00  0.00    +0.000 N 
ATOM     24  H   UNL     1      -0.856   8.533  21.191  0.00  0.00    +0.000 HD
BRANCH  23  25
ATOM     25  C   UNL     1      -0.161  10.077  22.511  0.00  0.00    +0.000 C 
BRANCH  25  26
ATOM     26  C   UNL     1      -1.259  11.155  22.511  0.00  0.00    +0.000 C 
BRANCH  26  28
ATOM     27  C   UNL     1      -0.121  13.260  21.991  0.00  0.00    +0.000 C 
ATOM     28  N   UNL     1      -0.770  12.449  23.040  0.00  0.00    +0.000 NA
ATOM     29  C   UNL     1      -1.890  13.211  23.617  0.00  0.00    +0.000 C 
ENDBRANCH  26  28
ENDBRANCH  25  26
ENDBRANCH  23  25
ENDBRANCH   1  23
TORSDOF 6
ENDMDL
MODEL 5
REMARK VINA RESULT:      -7.0      0.600      1.450
REMARK  Name = 
REMARK  8 active torsions:
REMARK  status: ('A' for Active; 'I' for Inactive)
REMARK    1  A    between atoms: C_1  and  N_2
REMARK    2  A    between atoms: N_2  and  C_3
REMARK    3  A    between atoms: N_2  and  C_4
REMARK    4  A    between atoms: C_4  and  C_5
REMARK    5  A    between atoms: C_5  and  N_6
REMARK    6  A    between atoms: N_6  and  C_7
REMARK    7  A    between atoms: C_13  and  C_14
REMARK    8  A    between atoms: C_20  and  C_21
REMARK                            x       y       z     vdW  Elec       q    Type
REMARK                         _______ _______ _______ _____ _____    ______ ____
ROOT
ATOM      1  C   UNL     1       0.684   9.869  19.848  0.00  0.00    +0.000 A 
ATOM      2  N   UNL     1       0.795  11.114  19.306  0.00  0.00    +0.000 NA
ATOM      3  C   UNL     1       1.688  11.372  18.312  0.00  0.00    +0.000 A 
ATOM      4  N   UNL     1       2.474  10.376  17.819  0.00  0.00    +0.000 NA
ATOM      5  C   UNL     1       2.381   9.115  18.313  0.00  0.00    +0.000 A 
ATOM      6  N   UNL     1       3.117   8.104  17.785  0.00  0.00    +0.000 NA
ATOM      7  C   UNL     1       3.002   6.814  18.222  0.00  0.00    +0.000 A 
ATOM      8  C   UNL     1       2.116   6.546  19.315  0.00  0.00    +0.000 A 
ATOM      9  N   UNL     1       1.384   7.569  19.819  0.00  0.00    +0.000 NA
ATOM     10  C   UNL     1       1.483   8.836  19.344  0.00  0.00    +0.000 A 
ENDROOT
BRANCH   7  11
ATOM     11  C   UNL     1       3.738   5.753  17.469  0.00  0.00    +0.000 A 
ATOM     12  C   UNL     1       3.296   4.421  17.503  0.00  0.00    +0.000 A 
ATOM     13  C   UNL     1       3.960   3.437  16.754  0.00  0.00    +0.000 A 
ATOM     14  C   UNL     1       5.077   3.767  15.983  0.00  0.00    +0.000 A 
ATOM     15  C   UNL     1       5.556   5.075  15.979  0.00  0.00    +0.000 A 
ATOM     16  C   UNL     1       4.904   6.054  16.726  0.00  0.00    +0.000 A 
ENDBRANCH   7  11
BRANCH   8  17
ATOM     17  C   UNL     1       1.959   5.218  19.972  0.00  0.00    +0.000 A 
ATOM     18  C   UNL     1       1.046   4.255  19.490  0.00  0.00    +0.000 A 
ATOM     19  C   UNL     1       0.865   3.045  20.159  0.00  0.00    +0.000 A 
ATOM     20  C   UNL     1       1.607   2.765  21.305  0.00  0.00    +0.000 A 
ATOM     21  C   UNL     1       2.550   3.685  21.770  0.00  0.00    +0.000 A 
ATOM     22  C   UNL     1       2.735   4.900  21.102  0.00  0.00    +0.000 A 
ENDBRANCH   8  17
BRANCH   1  23
ATOM     23  N   UNL     1      -0.230   9.618  20.910  0.00  0.00    +0.000 N 
ATOM     24  H   UNL     1      -1.135   9.172  20.697  0.00  0.00    +0.000 HD
BRANCH  23  25
ATOM     25  C   UNL     1       0.042  10.044  22.267  0.00  0.00    +0.000 C 
BRANCH  25  26
ATOM     26  C   UNL     1      -1.254  10.479  22.973  0.00  0.00    +0.000 C 
BRANCH  26  28
ATOM     27  C   UNL     1      -0.578  12.712  22.232  0.00  0.00    +0.000 C 
ATOM     28  N   UNL     1      -1.265  11.928  23.277  0.00  0.00    +0.000 NA
ATOM     29  C   UNL     1      -2.652  12.405  23.406  0.00  0.00    +0.000 C 
ENDBRANCH  26  28
ENDBRANCH  25  26
ENDBRANCH  23  25
ENDBRANCH   1  23
TORSDOF 6
ENDMDL
MODEL 6
REMARK VINA RESULT:      -7.0      0.523      1.193
REMARK  Name = 
REMARK  8 active torsions:
REMARK  status: ('A' for Active; 'I' for Inactive)
REMARK    1  A    between atoms: C_1  and  N_2
REMARK    2  A    between atoms: N_2  and  C_3
REMARK    3  A    between atoms: N_2  and  C_4
REMARK    4  A    between atoms: C_4  and  C_5
REMARK    5  A    between atoms: C_5  and  N_6
REMARK    6  A    between atoms: N_6  and  C_7
REMARK    7  A    between atoms: C_13  and  C_14
REMARK    8  A    between atoms: C_20  and  C_21
REMARK                            x       y       z     vdW  Elec       q    Type
REMARK                         _______ _______ _______ _____ _____    ______ ____
ROOT
ATOM      1  C   UNL     1       0.808   9.468  19.876  0.00  0.00    +0.000 A 
ATOM      2  N   UNL     1       0.717  10.694  19.289  0.00  0.00    +0.000 NA
ATOM      3  C   UNL     1       1.496  11.025  18.224  0.00  0.00    +0.000 A 
ATOM      4  N   UNL     1       2.371  10.119  17.705  0.00  0.00    +0.000 NA
ATOM      5  C   UNL     1       2.480   8.878  18.243  0.00  0.00    +0.000 A 
ATOM      6  N   UNL     1       3.304   7.950  17.694  0.00  0.00    +0.000 NA
ATOM      7  C   UNL     1       3.391   6.675  18.178  0.00  0.00    +0.000 A 
ATOM      8  C   UNL     1       2.626   6.339  19.341  0.00  0.00    +0.000 A 
ATOM      9  N   UNL     1       1.802   7.278  19.867  0.00  0.00    +0.000 NA
ATOM     10  C   UNL     1       1.700   8.527  19.347  0.00  0.00    +0.000 A 
ENDROOT
BRANCH   7  11
ATOM     11  C   UNL     1       4.206   5.689  17.406  0.00  0.00    +0.000 A 
ATOM     12  C   UNL     1       3.632   4.489  16.955  0.00  0.00    +0.000 A 
ATOM     13  C   UNL     1       4.386   3.589  16.187  0.00  0.00    +0.000 A 
ATOM     14  C   UNL     1       5.721   3.866  15.880  0.00  0.00    +0.000 A 
ATOM     15  C   UNL     1       6.317   5.029  16.362  0.00  0.00    +0.000 A 
ATOM     16  C   UNL     1       5.574   5.922  17.130  0.00  0.00    +0.000 A 
ENDBRANCH   7  11
BRANCH   8  17
ATOM     17  C   UNL     1       2.691   5.029  20.049  0.00  0.00    +0.000 A 
ATOM     18  C   UNL     1       3.866   4.249  20.059  0.00  0.00    +0.000 A 
ATOM     19  C   UNL     1       3.886   2.995  20.670  0.00  0.00    +0.000 A 
ATOM     20  C   UNL     1       2.742   2.509  21.300  0.00  0.00    +0.000 A 
ATOM     21  C   UNL     1       1.582   3.288  21.342  0.00  0.00    +0.000 A 
ATOM     22  C   UNL     1       1.558   4.546  20.731  0.00  0.00    +0.000 A 
ENDBRANCH   8  17
BRANCH   1  23
ATOM     23  N   UNL     1       0.012   9.145  21.010  0.00  0.00    +0.000 N 
ATOM     24  H   UNL     1      -0.742   8.447  20.910  0.00  0.00    +0.000 HD
BRANCH  23  25
ATOM     25  C   UNL     1       0.177   9.825  22.277  0.00  0.00    +0.000 C 
BRANCH  25  26
ATOM     26  C   UNL     1      -0.983  10.805  22.527  0.00  0.00    +0.000 C 
BRANCH  26  28
ATOM     27  C   UNL     1       0.012  12.859  21.641  0.00  0.00    +0.000 C 
ATOM     28  N   UNL     1      -0.501  12.170  22.841  0.00  0.00    +0.000 NA
ATOM     29  C   UNL     1      -1.592  12.966  23.427  0.00  0.00    +0.000 C 
ENDBRANCH  26  28
ENDBRANCH  25  26
ENDBRANCH  23  25
ENDBRANCH   1  23
TORSDOF 6
ENDMDL
MODEL 7
REMARK VINA RESULT:      -6.9      2.571      5.354
REMARK  Name = 
REMARK  8 active torsions:
REMARK  status: ('A' for Active; 'I' for Inactive)
REMARK    1  A    between atoms: C_1  and  N_2
REMARK    2  A    between atoms: N_2  and  C_3
REMARK    3  A    between atoms: N_2  and  C_4
REMARK    4  A    between atoms: C_4  and  C_5
REMARK    5  A    between atoms: C_5  and  N_6
REMARK    6  A    between atoms: N_6  and  C_7
REMARK    7  A    between atoms: C_13  and  C_14
REMARK    8  A    between atoms: C_20  and  C_21
REMARK                            x       y       z     vdW  Elec       q    Type
REMARK                         _______ _______ _______ _____ _____    ______ ____
ROOT
ATOM      1  C   UNL     1       2.119   4.261  19.816  0.00  0.00    +0.000 A 
ATOM      2  N   UNL     1       1.079   3.383  19.761  0.00  0.00    +0.000 NA
ATOM      3  C   UNL     1       0.824   2.663  18.635  0.00  0.00    +0.000 A 
ATOM      4  N   UNL     1       1.627   2.791  17.542  0.00  0.00    +0.000 NA
ATOM      5  C   UNL     1       2.688   3.636  17.559  0.00  0.00    +0.000 A 
ATOM      6  N   UNL     1       3.528   3.722  16.497  0.00  0.00    +0.000 NA
ATOM      7  C   UNL     1       4.637   4.521  16.508  0.00  0.00    +0.000 A 
ATOM      8  C   UNL     1       4.874   5.335  17.663  0.00  0.00    +0.000 A 
ATOM      9  N   UNL     1       4.028   5.224  18.716  0.00  0.00    +0.000 NA
ATOM     10  C   UNL     1       2.954   4.395  18.701  0.00  0.00    +0.000 A 
ENDROOT
BRANCH   7  11
ATOM     11  C   UNL     1       5.580   4.423  15.352  0.00  0.00    +0.000 A 
ATOM     12  C   UNL     1       5.189   3.779  14.168  0.00  0.00    +0.000 A 
ATOM     13  C   UNL     1       6.058   3.734  13.067  0.00  0.00    +0.000 A 
ATOM     14  C   UNL     1       7.328   4.311  13.144  0.00  0.00    +0.000 A 
ATOM     15  C   UNL     1       7.748   4.909  14.330  0.00  0.00    +0.000 A 
ATOM     16  C   UNL     1       6.891   4.951  15.427  0.00  0.00    +0.000 A 
ENDBRANCH   7  11
BRANCH   8  17
ATOM     17  C   UNL     1       5.975   6.331  17.786  0.00  0.00    +0.000 A 
ATOM     18  C   UNL     1       5.915   7.587  17.145  0.00  0.00    +0.000 A 
ATOM     19  C   UNL     1       6.986   8.478  17.217  0.00  0.00    +0.000 A 
ATOM     20  C   UNL     1       8.124   8.141  17.949  0.00  0.00    +0.000 A 
ATOM     21  C   UNL     1       8.182   6.922  18.630  0.00  0.00    +0.000 A 
ATOM     22  C   UNL     1       7.111   6.026  18.560  0.00  0.00    +0.000 A 
ENDBRANCH   8  17
BRANCH   1  23
ATOM     23  N   UNL     1       2.356   5.033  20.988  0.00  0.00    +0.000 N 
ATOM     24  H   UNL     1       3.109   4.746  21.633  0.00  0.00    +0.000 HD
BRANCH  23  25
ATOM     25  C   UNL     1       1.520   6.161  21.342  0.00  0.00    +0.000 C 
BRANCH  25  26
ATOM     26  C   UNL     1       1.868   7.390  20.483  0.00  0.00    +0.000 C 
BRANCH  26  28
ATOM     27  C   UNL     1       1.294   9.178  22.054  0.00  0.00    +0.000 C 
ATOM     28  N   UNL     1       0.974   8.537  20.764  0.00  0.00    +0.000 NA
ATOM     29  C   UNL     1       1.084   9.535  19.688  0.00  0.00    +0.000 C 
ENDBRANCH  26  28
ENDBRANCH  25  26
ENDBRANCH  23  25
ENDBRANCH   1  23
TORSDOF 6
ENDMDL
MODEL 8
REMARK VINA RESULT:      -6.8      2.856      5.972
REMARK  Name = 
REMARK  8 active torsions:
REMARK  status: ('A' for Active; 'I' for Inactive)
REMARK    1  A    between atoms: C_1  and  N_2
REMARK    2  A    between atoms: N_2  and  C_3
REMARK    3  A    between atoms: N_2  and  C_4
REMARK    4  A    between atoms: C_4  and  C_5
REMARK    5  A    between atoms: C_5  and  N_6
REMARK    6  A    between atoms: N_6  and  C_7
REMARK    7  A    between atoms: C_13  and  C_14
REMARK    8  A    between atoms: C_20  and  C_21
REMARK                            x       y       z     vdW  Elec       q    Type
REMARK                         _______ _______ _______ _____ _____    ______ ____
ROOT
ATOM      1  C   UNL     1       2.664   3.276  19.830  0.00  0.00    +0.000 A 
ATOM      2  N   UNL     1       1.702   2.316  19.732  0.00  0.00    +0.000 NA
ATOM      3  C   UNL     1       1.426   1.715  18.543  0.00  0.00    +0.000 A 
ATOM      4  N   UNL     1       2.130   2.047  17.425  0.00  0.00    +0.000 NA
ATOM      5  C   UNL     1       3.112   2.981  17.481  0.00  0.00    +0.000 A 
ATOM      6  N   UNL     1       3.860   3.272  16.386  0.00  0.00    +0.000 NA
ATOM      7  C   UNL     1       4.893   4.166  16.426  0.00  0.00    +0.000 A 
ATOM      8  C   UNL     1       5.146   4.855  17.655  0.00  0.00    +0.000 A 
ATOM      9  N   UNL     1       4.394   4.540  18.739  0.00  0.00    +0.000 NA
ATOM     10  C   UNL     1       3.398   3.620  18.689  0.00  0.00    +0.000 A 
ENDROOT
BRANCH   7  11
ATOM     11  C   UNL     1       5.751   4.296  15.208  0.00  0.00    +0.000 A 
ATOM     12  C   UNL     1       5.324   3.772  13.978  0.00  0.00    +0.000 A 
ATOM     13  C   UNL     1       6.108   3.941  12.827  0.00  0.00    +0.000 A 
ATOM     14  C   UNL     1       7.332   4.613  12.896  0.00  0.00    +0.000 A 
ATOM     15  C   UNL     1       7.791   5.094  14.120  0.00  0.00    +0.000 A 
ATOM     16  C   UNL     1       7.018   4.924  15.266  0.00  0.00    +0.000 A 
ENDBRANCH   7  11
BRANCH   8  17
ATOM     17  C   UNL     1       6.164   5.929  17.831  0.00  0.00    +0.000 A 
ATOM     18  C   UNL     1       6.050   7.173  17.176  0.00  0.00    +0.000 A 
ATOM     19  C   UNL     1       7.048   8.140  17.301  0.00  0.00    +0.000 A 
ATOM     20  C   UNL     1       8.163   7.891  18.099  0.00  0.00    +0.000 A 
ATOM     21  C   UNL     1       8.270   6.683  18.794  0.00  0.00    +0.000 A 
ATOM     22  C   UNL     1       7.272   5.711  18.672  0.00  0.00    +0.000 A 
ENDBRANCH   8  17
BRANCH   1  23
ATOM     23  N   UNL     1       2.922   3.922  21.072  0.00  0.00    +0.000 N 
ATOM     24  H   UNL     1       3.683   3.569  21.671  0.00  0.00    +0.000 HD
BRANCH  23  25
ATOM     25  C   UNL     1       2.094   5.009  21.553  0.00  0.00    +0.000 C 
BRANCH  25  26
ATOM     26  C   UNL     1       1.511   5.814  20.378  0.00  0.00    +0.000 C 
BRANCH  26  28
ATOM     27  C   UNL     1       2.443   7.414  18.776  0.00  0.00    +0.000 C 
ATOM     28  N   UNL     1       2.197   7.114  20.200  0.00  0.00    +0.000 NA
ATOM     29  C   UNL     1       1.388   8.194  20.789  0.00  0.00    +0.000 C 
ENDBRANCH  26  28
ENDBRANCH  25  26
ENDBRANCH  23  25
ENDBRANCH   1  23
TORSDOF 6
ENDMDL
MODEL 9
REMARK VINA RESULT:      -6.8      5.242      7.359
REMARK  Name = 
REMARK  8 active torsions:
REMARK  status: ('A' for Active; 'I' for Inactive)
REMARK    1  A    between atoms: C_1  and  N_2
REMARK    2  A    between atoms: N_2  and  C_3
REMARK    3  A    between atoms: N_2  and  C_4
REMARK    4  A    between atoms: C_4  and  C_5
REMARK    5  A    between atoms: C_5  and  N_6
REMARK    6  A    between atoms: N_6  and  C_7
REMARK    7  A    between atoms: C_13  and  C_14
REMARK    8  A    between atoms: C_20  and  C_21
REMARK                            x       y       z     vdW  Elec       q    Type
REMARK                         _______ _______ _______ _____ _____    ______ ____
ROOT
ATOM      1  C   UNL     1       3.781  14.601  20.505  0.00  0.00    +0.000 A 
ATOM      2  N   UNL     1       4.363  15.484  19.646  0.00  0.00    +0.000 NA
ATOM      3  C   UNL     1       3.975  15.561  18.344  0.00  0.00    +0.000 A 
ATOM      4  N   UNL     1       2.972  14.767  17.878  0.00  0.00    +0.000 NA
ATOM      5  C   UNL     1       2.347  13.888  18.703  0.00  0.00    +0.000 A 
ATOM      6  N   UNL     1       1.305  13.138  18.263  0.00  0.00    +0.000 NA
ATOM      7  C   UNL     1       0.620  12.289  19.085  0.00  0.00    +0.000 A 
ATOM      8  C   UNL     1       1.066  12.150  20.439  0.00  0.00    +0.000 A 
ATOM      9  N   UNL     1       2.101  12.917  20.860  0.00  0.00    +0.000 NA
ATOM     10  C   UNL     1       2.743  13.785  20.038  0.00  0.00    +0.000 A 
ENDROOT
BRANCH   7  11
ATOM     11  C   UNL     1      -0.608  11.630  18.543  0.00  0.00    +0.000 A 
ATOM     12  C   UNL     1      -0.518  10.396  17.878  0.00  0.00    +0.000 A 
ATOM     13  C   UNL     1      -1.678   9.757  17.416  0.00  0.00    +0.000 A 
ATOM     14  C   UNL     1      -2.931  10.349  17.593  0.00  0.00    +0.000 A 
ATOM     15  C   UNL     1      -3.030  11.595  18.206  0.00  0.00    +0.000 A 
ATOM     16  C   UNL     1      -1.880  12.236  18.662  0.00  0.00    +0.000 A 
ENDBRANCH   7  11
BRANCH   8  17
ATOM     17  C   UNL     1       0.493  11.192  21.426  0.00  0.00    +0.000 A 
ATOM     18  C   UNL     1       0.973   9.870  21.541  0.00  0.00    +0.000 A 
ATOM     19  C   UNL     1       0.378   8.968  22.424  0.00  0.00    +0.000 A 
ATOM     20  C   UNL     1      -0.688   9.377  23.223  0.00  0.00    +0.000 A 
ATOM     21  C   UNL     1      -1.146  10.696  23.158  0.00  0.00    +0.000 A 
ATOM     22  C   UNL     1      -0.552  11.603  22.274  0.00  0.00    +0.000 A 
ENDBRANCH   8  17
BRANCH   1  23
ATOM     23  N   UNL     1       4.217  14.506  21.856  0.00  0.00    +0.000 N 
ATOM     24  H   UNL     1       3.512  14.468  22.608  0.00  0.00    +0.000 HD
BRANCH  23  25
ATOM     25  C   UNL     1       5.621  14.544  22.209  0.00  0.00    +0.000 C 
BRANCH  25  26
ATOM     26  C   UNL     1       5.813  14.274  23.712  0.00  0.00    +0.000 C 
BRANCH  26  28
ATOM     27  C   UNL     1       6.286  11.873  23.669  0.00  0.00    +0.000 C 
ATOM     28  N   UNL     1       6.818  13.216  23.964  0.00  0.00    +0.000 NA
ATOM     29  C   UNL     1       8.015  13.454  23.140  0.00  0.00    +0.000 C 
ENDBRANCH  26  28
ENDBRANCH  25  26
ENDBRANCH  23  25
ENDBRANCH   1  23
TORSDOF 6
ENDMDL
