MODEL 1
REMARK VINA RESULT:      -6.8      0.000      0.000
REMARK  Name = 
REMARK  6 active torsions:
REMARK  status: ('A' for Active; 'I' for Inactive)
REMARK    1  A    between atoms: N_1  and  C_2
REMARK    2  A    between atoms: N_10  and  C_11
REMARK    3  A    between atoms: C_14  and  C_15
REMARK    4  A    between atoms: C_15  and  O_16
REMARK    5  A    between atoms: C_17  and  O_18
REMARK    6  A    between atoms: C_19  and  O_20
REMARK                            x       y       z     vdW  Elec       q    Type
REMARK                         _______ _______ _______ _____ _____    ______ ____
ROOT
ATOM      1  C   UNL     1       3.219   5.814  18.052  0.00  0.00    +0.000 C 
ATOM      2  C   UNL     1       2.916   4.361  18.273  0.00  0.00    +0.000 C 
ATOM      3 CL   UNL     1       1.406   3.725  17.805  0.00  0.00    +0.000 Cl
ATOM      4  C   UNL     1       3.940   3.670  18.791  0.00  0.00    +0.000 C 
ATOM      5  C   UNL     1       5.122   4.566  18.995  0.00  0.00    +0.000 C 
ATOM      6  C   UNL     1       4.756   5.844  18.204  0.00  0.00    +0.000 C 
ENDROOT
BRANCH   1  15
ATOM      7  C   UNL     1       1.084   9.717  19.994  0.00  0.00    +0.000 A 
ATOM      8  N   UNL     1       1.238  10.499  18.900  0.00  0.00    +0.000 NA
ATOM      9  C   UNL     1       1.839   9.969  17.817  0.00  0.00    +0.000 A 
ATOM     10  N   UNL     1       2.307   8.720  17.651  0.00  0.00    +0.000 NA
ATOM     11  C   UNL     1       2.131   7.984  18.759  0.00  0.00    +0.000 A 
ATOM     12  C   UNL     1       1.536   8.386  19.943  0.00  0.00    +0.000 A 
ATOM     13  N   UNL     1       1.506   7.345  20.849  0.00  0.00    +0.000 NA
ATOM     14  C   UNL     1       2.103   6.344  20.235  0.00  0.00    +0.000 A 
ATOM     15  N   UNL     1       2.503   6.685  18.966  0.00  0.00    +0.000 N 
BRANCH   7  16
ATOM     16  N   UNL     1       0.469  10.276  21.108  0.00  0.00    +0.000 N 
ATOM     17  H   UNL     1      -0.450   9.888  21.270  0.00  0.00    +0.000 HD
ATOM     18  H   UNL     1       1.090  10.377  21.903  0.00  0.00    +0.000 HD
ENDBRANCH   7  16
ENDBRANCH   1  15
BRANCH   5  19
ATOM     19  O   UNL     1       6.282   3.933  18.467  0.00  0.00    +0.000 OA
ATOM     20  H   UNL     1       6.724   4.597  17.900  0.00  0.00    +0.000 HD
ENDBRANCH   5  19
BRANCH   6  21
ATOM     21  O   UNL     1       5.394   5.809  16.907  0.00  0.00    +0.000 OA
ATOM     22  H   UNL     1       5.175   4.952  16.490  0.00  0.00    +0.000 HD
ENDBRANCH   6  21
BRANCH   4  23
ATOM     23  C   UNL     1       3.983   2.237  19.190  0.00  0.00    +0.000 C 
BRANCH  23  24
ATOM     24  O   UNL     1       5.091   2.012  20.050  0.00  0.00    +0.000 OA
ATOM     25  H   UNL     1       5.552   2.868  20.124  0.00  0.00    +0.000 HD
ENDBRANCH  23  24
ENDBRANCH   4  23
TORSDOF 6
ENDMDL
MODEL 2
REMARK VINA RESULT:      -6.7      3.067      4.866
REMARK  Name = 
REMARK  6 active torsions:
REMARK  status: ('A' for Active; 'I' for Inactive)
REMARK    1  A    between atoms: N_1  and  C_2
REMARK    2  A    between atoms: N_10  and  C_11
REMARK    3  A    between atoms: C_14  and  C_15
REMARK    4  A    between atoms: C_15  and  O_16
REMARK    5  A    between atoms: C_17  and  O_18
REMARK    6  A    between atoms: C_19  and  O_20
REMARK                            x       y       z     vdW  Elec       q    Type
REMARK                         _______ _______ _______ _____ _____    ______ ____
ROOT
ATOM      1  C   UNL     1       5.346   5.976  18.387  0.00  0.00    +0.000 C 
ATOM      2  C   UNL     1       5.418   5.955  16.888  0.00  0.00    +0.000 C 
ATOM      3 CL   UNL     1       4.553   7.108  15.978  0.00  0.00    +0.000 Cl
ATOM      4  C   UNL     1       6.242   5.018  16.402  0.00  0.00    +0.000 C 
ATOM      5  C   UNL     1       6.875   4.250  17.519  0.00  0.00    +0.000 C 
ATOM      6  C   UNL     1       6.556   5.097  18.774  0.00  0.00    +0.000 C 
ENDROOT
BRANCH   1  15
ATOM      7  C   UNL     1       1.598   3.106  19.519  0.00  0.00    +0.000 A 
ATOM      8  N   UNL     1       2.190   1.961  19.104  0.00  0.00    +0.000 NA
ATOM      9  C   UNL     1       3.440   2.034  18.605  0.00  0.00    +0.000 A 
ATOM     10  N   UNL     1       4.223   3.119  18.475  0.00  0.00    +0.000 NA
ATOM     11  C   UNL     1       3.596   4.225  18.901  0.00  0.00    +0.000 A 
ATOM     12  C   UNL     1       2.320   4.310  19.433  0.00  0.00    +0.000 A 
ATOM     13  N   UNL     1       2.027   5.612  19.786  0.00  0.00    +0.000 NA
ATOM     14  C   UNL     1       3.093   6.304  19.443  0.00  0.00    +0.000 A 
ATOM     15  N   UNL     1       4.070   5.508  18.897  0.00  0.00    +0.000 N 
BRANCH   7  16
ATOM     16  N   UNL     1       0.307   3.020  20.025  0.00  0.00    +0.000 N 
ATOM     17  H   UNL     1       0.256   2.424  20.839  0.00  0.00    +0.000 HD
ATOM     18  H   UNL     1      -0.172   3.913  20.059  0.00  0.00    +0.000 HD
ENDBRANCH   7  16
ENDBRANCH   1  15
BRANCH   5  19
ATOM     19  O   UNL     1       8.277   4.160  17.287  0.00  0.00    +0.000 OA
ATOM     20  H   UNL     1       8.532   3.240  17.497  0.00  0.00    +0.000 HD
ENDBRANCH   5  19
BRANCH   6  21
ATOM     21  O   UNL     1       7.696   5.922  19.104  0.00  0.00    +0.000 OA
ATOM     22  H   UNL     1       8.432   5.329  19.350  0.00  0.00    +0.000 HD
ENDBRANCH   6  21
BRANCH   4  23
ATOM     23  C   UNL     1       6.516   4.674  14.980  0.00  0.00    +0.000 C 
BRANCH  23  24
ATOM     24  O   UNL     1       7.694   5.337  14.545  0.00  0.00    +0.000 OA
ATOM     25  H   UNL     1       7.393   6.089  14.000  0.00  0.00    +0.000 HD
ENDBRANCH  23  24
ENDBRANCH   4  23
TORSDOF 6
ENDMDL
MODEL 3
REMARK VINA RESULT:      -6.6      3.837      5.024
REMARK  Name = 
REMARK  6 active torsions:
REMARK  status: ('A' for Active; 'I' for Inactive)
REMARK    1  A    between atoms: N_1  and  C_2
REMARK    2  A    between atoms: N_10  and  C_11
REMARK    3  A    between atoms: C_14  and  C_15
REMARK    4  A    between atoms: C_15  and  O_16
REMARK    5  A    between atoms: C_17  and  O_18
REMARK    6  A    between atoms: C_19  and  O_20
REMARK                            x       y       z     vdW  Elec       q    Type
REMARK                         _______ _______ _______ _____ _____    ______ ____
ROOT
ATOM      1  C   UNL     1       4.064   3.572  18.144  0.00  0.00    +0.000 C 
ATOM      2  C   UNL     1       2.661   3.899  18.564  0.00  0.00    +0.000 C 
ATOM      3 CL   UNL     1       1.484   4.268  17.388  0.00  0.00    +0.000 Cl
ATOM      4  C   UNL     1       2.458   3.806  19.885  0.00  0.00    +0.000 C 
ATOM      5  C   UNL     1       3.717   3.384  20.576  0.00  0.00    +0.000 C 
ATOM      6  C   UNL     1       4.630   2.911  19.420  0.00  0.00    +0.000 C 
ENDROOT
BRANCH   1  15
ATOM      7  C   UNL     1       7.366   7.116  17.832  0.00  0.00    +0.000 A 
ATOM      8  N   UNL     1       8.133   6.660  18.850  0.00  0.00    +0.000 NA
ATOM      9  C   UNL     1       7.749   5.533  19.483  0.00  0.00    +0.000 A 
ATOM     10  N   UNL     1       6.685   4.754  19.224  0.00  0.00    +0.000 NA
ATOM     11  C   UNL     1       5.959   5.244  18.208  0.00  0.00    +0.000 A 
ATOM     12  C   UNL     1       6.222   6.384  17.467  0.00  0.00    +0.000 A 
ATOM     13  N   UNL     1       5.269   6.554  16.483  0.00  0.00    +0.000 NA
ATOM     14  C   UNL     1       4.427   5.554  16.650  0.00  0.00    +0.000 A 
ATOM     15  N   UNL     1       4.801   4.735  17.687  0.00  0.00    +0.000 N 
BRANCH   7  16
ATOM     16  N   UNL     1       7.767   8.282  17.191  0.00  0.00    +0.000 N 
ATOM     17  H   UNL     1       7.674   9.094  17.785  0.00  0.00    +0.000 HD
ATOM     18  H   UNL     1       8.625   8.177  16.662  0.00  0.00    +0.000 HD
ENDBRANCH   7  16
ENDBRANCH   1  15
BRANCH   5  19
ATOM     19  O   UNL     1       3.419   2.325  21.480  0.00  0.00    +0.000 OA
ATOM     20  H   UNL     1       4.274   1.902  21.699  0.00  0.00    +0.000 HD
ENDBRANCH   5  19
BRANCH   6  21
ATOM     21  O   UNL     1       4.568   1.470  19.314  0.00  0.00    +0.000 OA
ATOM     22  H   UNL     1       4.647   1.237  18.368  0.00  0.00    +0.000 HD
ENDBRANCH   6  21
BRANCH   4  23
ATOM     23  C   UNL     1       1.221   4.108  20.656  0.00  0.00    +0.000 C 
BRANCH  23  24
ATOM     24  O   UNL     1       0.620   2.896  21.091  0.00  0.00    +0.000 OA
ATOM     25  H   UNL     1       0.858   2.224  20.425  0.00  0.00    +0.000 HD
ENDBRANCH  23  24
ENDBRANCH   4  23
TORSDOF 6
ENDMDL
MODEL 4
REMARK VINA RESULT:      -6.5      3.707      5.409
REMARK  Name = 
REMARK  6 active torsions:
REMARK  status: ('A' for Active; 'I' for Inactive)
REMARK    1  A    between atoms: N_1  and  C_2
REMARK    2  A    between atoms: N_10  and  C_11
REMARK    3  A    between atoms: C_14  and  C_15
REMARK    4  A    between atoms: C_15  and  O_16
REMARK    5  A    between atoms: C_17  and  O_18
REMARK    6  A    between atoms: C_19  and  O_20
REMARK                            x       y       z     vdW  Elec       q    Type
REMARK                         _______ _______ _______ _____ _____    ______ ____
ROOT
ATOM      1  C   UNL     1       6.100   4.401  18.236  0.00  0.00    +0.000 C 
ATOM      2  C   UNL     1       7.018   5.500  18.688  0.00  0.00    +0.000 C 
ATOM      3 CL   UNL     1       7.691   5.457  20.253  0.00  0.00    +0.000 Cl
ATOM      4  C   UNL     1       7.267   6.416  17.744  0.00  0.00    +0.000 C 
ATOM      5  C   UNL     1       6.549   6.067  16.478  0.00  0.00    +0.000 C 
ATOM      6  C   UNL     1       6.091   4.607  16.705  0.00  0.00    +0.000 C 
ENDROOT
BRANCH   1  15
ATOM      7  C   UNL     1       1.609   3.253  19.676  0.00  0.00    +0.000 A 
ATOM      8  N   UNL     1       1.635   1.998  19.170  0.00  0.00    +0.000 NA
ATOM      9  C   UNL     1       2.755   1.584  18.545  0.00  0.00    +0.000 A 
ATOM     10  N   UNL     1       3.904   2.258  18.363  0.00  0.00    +0.000 NA
ATOM     11  C   UNL     1       3.831   3.493  18.882  0.00  0.00    +0.000 A 
ATOM     12  C   UNL     1       2.756   4.057  19.547  0.00  0.00    +0.000 A 
ATOM     13  N   UNL     1       3.061   5.337  19.965  0.00  0.00    +0.000 NA
ATOM     14  C   UNL     1       4.285   5.552  19.531  0.00  0.00    +0.000 A 
ATOM     15  N   UNL     1       4.793   4.465  18.864  0.00  0.00    +0.000 N 
BRANCH   7  16
ATOM     16  N   UNL     1       0.447   3.670  20.312  0.00  0.00    +0.000 N 
ATOM     17  H   UNL     1       0.434   3.413  21.289  0.00  0.00    +0.000 HD
ATOM     18  H   UNL     1       0.169   4.614  20.066  0.00  0.00    +0.000 HD
ENDBRANCH   7  16
ENDBRANCH   1  15
BRANCH   5  19
ATOM     19  O   UNL     1       7.456   6.170  15.385  0.00  0.00    +0.000 OA
ATOM     20  H   UNL     1       8.271   5.704  15.659  0.00  0.00    +0.000 HD
ENDBRANCH   5  19
BRANCH   6  21
ATOM     21  O   UNL     1       7.020   3.703  16.067  0.00  0.00    +0.000 OA
ATOM     22  H   UNL     1       7.473   4.195  15.354  0.00  0.00    +0.000 HD
ENDBRANCH   6  21
BRANCH   4  23
ATOM     23  C   UNL     1       8.077   7.660  17.851  0.00  0.00    +0.000 C 
BRANCH  23  24
ATOM     24  O   UNL     1       7.379   8.740  17.246  0.00  0.00    +0.000 OA
ATOM     25  H   UNL     1       7.087   8.416  16.374  0.00  0.00    +0.000 HD
ENDBRANCH  23  24
ENDBRANCH   4  23
TORSDOF 6
ENDMDL
MODEL 5
REMARK VINA RESULT:      -6.5      4.073      5.531
REMARK  Name = 
REMARK  6 active torsions:
REMARK  status: ('A' for Active; 'I' for Inactive)
REMARK    1  A    between atoms: N_1  and  C_2
REMARK    2  A    between atoms: N_10  and  C_11
REMARK    3  A    between atoms: C_14  and  C_15
REMARK    4  A    between atoms: C_15  and  O_16
REMARK    5  A    between atoms: C_17  and  O_18
REMARK    6  A    between atoms: C_19  and  O_20
REMARK                            x       y       z     vdW  Elec       q    Type
REMARK                         _______ _______ _______ _____ _____    ______ ____
ROOT
ATOM      1  C   UNL     1       4.149   4.350  19.298  0.00  0.00    +0.000 C 
ATOM      2  C   UNL     1       3.570   3.003  19.620  0.00  0.00    +0.000 C 
ATOM      3 CL   UNL     1       4.596   1.723  20.080  0.00  0.00    +0.000 Cl
ATOM      4  C   UNL     1       2.232   2.964  19.561  0.00  0.00    +0.000 C 
ATOM      5  C   UNL     1       1.688   4.309  19.193  0.00  0.00    +0.000 C 
ATOM      6  C   UNL     1       2.899   5.255  19.365  0.00  0.00    +0.000 C 
ENDROOT
BRANCH   1  15
ATOM      7  C   UNL     1       7.126   5.642  15.688  0.00  0.00    +0.000 A 
ATOM      8  N   UNL     1       7.745   6.624  16.384  0.00  0.00    +0.000 NA
ATOM      9  C   UNL     1       7.361   6.843  17.658  0.00  0.00    +0.000 A 
ATOM     10  N   UNL     1       6.431   6.186  18.371  0.00  0.00    +0.000 NA
ATOM     11  C   UNL     1       5.848   5.223  17.641  0.00  0.00    +0.000 A 
ATOM     12  C   UNL     1       6.132   4.882  16.330  0.00  0.00    +0.000 A 
ATOM     13  N   UNL     1       5.349   3.820  15.924  0.00  0.00    +0.000 NA
ATOM     14  C   UNL     1       4.584   3.547  16.961  0.00  0.00    +0.000 A 
ATOM     15  N   UNL     1       4.847   4.374  18.026  0.00  0.00    +0.000 N 
BRANCH   7  16
ATOM     16  N   UNL     1       7.526   5.430  14.374  0.00  0.00    +0.000 N 
ATOM     17  H   UNL     1       8.492   5.141  14.312  0.00  0.00    +0.000 HD
ATOM     18  H   UNL     1       6.842   4.924  13.822  0.00  0.00    +0.000 HD
ENDBRANCH   7  16
ENDBRANCH   1  15
BRANCH   5  19
ATOM     19  O   UNL     1       0.628   4.642  20.084  0.00  0.00    +0.000 OA
ATOM     20  H   UNL     1      -0.195   4.613  19.556  0.00  0.00    +0.000 HD
ENDBRANCH   5  19
BRANCH   6  21
ATOM     21  O   UNL     1       2.820   5.915  20.648  0.00  0.00    +0.000 OA
ATOM     22  H   UNL     1       2.391   5.299  21.274  0.00  0.00    +0.000 HD
ENDBRANCH   6  21
BRANCH   4  23
ATOM     23  C   UNL     1       1.330   1.797  19.762  0.00  0.00    +0.000 C 
BRANCH  23  24
ATOM     24  O   UNL     1       0.339   1.777  18.744  0.00  0.00    +0.000 OA
ATOM     25  H   UNL     1      -0.365   2.382  19.044  0.00  0.00    +0.000 HD
ENDBRANCH  23  24
ENDBRANCH   4  23
TORSDOF 6
ENDMDL
MODEL 6
REMARK VINA RESULT:      -6.5      1.993      3.048
REMARK  Name = 
REMARK  6 active torsions:
REMARK  status: ('A' for Active; 'I' for Inactive)
REMARK    1  A    between atoms: N_1  and  C_2
REMARK    2  A    between atoms: N_10  and  C_11
REMARK    3  A    between atoms: C_14  and  C_15
REMARK    4  A    between atoms: C_15  and  O_16
REMARK    5  A    between atoms: C_17  and  O_18
REMARK    6  A    between atoms: C_19  and  O_20
REMARK                            x       y       z     vdW  Elec       q    Type
REMARK                         _______ _______ _______ _____ _____    ______ ____
ROOT
ATOM      1  C   UNL     1       2.866   5.417  19.954  0.00  0.00    +0.000 C 
ATOM      2  C   UNL     1       3.800   4.555  19.156  0.00  0.00    +0.000 C 
ATOM      3 CL   UNL     1       5.457   4.946  19.070  0.00  0.00    +0.000 Cl
ATOM      4  C   UNL     1       3.211   3.480  18.614  0.00  0.00    +0.000 C 
ATOM      5  C   UNL     1       1.760   3.445  18.976  0.00  0.00    +0.000 C 
ATOM      6  C   UNL     1       1.637   4.494  20.106  0.00  0.00    +0.000 C 
ENDROOT
BRANCH   1  15
ATOM      7  C   UNL     1       1.154   9.877  19.094  0.00  0.00    +0.000 A 
ATOM      8  N   UNL     1       0.583  10.027  20.312  0.00  0.00    +0.000 NA
ATOM      9  C   UNL     1       0.696   9.017  21.198  0.00  0.00    +0.000 A 
ATOM     10  N   UNL     1       1.338   7.846  21.048  0.00  0.00    +0.000 NA
ATOM     11  C   UNL     1       1.888   7.745  19.829  0.00  0.00    +0.000 A 
ATOM     12  C   UNL     1       1.856   8.690  18.818  0.00  0.00    +0.000 A 
ATOM     13  N   UNL     1       2.558   8.245  17.716  0.00  0.00    +0.000 NA
ATOM     14  C   UNL     1       2.977   7.041  18.044  0.00  0.00    +0.000 A 
ATOM     15  N   UNL     1       2.592   6.691  19.315  0.00  0.00    +0.000 N 
BRANCH   7  16
ATOM     16  N   UNL     1       1.025  10.921  18.186  0.00  0.00    +0.000 N 
ATOM     17  H   UNL     1       0.506  10.648  17.363  0.00  0.00    +0.000 HD
ATOM     18  H   UNL     1       0.794  11.807  18.621  0.00  0.00    +0.000 HD
ENDBRANCH   7  16
ENDBRANCH   1  15
BRANCH   5  19
ATOM     19  O   UNL     1       1.426   2.138  19.433  0.00  0.00    +0.000 OA
ATOM     20  H   UNL     1       1.169   2.232  20.372  0.00  0.00    +0.000 HD
ENDBRANCH   5  19
BRANCH   6  21
ATOM     21  O   UNL     1       1.659   3.829  21.389  0.00  0.00    +0.000 OA
ATOM     22  H   UNL     1       1.167   4.387  22.023  0.00  0.00    +0.000 HD
ENDBRANCH   6  21
BRANCH   4  23
ATOM     23  C   UNL     1       3.808   2.447  17.725  0.00  0.00    +0.000 C 
BRANCH  23  24
ATOM     24  O   UNL     1       4.028   1.251  18.460  0.00  0.00    +0.000 OA
ATOM     25  H   UNL     1       4.996   1.166  18.551  0.00  0.00    +0.000 HD
ENDBRANCH  23  24
ENDBRANCH   4  23
TORSDOF 6
ENDMDL
MODEL 7
REMARK VINA RESULT:      -6.4      1.863      2.270
REMARK  Name = 
REMARK  6 active torsions:
REMARK  status: ('A' for Active; 'I' for Inactive)
REMARK    1  A    between atoms: N_1  and  C_2
REMARK    2  A    between atoms: N_10  and  C_11
REMARK    3  A    between atoms: C_14  and  C_15
REMARK    4  A    between atoms: C_15  and  O_16
REMARK    5  A    between atoms: C_17  and  O_18
REMARK    6  A    between atoms: C_19  and  O_20
REMARK                            x       y       z     vdW  Elec       q    Type
REMARK                         _______ _______ _______ _____ _____    ______ ____
ROOT
ATOM      1  C   UNL     1       4.066   6.017  17.341  0.00  0.00    +0.000 C 
ATOM      2  C   UNL     1       5.010   4.949  17.812  0.00  0.00    +0.000 C 
ATOM      3 CL   UNL     1       4.421   3.392  18.174  0.00  0.00    +0.000 Cl
ATOM      4  C   UNL     1       6.291   5.339  17.845  0.00  0.00    +0.000 C 
ATOM      5  C   UNL     1       6.416   6.757  17.384  0.00  0.00    +0.000 C 
ATOM      6  C   UNL     1       5.040   7.059  16.746  0.00  0.00    +0.000 C 
ENDROOT
BRANCH   1  15
ATOM      7  C   UNL     1       1.176   8.907  19.960  0.00  0.00    +0.000 A 
ATOM      8  N   UNL     1       1.088   9.877  19.020  0.00  0.00    +0.000 NA
ATOM      9  C   UNL     1       1.742   9.699  17.856  0.00  0.00    +0.000 A 
ATOM     10  N   UNL     1       2.481   8.645  17.468  0.00  0.00    +0.000 NA
ATOM     11  C   UNL     1       2.537   7.711  18.430  0.00  0.00    +0.000 A 
ATOM     12  C   UNL     1       1.924   7.752  19.671  0.00  0.00    +0.000 A 
ATOM     13  N   UNL     1       2.185   6.596  20.378  0.00  0.00    +0.000 NA
ATOM     14  C   UNL     1       2.967   5.886  19.593  0.00  0.00    +0.000 A 
ATOM     15  N   UNL     1       3.214   6.523  18.401  0.00  0.00    +0.000 N 
BRANCH   7  16
ATOM     16  N   UNL     1       0.504   9.105  21.160  0.00  0.00    +0.000 N 
ATOM     17  H   UNL     1       0.829   8.482  21.886  0.00  0.00    +0.000 HD
ATOM     18  H   UNL     1       0.377  10.083  21.394  0.00  0.00    +0.000 HD
ENDBRANCH   7  16
ENDBRANCH   1  15
BRANCH   5  19
ATOM     19  O   UNL     1       7.470   6.846  16.431  0.00  0.00    +0.000 OA
ATOM     20  H   UNL     1       8.012   6.039  16.544  0.00  0.00    +0.000 HD
ENDBRANCH   5  19
BRANCH   6  21
ATOM     21  O   UNL     1       5.128   6.907  15.311  0.00  0.00    +0.000 OA
ATOM     22  H   UNL     1       4.960   5.968  15.099  0.00  0.00    +0.000 HD
ENDBRANCH   6  21
BRANCH   4  23
ATOM     23  C   UNL     1       7.481   4.572  18.307  0.00  0.00    +0.000 C 
BRANCH  23  24
ATOM     24  O   UNL     1       8.198   4.080  17.184  0.00  0.00    +0.000 OA
ATOM     25  H   UNL     1       8.972   3.608  17.545  0.00  0.00    +0.000 HD
ENDBRANCH  23  24
ENDBRANCH   4  23
TORSDOF 6
ENDMDL
MODEL 8
REMARK VINA RESULT:      -6.1      3.627      4.849
REMARK  Name = 
REMARK  6 active torsions:
REMARK  status: ('A' for Active; 'I' for Inactive)
REMARK    1  A    between atoms: N_1  and  C_2
REMARK    2  A    between atoms: N_10  and  C_11
REMARK    3  A    between atoms: C_14  and  C_15
REMARK    4  A    between atoms: C_15  and  O_16
REMARK    5  A    between atoms: C_17  and  O_18
REMARK    6  A    between atoms: C_19  and  O_20
REMARK                            x       y       z     vdW  Elec       q    Type
REMARK                         _______ _______ _______ _____ _____    ______ ____
ROOT
ATOM      1  C   UNL     1       5.119   5.386  17.908  0.00  0.00    +0.000 C 
ATOM      2  C   UNL     1       5.544   5.689  16.500  0.00  0.00    +0.000 C 
ATOM      3 CL   UNL     1       4.717   6.875  15.598  0.00  0.00    +0.000 Cl
ATOM      4  C   UNL     1       6.620   4.998  16.101  0.00  0.00    +0.000 C 
ATOM      5  C   UNL     1       7.105   4.109  17.203  0.00  0.00    +0.000 C 
ATOM      6  C   UNL     1       6.347   4.623  18.451  0.00  0.00    +0.000 C 
ENDROOT
BRANCH   1  15
ATOM      7  C   UNL     1       1.042   3.350  19.579  0.00  0.00    +0.000 A 
ATOM      8  N   UNL     1       1.138   3.883  20.819  0.00  0.00    +0.000 NA
ATOM      9  C   UNL     1       2.187   4.684  21.090  0.00  0.00    +0.000 A 
ATOM     10  N   UNL     1       3.180   5.062  20.267  0.00  0.00    +0.000 NA
ATOM     11  C   UNL     1       3.041   4.512  19.052  0.00  0.00    +0.000 A 
ATOM     12  C   UNL     1       2.025   3.673  18.626  0.00  0.00    +0.000 A 
ATOM     13  N   UNL     1       2.202   3.332  17.301  0.00  0.00    +0.000 NA
ATOM     14  C   UNL     1       3.322   3.926  16.943  0.00  0.00    +0.000 A 
ATOM     15  N   UNL     1       3.871   4.650  17.973  0.00  0.00    +0.000 N 
BRANCH   7  16
ATOM     16  N   UNL     1      -0.040   2.520  19.312  0.00  0.00    +0.000 N 
ATOM     17  H   UNL     1      -0.789   2.645  19.978  0.00  0.00    +0.000 HD
ATOM     18  H   UNL     1      -0.281   2.476  18.329  0.00  0.00    +0.000 HD
ENDBRANCH   7  16
ENDBRANCH   1  15
BRANCH   5  19
ATOM     19  O   UNL     1       8.514   4.266  17.341  0.00  0.00    +0.000 OA
ATOM     20  H   UNL     1       8.654   4.782  18.160  0.00  0.00    +0.000 HD
ENDBRANCH   5  19
BRANCH   6  21
ATOM     21  O   UNL     1       7.203   5.511  19.205  0.00  0.00    +0.000 OA
ATOM     22  H   UNL     1       6.650   6.240  19.546  0.00  0.00    +0.000 HD
ENDBRANCH   6  21
BRANCH   4  23
ATOM     23  C   UNL     1       7.280   5.000  14.767  0.00  0.00    +0.000 C 
BRANCH  23  24
ATOM     24  O   UNL     1       6.536   4.193  13.864  0.00  0.00    +0.000 OA
ATOM     25  H   UNL     1       5.869   3.730  14.405  0.00  0.00    +0.000 HD
ENDBRANCH  23  24
ENDBRANCH   4  23
TORSDOF 6
ENDMDL
MODEL 9
REMARK VINA RESULT:      -6.1      3.984      5.495
REMARK  Name = 
REMARK  6 active torsions:
REMARK  status: ('A' for Active; 'I' for Inactive)
REMARK    1  A    between atoms: N_1  and  C_2
REMARK    2  A    between atoms: N_10  and  C_11
REMARK    3  A    between atoms: C_14  and  C_15
REMARK    4  A    between atoms: C_15  and  O_16
REMARK    5  A    between atoms: C_17  and  O_18
REMARK    6  A    between atoms: C_19  and  O_20
REMARK                            x       y       z     vdW  Elec       q    Type
REMARK                         _______ _______ _______ _____ _____    ______ ____
ROOT
ATOM      1  C   UNL     1       2.619   4.838  18.523  0.00  0.00    +0.000 C 
ATOM      2  C   UNL     1       2.058   4.620  19.898  0.00  0.00    +0.000 C 
ATOM      3 CL   UNL     1       2.165   5.856  21.067  0.00  0.00    +0.000 Cl
ATOM      4  C   UNL     1       1.452   3.435  20.052  0.00  0.00    +0.000 C 
ATOM      5  C   UNL     1       1.502   2.656  18.775  0.00  0.00    +0.000 C 
ATOM      6  C   UNL     1       1.945   3.701  17.723  0.00  0.00    +0.000 C 
ENDROOT
BRANCH   1  15
ATOM      7  C   UNL     1       7.204   4.465  16.974  0.00  0.00    +0.000 A 
ATOM      8  N   UNL     1       6.882   4.328  15.667  0.00  0.00    +0.000 NA
ATOM      9  C   UNL     1       5.578   4.353  15.325  0.00  0.00    +0.000 A 
ATOM     10  N   UNL     1       4.511   4.523  16.124  0.00  0.00    +0.000 NA
ATOM     11  C   UNL     1       4.881   4.655  17.407  0.00  0.00    +0.000 A 
ATOM     12  C   UNL     1       6.171   4.649  17.909  0.00  0.00    +0.000 A 
ATOM     13  N   UNL     1       6.160   4.843  19.276  0.00  0.00    +0.000 NA
ATOM     14  C   UNL     1       4.885   4.931  19.596  0.00  0.00    +0.000 A 
ATOM     15  N   UNL     1       4.070   4.818  18.497  0.00  0.00    +0.000 N 
BRANCH   7  16
ATOM     16  N   UNL     1       8.551   4.431  17.316  0.00  0.00    +0.000 N 
ATOM     17  H   UNL     1       8.924   5.354  17.487  0.00  0.00    +0.000 HD
ATOM     18  H   UNL     1       8.781   3.696  17.975  0.00  0.00    +0.000 HD
ENDBRANCH   7  16
ENDBRANCH   1  15
BRANCH   5  19
ATOM     19  O   UNL     1       0.205   2.142  18.492  0.00  0.00    +0.000 OA
ATOM     20  H   UNL     1      -0.193   1.911  19.356  0.00  0.00    +0.000 HD
ENDBRANCH   5  19
BRANCH   6  21
ATOM     21  O   UNL     1       0.786   4.198  17.017  0.00  0.00    +0.000 OA
ATOM     22  H   UNL     1       0.087   4.373  17.677  0.00  0.00    +0.000 HD
ENDBRANCH   6  21
BRANCH   4  23
ATOM     23  C   UNL     1       0.838   2.861  21.280  0.00  0.00    +0.000 C 
BRANCH  23  24
ATOM     24  O   UNL     1       1.854   2.545  22.221  0.00  0.00    +0.000 OA
ATOM     25  H   UNL     1       2.699   2.785  21.795  0.00  0.00    +0.000 HD
ENDBRANCH  23  24
ENDBRANCH   4  23
TORSDOF 6
ENDMDL
