MODEL 1
REMARK VINA RESULT:      -6.7      0.000      0.000
REMARK  Name = 
REMARK  3 active torsions:
REMARK  status: ('A' for Active; 'I' for Inactive)
REMARK    1  A    between atoms: C_4  and  C_5
REMARK    2  A    between atoms: C_5  and  S_6
REMARK    3  A    between atoms: S_6  and  C_7
REMARK                            x       y       z     vdW  Elec       q    Type
REMARK                         _______ _______ _______ _____ _____    ______ ____
ROOT
ATOM      1  C   UNL     1       5.766   6.209  17.679  0.00  0.00    +0.000 C 
ENDROOT
BRANCH   1   5
ATOM      2  O   UNL     1       6.314   3.776  13.427  0.00  0.00    +0.000 OA
ATOM      3  C   UNL     1       6.470   4.474  14.411  0.00  0.00    +0.000 C 
ATOM      4  C   UNL     1       5.516   4.674  15.549  0.00  0.00    +0.000 C 
ATOM      5  C   UNL     1       6.299   5.639  16.399  0.00  0.00    +0.000 C 
ATOM      6  N   UNL     1       7.458   5.957  15.899  0.00  0.00    +0.000 NA
ATOM      7  N   UNL     1       7.564   5.263  14.724  0.00  0.00    +0.000 N 
ATOM      8  H   UNL     1       8.390   5.342  14.141  0.00  0.00    +0.000 HD
ENDBRANCH   1   5
BRANCH   1   9
ATOM      9  S   UNL     1       4.010   6.638  17.470  0.00  0.00    +0.000 S 
BRANCH   9  10
ATOM     10  C   UNL     1       3.195   5.581  18.659  0.00  0.00    +0.000 A 
ATOM     11  C   UNL     1       3.402   4.199  18.541  0.00  0.00    +0.000 A 
ATOM     12  C   UNL     1       2.851   3.308  19.468  0.00  0.00    +0.000 A 
ATOM     13  C   UNL     1       2.093   3.797  20.527  0.00  0.00    +0.000 A 
ATOM     14 CL   UNL     1       1.427   2.707  21.679  0.00  0.00    +0.000 Cl
ATOM     15  C   UNL     1       1.883   5.166  20.663  0.00  0.00    +0.000 A 
ATOM     16  C   UNL     1       2.435   6.057  19.733  0.00  0.00    +0.000 A 
ENDBRANCH   9  10
ENDBRANCH   1   9
TORSDOF 3
ENDMDL
MODEL 2
REMARK VINA RESULT:      -6.7      0.790      1.459
REMARK  Name = 
REMARK  3 active torsions:
REMARK  status: ('A' for Active; 'I' for Inactive)
REMARK    1  A    between atoms: C_4  and  C_5
REMARK    2  A    between atoms: C_5  and  S_6
REMARK    3  A    between atoms: S_6  and  C_7
REMARK                            x       y       z     vdW  Elec       q    Type
REMARK                         _______ _______ _______ _____ _____    ______ ____
ROOT
ATOM      1  C   UNL     1       6.455   5.128  17.653  0.00  0.00    +0.000 C 
ENDROOT
BRANCH   1   5
ATOM      2  O   UNL     1       6.295   3.702  12.936  0.00  0.00    +0.000 OA
ATOM      3  C   UNL     1       6.560   4.245  13.993  0.00  0.00    +0.000 C 
ATOM      4  C   UNL     1       5.969   3.957  15.339  0.00  0.00    +0.000 C 
ATOM      5  C   UNL     1       6.706   4.963  16.183  0.00  0.00    +0.000 C 
ATOM      6  N   UNL     1       7.548   5.695  15.512  0.00  0.00    +0.000 NA
ATOM      7  N   UNL     1       7.467   5.267  14.215  0.00  0.00    +0.000 N 
ATOM      8  H   UNL     1       8.035   5.687  13.488  0.00  0.00    +0.000 HD
ENDBRANCH   1   5
BRANCH   1   9
ATOM      9  S   UNL     1       4.914   6.062  17.906  0.00  0.00    +0.000 S 
BRANCH   9  10
ATOM     10  C   UNL     1       3.994   5.019  19.029  0.00  0.00    +0.000 A 
ATOM     11  C   UNL     1       2.990   5.627  19.796  0.00  0.00    +0.000 A 
ATOM     12  C   UNL     1       2.182   4.872  20.653  0.00  0.00    +0.000 A 
ATOM     13  C   UNL     1       2.371   3.497  20.743  0.00  0.00    +0.000 A 
ATOM     14 CL   UNL     1       1.371   2.560  21.783  0.00  0.00    +0.000 Cl
ATOM     15  C   UNL     1       3.360   2.876  19.984  0.00  0.00    +0.000 A 
ATOM     16  C   UNL     1       4.167   3.634  19.127  0.00  0.00    +0.000 A 
ENDBRANCH   9  10
ENDBRANCH   1   9
TORSDOF 3
ENDMDL
MODEL 3
REMARK VINA RESULT:      -6.5      1.267      1.375
REMARK  Name = 
REMARK  3 active torsions:
REMARK  status: ('A' for Active; 'I' for Inactive)
REMARK    1  A    between atoms: C_4  and  C_5
REMARK    2  A    between atoms: C_5  and  S_6
REMARK    3  A    between atoms: S_6  and  C_7
REMARK                            x       y       z     vdW  Elec       q    Type
REMARK                         _______ _______ _______ _____ _____    ______ ____
ROOT
ATOM      1  C   UNL     1       6.575   4.805  17.442  0.00  0.00    +0.000 C 
ENDROOT
BRANCH   1   5
ATOM      2  O   UNL     1       6.333   3.674  12.649  0.00  0.00    +0.000 OA
ATOM      3  C   UNL     1       6.608   4.159  13.731  0.00  0.00    +0.000 C 
ATOM      4  C   UNL     1       6.065   3.766  15.071  0.00  0.00    +0.000 C 
ATOM      5  C   UNL     1       6.791   4.741  15.959  0.00  0.00    +0.000 C 
ATOM      6  N   UNL     1       7.589   5.543  15.315  0.00  0.00    +0.000 NA
ATOM      7  N   UNL     1       7.487   5.196  13.995  0.00  0.00    +0.000 N 
ATOM      8  H   UNL     1       8.021   5.680  13.283  0.00  0.00    +0.000 HD
ENDBRANCH   1   5
BRANCH   1   9
ATOM      9  S   UNL     1       5.349   6.094  17.824  0.00  0.00    +0.000 S 
BRANCH   9  10
ATOM     10  C   UNL     1       3.898   5.148  18.268  0.00  0.00    +0.000 A 
ATOM     11  C   UNL     1       3.441   4.197  17.345  0.00  0.00    +0.000 A 
ATOM     12  C   UNL     1       2.351   3.373  17.642  0.00  0.00    +0.000 A 
ATOM     13  C   UNL     1       1.713   3.491  18.873  0.00  0.00    +0.000 A 
ATOM     14 CL   UNL     1       0.382   2.470  19.250  0.00  0.00    +0.000 Cl
ATOM     15  C   UNL     1       2.157   4.426  19.803  0.00  0.00    +0.000 A 
ATOM     16  C   UNL     1       3.250   5.251  19.504  0.00  0.00    +0.000 A 
ENDBRANCH   9  10
ENDBRANCH   1   9
TORSDOF 3
ENDMDL
MODEL 4
REMARK VINA RESULT:      -6.5      1.297      1.890
REMARK  Name = 
REMARK  3 active torsions:
REMARK  status: ('A' for Active; 'I' for Inactive)
REMARK    1  A    between atoms: C_4  and  C_5
REMARK    2  A    between atoms: C_5  and  S_6
REMARK    3  A    between atoms: S_6  and  C_7
REMARK                            x       y       z     vdW  Elec       q    Type
REMARK                         _______ _______ _______ _____ _____    ______ ____
ROOT
ATOM      1  C   UNL     1       5.587   6.487  17.345  0.00  0.00    +0.000 C 
ENDROOT
BRANCH   1   5
ATOM      2  O   UNL     1       6.450   3.859  13.264  0.00  0.00    +0.000 OA
ATOM      3  C   UNL     1       6.543   4.573  14.244  0.00  0.00    +0.000 C 
ATOM      4  C   UNL     1       5.470   4.908  15.235  0.00  0.00    +0.000 C 
ATOM      5  C   UNL     1       6.227   5.820  16.163  0.00  0.00    +0.000 C 
ATOM      6  N   UNL     1       7.470   6.002  15.822  0.00  0.00    +0.000 NA
ATOM      7  N   UNL     1       7.661   5.259  14.688  0.00  0.00    +0.000 N 
ATOM      8  H   UNL     1       8.562   5.234  14.224  0.00  0.00    +0.000 HD
ENDBRANCH   1   5
BRANCH   1   9
ATOM      9  S   UNL     1       5.813   5.452  18.823  0.00  0.00    +0.000 S 
BRANCH   9  10
ATOM     10  C   UNL     1       4.335   4.445  18.837  0.00  0.00    +0.000 A 
ATOM     11  C   UNL     1       3.238   4.920  19.571  0.00  0.00    +0.000 A 
ATOM     12  C   UNL     1       2.025   4.225  19.581  0.00  0.00    +0.000 A 
ATOM     13  C   UNL     1       1.899   3.048  18.850  0.00  0.00    +0.000 A 
ATOM     14 CL   UNL     1       0.404   2.197  18.847  0.00  0.00    +0.000 Cl
ATOM     15  C   UNL     1       2.976   2.566  18.111  0.00  0.00    +0.000 A 
ATOM     16  C   UNL     1       4.190   3.264  18.102  0.00  0.00    +0.000 A 
ENDBRANCH   9  10
ENDBRANCH   1   9
TORSDOF 3
ENDMDL
MODEL 5
REMARK VINA RESULT:      -6.5      1.686      2.237
REMARK  Name = 
REMARK  3 active torsions:
REMARK  status: ('A' for Active; 'I' for Inactive)
REMARK    1  A    between atoms: C_4  and  C_5
REMARK    2  A    between atoms: C_5  and  S_6
REMARK    3  A    between atoms: S_6  and  C_7
REMARK                            x       y       z     vdW  Elec       q    Type
REMARK                         _______ _______ _______ _____ _____    ______ ____
ROOT
ATOM      1  C   UNL     1       6.684   5.271  16.509  0.00  0.00    +0.000 C 
ENDROOT
BRANCH   1   5
ATOM      2  O   UNL     1       6.273   3.243  12.034  0.00  0.00    +0.000 OA
ATOM      3  C   UNL     1       6.603   3.908  12.998  0.00  0.00    +0.000 C 
ATOM      4  C   UNL     1       6.056   3.829  14.391  0.00  0.00    +0.000 C 
ATOM      5  C   UNL     1       6.868   4.902  15.067  0.00  0.00    +0.000 C 
ATOM      6  N   UNL     1       7.711   5.498  14.274  0.00  0.00    +0.000 NA
ATOM      7  N   UNL     1       7.560   4.907  13.050  0.00  0.00    +0.000 N 
ATOM      8  H   UNL     1       8.115   5.200  12.253  0.00  0.00    +0.000 HD
ENDBRANCH   1   5
BRANCH   1   9
ATOM      9  S   UNL     1       5.185   6.285  16.690  0.00  0.00    +0.000 S 
BRANCH   9  10
ATOM     10  C   UNL     1       3.988   5.119  17.326  0.00  0.00    +0.000 A 
ATOM     11  C   UNL     1       2.812   5.642  17.884  0.00  0.00    +0.000 A 
ATOM     12  C   UNL     1       1.798   4.797  18.347  0.00  0.00    +0.000 A 
ATOM     13  C   UNL     1       1.952   3.418  18.248  0.00  0.00    +0.000 A 
ATOM     14 CL   UNL     1       0.702   2.375  18.800  0.00  0.00    +0.000 Cl
ATOM     15  C   UNL     1       3.110   2.882  17.691  0.00  0.00    +0.000 A 
ATOM     16  C   UNL     1       4.124   3.730  17.228  0.00  0.00    +0.000 A 
ENDBRANCH   9  10
ENDBRANCH   1   9
TORSDOF 3
ENDMDL
MODEL 6
REMARK VINA RESULT:      -6.4      1.236      1.346
REMARK  Name = 
REMARK  3 active torsions:
REMARK  status: ('A' for Active; 'I' for Inactive)
REMARK    1  A    between atoms: C_4  and  C_5
REMARK    2  A    between atoms: C_5  and  S_6
REMARK    3  A    between atoms: S_6  and  C_7
REMARK                            x       y       z     vdW  Elec       q    Type
REMARK                         _______ _______ _______ _____ _____    ______ ____
ROOT
ATOM      1  C   UNL     1       6.184   6.481  17.648  0.00  0.00    +0.000 C 
ENDROOT
BRANCH   1   5
ATOM      2  O   UNL     1       5.956   3.766  13.540  0.00  0.00    +0.000 OA
ATOM      3  C   UNL     1       6.301   4.500  14.447  0.00  0.00    +0.000 C 
ATOM      4  C   UNL     1       5.523   4.859  15.676  0.00  0.00    +0.000 C 
ATOM      5  C   UNL     1       6.494   5.788  16.355  0.00  0.00    +0.000 C 
ATOM      6  N   UNL     1       7.604   5.959  15.696  0.00  0.00    +0.000 NA
ATOM      7  N   UNL     1       7.494   5.193  14.568  0.00  0.00    +0.000 N 
ATOM      8  H   UNL     1       8.241   5.155  13.884  0.00  0.00    +0.000 HD
ENDBRANCH   1   5
BRANCH   1   9
ATOM      9  S   UNL     1       6.297   5.291  19.019  0.00  0.00    +0.000 S 
BRANCH   9  10
ATOM     10  C   UNL     1       4.634   4.642  19.124  0.00  0.00    +0.000 A 
ATOM     11  C   UNL     1       4.492   3.281  19.428  0.00  0.00    +0.000 A 
ATOM     12  C   UNL     1       3.226   2.709  19.590  0.00  0.00    +0.000 A 
ATOM     13  C   UNL     1       2.090   3.501  19.455  0.00  0.00    +0.000 A 
ATOM     14 CL   UNL     1       0.531   2.806  19.668  0.00  0.00    +0.000 Cl
ATOM     15  C   UNL     1       2.213   4.855  19.158  0.00  0.00    +0.000 A 
ATOM     16  C   UNL     1       3.482   5.426  18.997  0.00  0.00    +0.000 A 
ENDBRANCH   9  10
ENDBRANCH   1   9
TORSDOF 3
ENDMDL
MODEL 7
REMARK VINA RESULT:      -6.3      1.090      1.131
REMARK  Name = 
REMARK  3 active torsions:
REMARK  status: ('A' for Active; 'I' for Inactive)
REMARK    1  A    between atoms: C_4  and  C_5
REMARK    2  A    between atoms: C_5  and  S_6
REMARK    3  A    between atoms: S_6  and  C_7
REMARK                            x       y       z     vdW  Elec       q    Type
REMARK                         _______ _______ _______ _____ _____    ______ ____
ROOT
ATOM      1  C   UNL     1       4.877   5.804  16.748  0.00  0.00    +0.000 C 
ENDROOT
BRANCH   1   5
ATOM      2  O   UNL     1       6.799   3.785  12.682  0.00  0.00    +0.000 OA
ATOM      3  C   UNL     1       6.616   4.397  13.718  0.00  0.00    +0.000 C 
ATOM      4  C   UNL     1       5.359   4.460  14.530  0.00  0.00    +0.000 C 
ATOM      5  C   UNL     1       5.797   5.370  15.646  0.00  0.00    +0.000 C 
ATOM      6  N   UNL     1       7.031   5.771  15.541  0.00  0.00    +0.000 NA
ATOM      7  N   UNL     1       7.520   5.191  14.402  0.00  0.00    +0.000 N 
ATOM      8  H   UNL     1       8.475   5.351  14.101  0.00  0.00    +0.000 HD
ENDBRANCH   1   5
BRANCH   1   9
ATOM      9  S   UNL     1       5.658   5.474  18.358  0.00  0.00    +0.000 S 
BRANCH   9  10
ATOM     10  C   UNL     1       4.345   4.695  19.288  0.00  0.00    +0.000 A 
ATOM     11  C   UNL     1       4.425   3.308  19.478  0.00  0.00    +0.000 A 
ATOM     12  C   UNL     1       3.472   2.631  20.246  0.00  0.00    +0.000 A 
ATOM     13  C   UNL     1       2.432   3.343  20.837  0.00  0.00    +0.000 A 
ATOM     14 CL   UNL     1       1.267   2.518  21.796  0.00  0.00    +0.000 Cl
ATOM     15  C   UNL     1       2.341   4.721  20.664  0.00  0.00    +0.000 A 
ATOM     16  C   UNL     1       3.297   5.396  19.894  0.00  0.00    +0.000 A 
ENDBRANCH   9  10
ENDBRANCH   1   9
TORSDOF 3
ENDMDL
MODEL 8
REMARK VINA RESULT:      -6.2      2.442      2.750
REMARK  Name = 
REMARK  3 active torsions:
REMARK  status: ('A' for Active; 'I' for Inactive)
REMARK    1  A    between atoms: C_4  and  C_5
REMARK    2  A    between atoms: C_5  and  S_6
REMARK    3  A    between atoms: S_6  and  C_7
REMARK                            x       y       z     vdW  Elec       q    Type
REMARK                         _______ _______ _______ _____ _____    ______ ____
ROOT
ATOM      1  C   UNL     1       4.868   6.525  16.604  0.00  0.00    +0.000 C 
ENDROOT
BRANCH   1   5
ATOM      2  O   UNL     1       8.291   5.221  19.904  0.00  0.00    +0.000 OA
ATOM      3  C   UNL     1       7.645   5.781  19.038  0.00  0.00    +0.000 C 
ATOM      4  C   UNL     1       6.297   5.394  18.511  0.00  0.00    +0.000 C 
ATOM      5  C   UNL     1       6.086   6.468  17.477  0.00  0.00    +0.000 C 
ATOM      6  N   UNL     1       7.073   7.312  17.390  0.00  0.00    +0.000 NA
ATOM      7  N   UNL     1       7.995   6.911  18.318  0.00  0.00    +0.000 N 
ATOM      8  H   UNL     1       8.865   7.416  18.446  0.00  0.00    +0.000 HD
ENDBRANCH   1   5
BRANCH   1   9
ATOM      9  S   UNL     1       3.564   7.479  17.440  0.00  0.00    +0.000 S 
BRANCH   9  10
ATOM     10  C   UNL     1       2.758   6.250  18.457  0.00  0.00    +0.000 A 
ATOM     11  C   UNL     1       2.526   4.991  17.885  0.00  0.00    +0.000 A 
ATOM     12  C   UNL     1       1.957   3.955  18.633  0.00  0.00    +0.000 A 
ATOM     13  C   UNL     1       1.623   4.171  19.966  0.00  0.00    +0.000 A 
ATOM     14 CL   UNL     1       0.939   2.895  20.895  0.00  0.00    +0.000 Cl
ATOM     15  C   UNL     1       1.853   5.412  20.552  0.00  0.00    +0.000 A 
ATOM     16  C   UNL     1       2.422   6.449  19.801  0.00  0.00    +0.000 A 
ENDBRANCH   9  10
ENDBRANCH   1   9
TORSDOF 3
ENDMDL
MODEL 9
REMARK VINA RESULT:      -6.2      3.464      4.253
REMARK  Name = 
REMARK  3 active torsions:
REMARK  status: ('A' for Active; 'I' for Inactive)
REMARK    1  A    between atoms: C_4  and  C_5
REMARK    2  A    between atoms: C_5  and  S_6
REMARK    3  A    between atoms: S_6  and  C_7
REMARK                            x       y       z     vdW  Elec       q    Type
REMARK                         _______ _______ _______ _____ _____    ______ ____
ROOT
ATOM      1  C   UNL     1       4.164   5.474  19.347  0.00  0.00    +0.000 C 
ENDROOT
BRANCH   1   5
ATOM      2  O   UNL     1       8.215   4.205  16.840  0.00  0.00    +0.000 OA
ATOM      3  C   UNL     1       7.422   4.564  17.690  0.00  0.00    +0.000 C 
ATOM      4  C   UNL     1       5.931   4.656  17.568  0.00  0.00    +0.000 C 
ATOM      5  C   UNL     1       5.573   5.164  18.939  0.00  0.00    +0.000 C 
ATOM      6  N   UNL     1       6.602   5.342  19.717  0.00  0.00    +0.000 NA
ATOM      7  N   UNL     1       7.698   4.982  18.981  0.00  0.00    +0.000 N 
ATOM      8  H   UNL     1       8.632   5.031  19.372  0.00  0.00    +0.000 HD
ENDBRANCH   1   5
BRANCH   1   9
ATOM      9  S   UNL     1       3.283   6.243  17.954  0.00  0.00    +0.000 S 
BRANCH   9  10
ATOM     10  C   UNL     1       2.351   7.550  18.743  0.00  0.00    +0.000 A 
ATOM     11  C   UNL     1       1.903   8.602  17.931  0.00  0.00    +0.000 A 
ATOM     12  C   UNL     1       1.115   9.631  18.457  0.00  0.00    +0.000 A 
ATOM     13  C   UNL     1       0.764   9.610  19.803  0.00  0.00    +0.000 A 
ATOM     14 CL   UNL     1      -0.218  10.865  20.452  0.00  0.00    +0.000 Cl
ATOM     15  C   UNL     1       1.196   8.571  20.622  0.00  0.00    +0.000 A 
ATOM     16  C   UNL     1       1.985   7.541  20.092  0.00  0.00    +0.000 A 
ENDBRANCH   9  10
ENDBRANCH   1   9
TORSDOF 3
ENDMDL
