MODEL 1
REMARK VINA RESULT:      -7.6      0.000      0.000
REMARK  Name = 
REMARK  9 active torsions:
REMARK  status: ('A' for Active; 'I' for Inactive)
REMARK    1  A    between atoms: C_2  and  C_3
REMARK    2  A    between atoms: C_3  and  C_4
REMARK    3  A    between atoms: C_4  and  C_5
REMARK    4  A    between atoms: C_5  and  O_6
REMARK    5  A    between atoms: O_6  and  C_7
REMARK    6  A    between atoms: N_15  and  N_16
REMARK    7  A    between atoms: C_17  and  C_18
REMARK    8  A    between atoms: C_21  and  O_22
REMARK    9  A    between atoms: C_24  and  O_25
REMARK                            x       y       z     vdW  Elec       q    Type
REMARK                         _______ _______ _______ _____ _____    ______ ____
ROOT
ATOM      1  O   UNL     1       7.945   6.474  18.934  0.00  0.00    +0.000 OA
ATOM      2  C   UNL     1       7.691   6.947  17.828  0.00  0.00    +0.000 C 
ATOM      3  N   UNL     1       7.941   8.264  17.454  0.00  0.00    +0.000 N 
ATOM      4  H   UNL     1       7.702   8.600  16.531  0.00  0.00    +0.000 HD
ENDROOT
BRANCH   3   5
ATOM      5  N   UNL     1       8.476   9.138  18.362  0.00  0.00    +0.000 NA
ATOM      6  C   UNL     1       8.667  10.346  17.929  0.00  0.00    +0.000 C 
BRANCH   6   7
ATOM      7  C   UNL     1       9.233  11.406  18.791  0.00  0.00    +0.000 A 
ATOM      8  C   UNL     1       9.809  11.072  20.024  0.00  0.00    +0.000 A 
ATOM      9  C   UNL     1      10.321  12.073  20.853  0.00  0.00    +0.000 A 
ATOM     10  C   UNL     1      10.252  13.401  20.441  0.00  0.00    +0.000 A 
ATOM     11  C   UNL     1       9.687  13.748  19.216  0.00  0.00    +0.000 A 
ATOM     12  C   UNL     1       9.179  12.745  18.390  0.00  0.00    +0.000 A 
BRANCH  10  13
ATOM     13  O   UNL     1      10.732  14.410  21.223  0.00  0.00    +0.000 OA
ATOM     14  H   UNL     1       9.994  14.795  21.726  0.00  0.00    +0.000 HD
ENDBRANCH  10  13
BRANCH  12  15
ATOM     15  O   UNL     1       8.621  13.078  17.185  0.00  0.00    +0.000 OA
ATOM     16  H   UNL     1       9.330  13.166  16.525  0.00  0.00    +0.000 HD
ENDBRANCH  12  15
ENDBRANCH   6   7
ENDBRANCH   3   5
BRANCH   2  17
ATOM     17  C   UNL     1       7.092   6.113  16.704  0.00  0.00    +0.000 C 
BRANCH  17  18
ATOM     18  C   UNL     1       7.031   4.621  17.049  0.00  0.00    +0.000 C 
BRANCH  18  19
ATOM     19  C   UNL     1       5.974   3.905  16.221  0.00  0.00    +0.000 C 
BRANCH  19  20
ATOM     20  O   UNL     1       4.792   4.706  16.147  0.00  0.00    +0.000 OA
BRANCH  20  21
ATOM     21  C   UNL     1       3.882   4.446  17.145  0.00  0.00    +0.000 A 
ATOM     22  C   UNL     1       3.469   3.148  17.467  0.00  0.00    +0.000 A 
ATOM     23  C   UNL     1       2.541   2.929  18.489  0.00  0.00    +0.000 A 
ATOM     24  C   UNL     1       2.015   4.011  19.183  0.00  0.00    +0.000 A 
ATOM     25 CL   UNL     1       0.877   3.727  20.439  0.00  0.00    +0.000 Cl
ATOM     26  C   UNL     1       2.405   5.310  18.871  0.00  0.00    +0.000 A 
ATOM     27  C   UNL     1       3.330   5.529  17.845  0.00  0.00    +0.000 A 
ATOM     28 CL   UNL     1       3.804   7.156  17.512  0.00  0.00    +0.000 Cl
ENDBRANCH  20  21
ENDBRANCH  19  20
ENDBRANCH  18  19
ENDBRANCH  17  18
ENDBRANCH   2  17
TORSDOF 9
ENDMDL
MODEL 2
REMARK VINA RESULT:      -7.4      1.386      1.691
REMARK  Name = 
REMARK  9 active torsions:
REMARK  status: ('A' for Active; 'I' for Inactive)
REMARK    1  A    between atoms: C_2  and  C_3
REMARK    2  A    between atoms: C_3  and  C_4
REMARK    3  A    between atoms: C_4  and  C_5
REMARK    4  A    between atoms: C_5  and  O_6
REMARK    5  A    between atoms: O_6  and  C_7
REMARK    6  A    between atoms: N_15  and  N_16
REMARK    7  A    between atoms: C_17  and  C_18
REMARK    8  A    between atoms: C_21  and  O_22
REMARK    9  A    between atoms: C_24  and  O_25
REMARK                            x       y       z     vdW  Elec       q    Type
REMARK                         _______ _______ _______ _____ _____    ______ ____
ROOT
ATOM      1  O   UNL     1       8.049   6.387  18.536  0.00  0.00    +0.000 OA
ATOM      2  C   UNL     1       7.339   7.010  17.749  0.00  0.00    +0.000 C 
ATOM      3  N   UNL     1       7.488   8.361  17.448  0.00  0.00    +0.000 N 
ATOM      4  H   UNL     1       6.867   8.823  16.798  0.00  0.00    +0.000 HD
ENDROOT
BRANCH   3   5
ATOM      5  N   UNL     1       8.460   9.093  18.075  0.00  0.00    +0.000 NA
ATOM      6  C   UNL     1       8.504  10.351  17.757  0.00  0.00    +0.000 C 
BRANCH   6   7
ATOM      7  C   UNL     1       9.494  11.273  18.353  0.00  0.00    +0.000 A 
ATOM      8  C   UNL     1      10.141  12.220  17.547  0.00  0.00    +0.000 A 
ATOM      9  C   UNL     1      11.097  13.076  18.101  0.00  0.00    +0.000 A 
ATOM     10  C   UNL     1      11.399  12.976  19.457  0.00  0.00    +0.000 A 
ATOM     11  C   UNL     1      10.760  12.043  20.270  0.00  0.00    +0.000 A 
ATOM     12  C   UNL     1       9.804  11.192  19.714  0.00  0.00    +0.000 A 
BRANCH  10  13
ATOM     13  O   UNL     1      12.331  13.785  20.036  0.00  0.00    +0.000 OA
ATOM     14  H   UNL     1      12.926  14.123  19.345  0.00  0.00    +0.000 HD
ENDBRANCH  10  13
BRANCH  12  15
ATOM     15  O   UNL     1       9.173  10.271  20.507  0.00  0.00    +0.000 OA
ATOM     16  H   UNL     1       8.744  10.736  21.247  0.00  0.00    +0.000 HD
ENDBRANCH  12  15
ENDBRANCH   6   7
ENDBRANCH   3   5
BRANCH   2  17
ATOM     17  C   UNL     1       6.212   6.347  16.970  0.00  0.00    +0.000 C 
BRANCH  17  18
ATOM     18  C   UNL     1       6.505   4.878  16.649  0.00  0.00    +0.000 C 
BRANCH  18  19
ATOM     19  C   UNL     1       5.219   4.075  16.516  0.00  0.00    +0.000 C 
BRANCH  19  20
ATOM     20  O   UNL     1       4.113   4.850  16.984  0.00  0.00    +0.000 OA
BRANCH  20  21
ATOM     21  C   UNL     1       3.473   4.305  18.073  0.00  0.00    +0.000 A 
ATOM     22  C   UNL     1       3.632   2.965  18.447  0.00  0.00    +0.000 A 
ATOM     23  C   UNL     1       2.963   2.452  19.561  0.00  0.00    +0.000 A 
ATOM     24  C   UNL     1       2.122   3.276  20.296  0.00  0.00    +0.000 A 
ATOM     25 CL   UNL     1       1.307   2.632  21.666  0.00  0.00    +0.000 Cl
ATOM     26  C   UNL     1       1.942   4.608  19.936  0.00  0.00    +0.000 A 
ATOM     27  C   UNL     1       2.608   5.120  18.818  0.00  0.00    +0.000 A 
ATOM     28 CL   UNL     1       2.374   6.786  18.425  0.00  0.00    +0.000 Cl
ENDBRANCH  20  21
ENDBRANCH  19  20
ENDBRANCH  18  19
ENDBRANCH  17  18
ENDBRANCH   2  17
TORSDOF 9
ENDMDL
MODEL 3
REMARK VINA RESULT:      -7.4      1.376      1.851
REMARK  Name = 
REMARK  9 active torsions:
REMARK  status: ('A' for Active; 'I' for Inactive)
REMARK    1  A    between atoms: C_2  and  C_3
REMARK    2  A    between atoms: C_3  and  C_4
REMARK    3  A    between atoms: C_4  and  C_5
REMARK    4  A    between atoms: C_5  and  O_6
REMARK    5  A    between atoms: O_6  and  C_7
REMARK    6  A    between atoms: N_15  and  N_16
REMARK    7  A    between atoms: C_17  and  C_18
REMARK    8  A    between atoms: C_21  and  O_22
REMARK    9  A    between atoms: C_24  and  O_25
REMARK                            x       y       z     vdW  Elec       q    Type
REMARK                         _______ _______ _______ _____ _____    ______ ____
ROOT
ATOM      1  O   UNL     1       7.087   7.809  17.156  0.00  0.00    +0.000 OA
ATOM      2  C   UNL     1       7.816   7.400  18.057  0.00  0.00    +0.000 C 
ATOM      3  N   UNL     1       8.674   8.200  18.806  0.00  0.00    +0.000 N 
ATOM      4  H   UNL     1       9.258   7.805  19.530  0.00  0.00    +0.000 HD
ENDROOT
BRANCH   3   5
ATOM      5  N   UNL     1       8.769   9.536  18.529  0.00  0.00    +0.000 NA
ATOM      6  C   UNL     1       9.386  10.249  19.422  0.00  0.00    +0.000 C 
BRANCH   6   7
ATOM      7  C   UNL     1       9.574  11.707  19.266  0.00  0.00    +0.000 A 
ATOM      8  C   UNL     1       9.439  12.299  18.003  0.00  0.00    +0.000 A 
ATOM      9  C   UNL     1       9.641  13.673  17.847  0.00  0.00    +0.000 A 
ATOM     10  C   UNL     1       9.978  14.443  18.957  0.00  0.00    +0.000 A 
ATOM     11  C   UNL     1      10.111  13.869  20.219  0.00  0.00    +0.000 A 
ATOM     12  C   UNL     1       9.905  12.498  20.371  0.00  0.00    +0.000 A 
BRANCH  10  13
ATOM     13  O   UNL     1      10.193  15.785  18.848  0.00  0.00    +0.000 OA
ATOM     14  H   UNL     1      10.605  15.968  17.987  0.00  0.00    +0.000 HD
ENDBRANCH  10  13
BRANCH  12  15
ATOM     15  O   UNL     1      10.037  11.926  21.608  0.00  0.00    +0.000 OA
ATOM     16  H   UNL     1       9.159  11.878  22.025  0.00  0.00    +0.000 HD
ENDBRANCH  12  15
ENDBRANCH   6   7
ENDBRANCH   3   5
BRANCH   2  17
ATOM     17  C   UNL     1       7.835   5.940  18.489  0.00  0.00    +0.000 C 
BRANCH  17  18
ATOM     18  C   UNL     1       6.445   5.297  18.447  0.00  0.00    +0.000 C 
BRANCH  18  19
ATOM     19  C   UNL     1       6.202   4.592  17.120  0.00  0.00    +0.000 C 
BRANCH  19  20
ATOM     20  O   UNL     1       4.927   4.971  16.595  0.00  0.00    +0.000 OA
BRANCH  20  21
ATOM     21  C   UNL     1       3.867   4.343  17.204  0.00  0.00    +0.000 A 
ATOM     22  C   UNL     1       3.714   2.952  17.203  0.00  0.00    +0.000 A 
ATOM     23  C   UNL     1       2.621   2.354  17.835  0.00  0.00    +0.000 A 
ATOM     24  C   UNL     1       1.669   3.150  18.459  0.00  0.00    +0.000 A 
ATOM     25 CL   UNL     1       0.330   2.402  19.234  0.00  0.00    +0.000 Cl
ATOM     26  C   UNL     1       1.796   4.536  18.463  0.00  0.00    +0.000 A 
ATOM     27  C   UNL     1       2.889   5.133  17.826  0.00  0.00    +0.000 A 
ATOM     28 CL   UNL     1       3.018   6.855  17.880  0.00  0.00    +0.000 Cl
ENDBRANCH  20  21
ENDBRANCH  19  20
ENDBRANCH  18  19
ENDBRANCH  17  18
ENDBRANCH   2  17
TORSDOF 9
ENDMDL
MODEL 4
REMARK VINA RESULT:      -7.3      3.905     10.049
REMARK  Name = 
REMARK  9 active torsions:
REMARK  status: ('A' for Active; 'I' for Inactive)
REMARK    1  A    between atoms: C_2  and  C_3
REMARK    2  A    between atoms: C_3  and  C_4
REMARK    3  A    between atoms: C_4  and  C_5
REMARK    4  A    between atoms: C_5  and  O_6
REMARK    5  A    between atoms: O_6  and  C_7
REMARK    6  A    between atoms: N_15  and  N_16
REMARK    7  A    between atoms: C_17  and  C_18
REMARK    8  A    between atoms: C_21  and  O_22
REMARK    9  A    between atoms: C_24  and  O_25
REMARK                            x       y       z     vdW  Elec       q    Type
REMARK                         _______ _______ _______ _____ _____    ______ ____
ROOT
ATOM      1  O   UNL     1       6.372   6.668  17.261  0.00  0.00    +0.000 OA
ATOM      2  C   UNL     1       7.082   6.491  18.250  0.00  0.00    +0.000 C 
ATOM      3  N   UNL     1       6.939   5.439  19.149  0.00  0.00    +0.000 N 
ATOM      4  H   UNL     1       7.548   5.351  19.951  0.00  0.00    +0.000 HD
ENDROOT
BRANCH   3   5
ATOM      5  N   UNL     1       5.929   4.532  18.977  0.00  0.00    +0.000 NA
ATOM      6  C   UNL     1       4.732   4.977  19.213  0.00  0.00    +0.000 C 
BRANCH   6   7
ATOM      7  C   UNL     1       3.536   4.120  19.068  0.00  0.00    +0.000 A 
ATOM      8  C   UNL     1       2.445   4.288  19.931  0.00  0.00    +0.000 A 
ATOM      9  C   UNL     1       1.324   3.463  19.812  0.00  0.00    +0.000 A 
ATOM     10  C   UNL     1       1.305   2.474  18.833  0.00  0.00    +0.000 A 
ATOM     11  C   UNL     1       2.380   2.298  17.965  0.00  0.00    +0.000 A 
ATOM     12  C   UNL     1       3.497   3.127  18.084  0.00  0.00    +0.000 A 
BRANCH  10  13
ATOM     13  O   UNL     1       0.235   1.641  18.689  0.00  0.00    +0.000 OA
ATOM     14  H   UNL     1      -0.151   1.472  19.565  0.00  0.00    +0.000 HD
ENDBRANCH  10  13
BRANCH  12  15
ATOM     15  O   UNL     1       4.559   2.958  17.236  0.00  0.00    +0.000 OA
ATOM     16  H   UNL     1       5.162   2.298  17.618  0.00  0.00    +0.000 HD
ENDBRANCH  12  15
ENDBRANCH   6   7
ENDBRANCH   3   5
BRANCH   2  17
ATOM     17  C   UNL     1       8.248   7.410  18.588  0.00  0.00    +0.000 C 
BRANCH  17  18
ATOM     18  C   UNL     1       8.330   8.622  17.654  0.00  0.00    +0.000 C 
BRANCH  18  19
ATOM     19  C   UNL     1       8.380   9.923  18.441  0.00  0.00    +0.000 C 
BRANCH  19  20
ATOM     20  O   UNL     1       9.554   9.951  19.256  0.00  0.00    +0.000 OA
BRANCH  20  21
ATOM     21  C   UNL     1       9.728  11.133  19.939  0.00  0.00    +0.000 A 
ATOM     22  C   UNL     1       9.061  11.416  21.136  0.00  0.00    +0.000 A 
ATOM     23  C   UNL     1       9.268  12.630  21.797  0.00  0.00    +0.000 A 
ATOM     24  C   UNL     1      10.135  13.569  21.254  0.00  0.00    +0.000 A 
ATOM     25 CL   UNL     1      10.382  15.056  22.078  0.00  0.00    +0.000 Cl
ATOM     26  C   UNL     1      10.801  13.311  20.059  0.00  0.00    +0.000 A 
ATOM     27  C   UNL     1      10.589  12.098  19.396  0.00  0.00    +0.000 A 
ATOM     28 CL   UNL     1      11.458  11.812  17.930  0.00  0.00    +0.000 Cl
ENDBRANCH  20  21
ENDBRANCH  19  20
ENDBRANCH  18  19
ENDBRANCH  17  18
ENDBRANCH   2  17
TORSDOF 9
ENDMDL
MODEL 5
REMARK VINA RESULT:      -7.2      1.707      2.146
REMARK  Name = 
REMARK  9 active torsions:
REMARK  status: ('A' for Active; 'I' for Inactive)
REMARK    1  A    between atoms: C_2  and  C_3
REMARK    2  A    between atoms: C_3  and  C_4
REMARK    3  A    between atoms: C_4  and  C_5
REMARK    4  A    between atoms: C_5  and  O_6
REMARK    5  A    between atoms: O_6  and  C_7
REMARK    6  A    between atoms: N_15  and  N_16
REMARK    7  A    between atoms: C_17  and  C_18
REMARK    8  A    between atoms: C_21  and  O_22
REMARK    9  A    between atoms: C_24  and  O_25
REMARK                            x       y       z     vdW  Elec       q    Type
REMARK                         _______ _______ _______ _____ _____    ______ ____
ROOT
ATOM      1  O   UNL     1       7.482   8.054  17.166  0.00  0.00    +0.000 OA
ATOM      2  C   UNL     1       8.089   7.782  18.201  0.00  0.00    +0.000 C 
ATOM      3  N   UNL     1       8.770   8.707  18.986  0.00  0.00    +0.000 N 
ATOM      4  H   UNL     1       9.259   8.422  19.823  0.00  0.00    +0.000 HD
ENDROOT
BRANCH   3   5
ATOM      5  N   UNL     1       8.821  10.018  18.598  0.00  0.00    +0.000 NA
ATOM      6  C   UNL     1       9.954  10.618  18.804  0.00  0.00    +0.000 C 
BRANCH   6   7
ATOM      7  C   UNL     1      10.167  12.034  18.436  0.00  0.00    +0.000 A 
ATOM      8  C   UNL     1      10.935  12.356  17.308  0.00  0.00    +0.000 A 
ATOM      9  C   UNL     1      11.160  13.693  16.972  0.00  0.00    +0.000 A 
ATOM     10  C   UNL     1      10.617  14.698  17.768  0.00  0.00    +0.000 A 
ATOM     11  C   UNL     1       9.849  14.393  18.889  0.00  0.00    +0.000 A 
ATOM     12  C   UNL     1       9.623  13.056  19.220  0.00  0.00    +0.000 A 
BRANCH  10  13
ATOM     13  O   UNL     1      10.820  16.016  17.481  0.00  0.00    +0.000 OA
ATOM     14  H   UNL     1      10.056  16.527  17.797  0.00  0.00    +0.000 HD
ENDBRANCH  10  13
BRANCH  12  15
ATOM     15  O   UNL     1       8.870  12.749  20.321  0.00  0.00    +0.000 OA
ATOM     16  H   UNL     1       9.331  13.071  21.115  0.00  0.00    +0.000 HD
ENDBRANCH  12  15
ENDBRANCH   6   7
ENDBRANCH   3   5
BRANCH   2  17
ATOM     17  C   UNL     1       8.134   6.370  18.770  0.00  0.00    +0.000 C 
BRANCH  17  18
ATOM     18  C   UNL     1       6.738   5.764  18.946  0.00  0.00    +0.000 C 
BRANCH  18  19
ATOM     19  C   UNL     1       6.491   4.646  17.943  0.00  0.00    +0.000 C 
BRANCH  19  20
ATOM     20  O   UNL     1       5.120   4.654  17.536  0.00  0.00    +0.000 OA
BRANCH  20  21
ATOM     21  C   UNL     1       4.251   4.207  18.504  0.00  0.00    +0.000 A 
ATOM     22  C   UNL     1       4.397   2.965  19.132  0.00  0.00    +0.000 A 
ATOM     23  C   UNL     1       3.491   2.551  20.111  0.00  0.00    +0.000 A 
ATOM     24  C   UNL     1       2.427   3.374  20.455  0.00  0.00    +0.000 A 
ATOM     25 CL   UNL     1       1.321   2.852  21.662  0.00  0.00    +0.000 Cl
ATOM     26  C   UNL     1       2.258   4.609  19.836  0.00  0.00    +0.000 A 
ATOM     27  C   UNL     1       3.163   5.021  18.852  0.00  0.00    +0.000 A 
ATOM     28 CL   UNL     1       2.927   6.573  18.131  0.00  0.00    +0.000 Cl
ENDBRANCH  20  21
ENDBRANCH  19  20
ENDBRANCH  18  19
ENDBRANCH  17  18
ENDBRANCH   2  17
TORSDOF 9
ENDMDL
MODEL 6
REMARK VINA RESULT:      -7.2      1.936      2.341
REMARK  Name = 
REMARK  9 active torsions:
REMARK  status: ('A' for Active; 'I' for Inactive)
REMARK    1  A    between atoms: C_2  and  C_3
REMARK    2  A    between atoms: C_3  and  C_4
REMARK    3  A    between atoms: C_4  and  C_5
REMARK    4  A    between atoms: C_5  and  O_6
REMARK    5  A    between atoms: O_6  and  C_7
REMARK    6  A    between atoms: N_15  and  N_16
REMARK    7  A    between atoms: C_17  and  C_18
REMARK    8  A    between atoms: C_21  and  O_22
REMARK    9  A    between atoms: C_24  and  O_25
REMARK                            x       y       z     vdW  Elec       q    Type
REMARK                         _______ _______ _______ _____ _____    ______ ____
ROOT
ATOM      1  O   UNL     1       7.916   7.075  16.467  0.00  0.00    +0.000 OA
ATOM      2  C   UNL     1       7.605   7.138  17.655  0.00  0.00    +0.000 C 
ATOM      3  N   UNL     1       7.904   8.205  18.497  0.00  0.00    +0.000 N 
ATOM      4  H   UNL     1       7.629   8.195  19.470  0.00  0.00    +0.000 HD
ENDROOT
BRANCH   3   5
ATOM      5  N   UNL     1       8.622   9.266  18.018  0.00  0.00    +0.000 NA
ATOM      6  C   UNL     1       9.091  10.075  18.918  0.00  0.00    +0.000 C 
BRANCH   6   7
ATOM      7  C   UNL     1       9.891  11.266  18.559  0.00  0.00    +0.000 A 
ATOM      8  C   UNL     1      11.215  11.379  19.003  0.00  0.00    +0.000 A 
ATOM      9  C   UNL     1      11.966  12.515  18.687  0.00  0.00    +0.000 A 
ATOM     10  C   UNL     1      11.384  13.529  17.931  0.00  0.00    +0.000 A 
ATOM     11  C   UNL     1      10.070  13.428  17.480  0.00  0.00    +0.000 A 
ATOM     12  C   UNL     1       9.325  12.291  17.794  0.00  0.00    +0.000 A 
BRANCH  10  13
ATOM     13  O   UNL     1      12.077  14.658  17.608  0.00  0.00    +0.000 OA
ATOM     14  H   UNL     1      12.581  14.950  18.386  0.00  0.00    +0.000 HD
ENDBRANCH  10  13
BRANCH  12  15
ATOM     15  O   UNL     1       8.032  12.185  17.355  0.00  0.00    +0.000 OA
ATOM     16  H   UNL     1       7.980  12.534  16.448  0.00  0.00    +0.000 HD
ENDBRANCH  12  15
ENDBRANCH   6   7
ENDBRANCH   3   5
BRANCH   2  17
ATOM     17  C   UNL     1       6.807   6.040  18.345  0.00  0.00    +0.000 C 
BRANCH  17  18
ATOM     18  C   UNL     1       5.692   5.478  17.457  0.00  0.00    +0.000 C 
BRANCH  18  19
ATOM     19  C   UNL     1       4.363   6.162  17.741  0.00  0.00    +0.000 C 
BRANCH  19  20
ATOM     20  O   UNL     1       3.286   5.261  17.468  0.00  0.00    +0.000 OA
BRANCH  20  21
ATOM     21  C   UNL     1       2.790   4.634  18.586  0.00  0.00    +0.000 A 
ATOM     22  C   UNL     1       2.173   5.331  19.630  0.00  0.00    +0.000 A 
ATOM     23  C   UNL     1       1.682   4.653  20.748  0.00  0.00    +0.000 A 
ATOM     24  C   UNL     1       1.820   3.274  20.831  0.00  0.00    +0.000 A 
ATOM     25 CL   UNL     1       1.211   2.451  22.211  0.00  0.00    +0.000 Cl
ATOM     26  C   UNL     1       2.440   2.562  19.808  0.00  0.00    +0.000 A 
ATOM     27  C   UNL     1       2.935   3.242  18.691  0.00  0.00    +0.000 A 
ATOM     28 CL   UNL     1       3.673   2.313  17.435  0.00  0.00    +0.000 Cl
ENDBRANCH  20  21
ENDBRANCH  19  20
ENDBRANCH  18  19
ENDBRANCH  17  18
ENDBRANCH   2  17
TORSDOF 9
ENDMDL
MODEL 7
REMARK VINA RESULT:      -7.1      5.825      7.410
REMARK  Name = 
REMARK  9 active torsions:
REMARK  status: ('A' for Active; 'I' for Inactive)
REMARK    1  A    between atoms: C_2  and  C_3
REMARK    2  A    between atoms: C_3  and  C_4
REMARK    3  A    between atoms: C_4  and  C_5
REMARK    4  A    between atoms: C_5  and  O_6
REMARK    5  A    between atoms: O_6  and  C_7
REMARK    6  A    between atoms: N_15  and  N_16
REMARK    7  A    between atoms: C_17  and  C_18
REMARK    8  A    between atoms: C_21  and  O_22
REMARK    9  A    between atoms: C_24  and  O_25
REMARK                            x       y       z     vdW  Elec       q    Type
REMARK                         _______ _______ _______ _____ _____    ______ ____
ROOT
ATOM      1  O   UNL     1       0.576   4.280  20.298  0.00  0.00    +0.000 OA
ATOM      2  C   UNL     1       1.698   4.516  20.740  0.00  0.00    +0.000 C 
ATOM      3  N   UNL     1       2.307   5.767  20.730  0.00  0.00    +0.000 N 
ATOM      4  H   UNL     1       3.238   5.899  21.101  0.00  0.00    +0.000 HD
ENDROOT
BRANCH   3   5
ATOM      5  N   UNL     1       1.658   6.832  20.167  0.00  0.00    +0.000 NA
ATOM      6  C   UNL     1       1.553   7.884  20.920  0.00  0.00    +0.000 C 
BRANCH   6   7
ATOM      7  C   UNL     1       0.882   9.117  20.454  0.00  0.00    +0.000 A 
ATOM      8  C   UNL     1       0.014   9.808  21.309  0.00  0.00    +0.000 A 
ATOM      9  C   UNL     1      -0.641  10.958  20.862  0.00  0.00    +0.000 A 
ATOM     10  C   UNL     1      -0.423  11.407  19.563  0.00  0.00    +0.000 A 
ATOM     11  C   UNL     1       0.442  10.733  18.703  0.00  0.00    +0.000 A 
ATOM     12  C   UNL     1       1.097   9.586  19.154  0.00  0.00    +0.000 A 
BRANCH  10  13
ATOM     13  O   UNL     1      -1.048  12.520  19.083  0.00  0.00    +0.000 OA
ATOM     14  H   UNL     1      -1.055  12.483  18.112  0.00  0.00    +0.000 HD
ENDBRANCH  10  13
BRANCH  12  15
ATOM     15  O   UNL     1       1.947   8.917  18.314  0.00  0.00    +0.000 OA
ATOM     16  H   UNL     1       2.646   8.498  18.846  0.00  0.00    +0.000 HD
ENDBRANCH  12  15
ENDBRANCH   6   7
ENDBRANCH   3   5
BRANCH   2  17
ATOM     17  C   UNL     1       2.555   3.442  21.397  0.00  0.00    +0.000 C 
BRANCH  17  18
ATOM     18  C   UNL     1       3.006   2.364  20.407  0.00  0.00    +0.000 C 
BRANCH  18  19
ATOM     19  C   UNL     1       4.399   2.656  19.868  0.00  0.00    +0.000 C 
BRANCH  19  20
ATOM     20  O   UNL     1       4.491   4.030  19.483  0.00  0.00    +0.000 OA
BRANCH  20  21
ATOM     21  C   UNL     1       5.126   4.228  18.279  0.00  0.00    +0.000 A 
ATOM     22  C   UNL     1       6.487   4.541  18.189  0.00  0.00    +0.000 A 
ATOM     23  C   UNL     1       7.093   4.734  16.945  0.00  0.00    +0.000 A 
ATOM     24  C   UNL     1       6.334   4.626  15.787  0.00  0.00    +0.000 A 
ATOM     25 CL   UNL     1       7.092   4.863  14.263  0.00  0.00    +0.000 Cl
ATOM     26  C   UNL     1       4.977   4.325  15.855  0.00  0.00    +0.000 A 
ATOM     27  C   UNL     1       4.370   4.137  17.101  0.00  0.00    +0.000 A 
ATOM     28 CL   UNL     1       2.689   3.739  17.134  0.00  0.00    +0.000 Cl
ENDBRANCH  20  21
ENDBRANCH  19  20
ENDBRANCH  18  19
ENDBRANCH  17  18
ENDBRANCH   2  17
TORSDOF 9
ENDMDL
MODEL 8
REMARK VINA RESULT:      -7.1      3.570     10.223
REMARK  Name = 
REMARK  9 active torsions:
REMARK  status: ('A' for Active; 'I' for Inactive)
REMARK    1  A    between atoms: C_2  and  C_3
REMARK    2  A    between atoms: C_3  and  C_4
REMARK    3  A    between atoms: C_4  and  C_5
REMARK    4  A    between atoms: C_5  and  O_6
REMARK    5  A    between atoms: O_6  and  C_7
REMARK    6  A    between atoms: N_15  and  N_16
REMARK    7  A    between atoms: C_17  and  C_18
REMARK    8  A    between atoms: C_21  and  O_22
REMARK    9  A    between atoms: C_24  and  O_25
REMARK                            x       y       z     vdW  Elec       q    Type
REMARK                         _______ _______ _______ _____ _____    ______ ____
ROOT
ATOM      1  O   UNL     1       7.630   6.421  16.668  0.00  0.00    +0.000 OA
ATOM      2  C   UNL     1       7.086   7.375  17.221  0.00  0.00    +0.000 C 
ATOM      3  N   UNL     1       5.790   7.363  17.727  0.00  0.00    +0.000 N 
ATOM      4  H   UNL     1       5.392   8.183  18.165  0.00  0.00    +0.000 HD
ENDROOT
BRANCH   3   5
ATOM      5  N   UNL     1       5.018   6.241  17.590  0.00  0.00    +0.000 NA
ATOM      6  C   UNL     1       4.242   5.972  18.595  0.00  0.00    +0.000 C 
BRANCH   6   7
ATOM      7  C   UNL     1       3.345   4.796  18.597  0.00  0.00    +0.000 A 
ATOM      8  C   UNL     1       3.262   3.977  17.464  0.00  0.00    +0.000 A 
ATOM      9  C   UNL     1       2.396   2.880  17.453  0.00  0.00    +0.000 A 
ATOM     10  C   UNL     1       1.619   2.614  18.576  0.00  0.00    +0.000 A 
ATOM     11  C   UNL     1       1.694   3.416  19.712  0.00  0.00    +0.000 A 
ATOM     12  C   UNL     1       2.562   4.509  19.721  0.00  0.00    +0.000 A 
BRANCH  10  13
ATOM     13  O   UNL     1       0.754   1.559  18.605  0.00  0.00    +0.000 OA
ATOM     14  H   UNL     1       0.499   1.338  17.693  0.00  0.00    +0.000 HD
ENDBRANCH  10  13
BRANCH  12  15
ATOM     15  O   UNL     1       2.640   5.304  20.832  0.00  0.00    +0.000 OA
ATOM     16  H   UNL     1       3.133   6.111  20.605  0.00  0.00    +0.000 HD
ENDBRANCH  12  15
ENDBRANCH   6   7
ENDBRANCH   3   5
BRANCH   2  17
ATOM     17  C   UNL     1       7.803   8.698  17.451  0.00  0.00    +0.000 C 
BRANCH  17  18
ATOM     18  C   UNL     1       8.625   8.703  18.744  0.00  0.00    +0.000 C 
BRANCH  18  19
ATOM     19  C   UNL     1       9.169  10.092  19.047  0.00  0.00    +0.000 C 
BRANCH  19  20
ATOM     20  O   UNL     1       9.735  10.659  17.863  0.00  0.00    +0.000 OA
BRANCH  20  21
ATOM     21  C   UNL     1      10.234  11.928  18.039  0.00  0.00    +0.000 A 
ATOM     22  C   UNL     1      11.531  12.170  18.506  0.00  0.00    +0.000 A 
ATOM     23  C   UNL     1      11.998  13.477  18.669  0.00  0.00    +0.000 A 
ATOM     24  C   UNL     1      11.162  14.546  18.379  0.00  0.00    +0.000 A 
ATOM     25 CL   UNL     1      11.749  16.149  18.582  0.00  0.00    +0.000 Cl
ATOM     26  C   UNL     1       9.865  14.328  17.922  0.00  0.00    +0.000 A 
ATOM     27  C   UNL     1       9.397  13.020  17.764  0.00  0.00    +0.000 A 
ATOM     28 CL   UNL     1       7.789  12.799  17.170  0.00  0.00    +0.000 Cl
ENDBRANCH  20  21
ENDBRANCH  19  20
ENDBRANCH  18  19
ENDBRANCH  17  18
ENDBRANCH   2  17
TORSDOF 9
ENDMDL
MODEL 9
REMARK VINA RESULT:      -7.1      4.024     10.344
REMARK  Name = 
REMARK  9 active torsions:
REMARK  status: ('A' for Active; 'I' for Inactive)
REMARK    1  A    between atoms: C_2  and  C_3
REMARK    2  A    between atoms: C_3  and  C_4
REMARK    3  A    between atoms: C_4  and  C_5
REMARK    4  A    between atoms: C_5  and  O_6
REMARK    5  A    between atoms: O_6  and  C_7
REMARK    6  A    between atoms: N_15  and  N_16
REMARK    7  A    between atoms: C_17  and  C_18
REMARK    8  A    between atoms: C_21  and  O_22
REMARK    9  A    between atoms: C_24  and  O_25
REMARK                            x       y       z     vdW  Elec       q    Type
REMARK                         _______ _______ _______ _____ _____    ______ ____
ROOT
ATOM      1  O   UNL     1       7.241   6.143  16.900  0.00  0.00    +0.000 OA
ATOM      2  C   UNL     1       7.392   6.402  18.093  0.00  0.00    +0.000 C 
ATOM      3  N   UNL     1       6.729   5.758  19.133  0.00  0.00    +0.000 N 
ATOM      4  H   UNL     1       6.887   6.022  20.096  0.00  0.00    +0.000 HD
ENDROOT
BRANCH   3   5
ATOM      5  N   UNL     1       5.813   4.782  18.852  0.00  0.00    +0.000 NA
ATOM      6  C   UNL     1       4.587   5.055  19.181  0.00  0.00    +0.000 C 
BRANCH   6   7
ATOM      7  C   UNL     1       3.481   4.104  18.938  0.00  0.00    +0.000 A 
ATOM      8  C   UNL     1       2.256   4.567  18.440  0.00  0.00    +0.000 A 
ATOM      9  C   UNL     1       1.201   3.675  18.234  0.00  0.00    +0.000 A 
ATOM     10  C   UNL     1       1.379   2.326  18.530  0.00  0.00    +0.000 A 
ATOM     11  C   UNL     1       2.593   1.851  19.022  0.00  0.00    +0.000 A 
ATOM     12  C   UNL     1       3.646   2.744  19.223  0.00  0.00    +0.000 A 
BRANCH  10  13
ATOM     13  O   UNL     1       0.373   1.423  18.353  0.00  0.00    +0.000 OA
ATOM     14  H   UNL     1       0.563   0.894  17.559  0.00  0.00    +0.000 HD
ENDBRANCH  10  13
BRANCH  12  15
ATOM     15  O   UNL     1       4.841   2.285  19.708  0.00  0.00    +0.000 OA
ATOM     16  H   UNL     1       5.491   2.278  18.983  0.00  0.00    +0.000 HD
ENDBRANCH  12  15
ENDBRANCH   6   7
ENDBRANCH   3   5
BRANCH   2  17
ATOM     17  C   UNL     1       8.371   7.463  18.576  0.00  0.00    +0.000 C 
BRANCH  17  18
ATOM     18  C   UNL     1       8.447   8.666  17.631  0.00  0.00    +0.000 C 
BRANCH  18  19
ATOM     19  C   UNL     1       8.292   9.976  18.391  0.00  0.00    +0.000 C 
BRANCH  19  20
ATOM     20  O   UNL     1       9.579  10.482  18.752  0.00  0.00    +0.000 OA
BRANCH  20  21
ATOM     21  C   UNL     1       9.722  11.834  18.548  0.00  0.00    +0.000 A 
ATOM     22  C   UNL     1       8.671  12.643  18.101  0.00  0.00    +0.000 A 
ATOM     23  C   UNL     1       8.860  14.014  17.908  0.00  0.00    +0.000 A 
ATOM     24  C   UNL     1      10.106  14.577  18.149  0.00  0.00    +0.000 A 
ATOM     25 CL   UNL     1      10.324  16.264  17.908  0.00  0.00    +0.000 Cl
ATOM     26  C   UNL     1      11.167  13.788  18.584  0.00  0.00    +0.000 A 
ATOM     27  C   UNL     1      10.978  12.416  18.773  0.00  0.00    +0.000 A 
ATOM     28 CL   UNL     1      12.317  11.482  19.340  0.00  0.00    +0.000 Cl
ENDBRANCH  20  21
ENDBRANCH  19  20
ENDBRANCH  18  19
ENDBRANCH  17  18
ENDBRANCH   2  17
TORSDOF 9
ENDMDL
