MODEL 1
REMARK VINA RESULT:      -7.6      0.000      0.000
REMARK  Name = 
REMARK  7 active torsions:
REMARK  status: ('A' for Active; 'I' for Inactive)
REMARK    1  A    between atoms: C_1  and  O_2
REMARK    2  A    between atoms: O_2  and  C_3
REMARK    3  A    between atoms: N_11  and  C_12
REMARK    4  A    between atoms: C_12  and  C_13
REMARK    5  A    between atoms: C_19  and  C_21
REMARK    6  A    between atoms: C_24  and  S_25
REMARK    7  A    between atoms: S_25  and  C_26
REMARK                            x       y       z     vdW  Elec       q    Type
REMARK                         _______ _______ _______ _____ _____    ______ ____
ROOT
ATOM      1  C   UNL     1      -1.439  16.040  20.269  0.00  0.00    +0.000 A 
ATOM      2  C   UNL     1      -1.887  16.981  21.208  0.00  0.00    +0.000 A 
ATOM      3  C   UNL     1      -2.418  16.570  22.424  0.00  0.00    +0.000 A 
ATOM      4  C   UNL     1      -2.498  15.211  22.738  0.00  0.00    +0.000 A 
ATOM      5 CL   UNL     1      -3.170  14.749  24.257  0.00  0.00    +0.000 Cl
ATOM      6  C   UNL     1      -2.012  14.262  21.819  0.00  0.00    +0.000 A 
ATOM      7  S   UNL     1      -1.938  12.532  21.938  0.00  0.00    +0.000 S 
ATOM      8  C   UNL     1      -1.147  12.467  20.437  0.00  0.00    +0.000 A 
ATOM      9  N   UNL     1      -0.743  11.222  19.983  0.00  0.00    +0.000 N 
ATOM     10  C   UNL     1       0.637  10.955  20.156  0.00  0.00    +0.000 C 
ATOM     11  O   UNL     1       1.404  11.695  20.777  0.00  0.00    +0.000 OA
ATOM     12  N   UNL     1      -1.015  13.597  19.790  0.00  0.00    +0.000 NA
ATOM     13  C   UNL     1      -1.474  14.649  20.580  0.00  0.00    +0.000 A 
ENDROOT
BRANCH  10  14
ATOM     14  C   UNL     1       1.229   9.658  19.666  0.00  0.00    +0.000 A 
ATOM     15  C   UNL     1       1.400   8.530  20.479  0.00  0.00    +0.000 A 
ATOM     16  C   UNL     1       2.059   7.390  20.018  0.00  0.00    +0.000 A 
ATOM     17  C   UNL     1       2.421   7.308  18.678  0.00  0.00    +0.000 A 
ATOM     18  C   UNL     1       2.174   8.375  17.810  0.00  0.00    +0.000 A 
ATOM     19  C   UNL     1       1.589   9.551  18.311  0.00  0.00    +0.000 A 
BRANCH  17  20
ATOM     20  S   UNL     1       3.175   5.805  18.103  0.00  0.00    +0.000 S 
ATOM     21  C   UNL     1       4.005   5.201  19.551  0.00  0.00    +0.000 C 
ATOM     22  O   UNL     1       2.105   4.880  17.769  0.00  0.00    +0.000 OA
ATOM     23  O   UNL     1       4.174   6.172  17.125  0.00  0.00    +0.000 OA
ENDBRANCH  17  20
ENDBRANCH  10  14
BRANCH   1  25
ATOM     24  C   UNL     1       0.439  17.016  19.201  0.00  0.00    +0.000 C 
ATOM     25  O   UNL     1      -0.922  16.609  19.109  0.00  0.00    +0.000 OA
ENDBRANCH   1  25
BRANCH   9  26
ATOM     26  C   UNL     1      -1.645  10.313  19.290  0.00  0.00    +0.000 C 
BRANCH  26  27
ATOM     27  C   UNL     1      -2.276  10.637  17.968  0.00  0.00    +0.000 A 
ATOM     28  C   UNL     1      -1.912   9.958  16.800  0.00  0.00    +0.000 A 
ATOM     29  C   UNL     1      -2.728  10.040  15.677  0.00  0.00    +0.000 A 
ATOM     30  C   UNL     1      -3.877  10.810  15.755  0.00  0.00    +0.000 A 
ATOM     31  N   UNL     1      -4.239  11.508  16.852  0.00  0.00    +0.000 NA
ATOM     32  C   UNL     1      -3.435  11.406  17.931  0.00  0.00    +0.000 A 
ENDBRANCH  26  27
ENDBRANCH   9  26
TORSDOF 5
ENDMDL
MODEL 2
REMARK VINA RESULT:      -7.2      0.878      1.267
REMARK  Name = 
REMARK  7 active torsions:
REMARK  status: ('A' for Active; 'I' for Inactive)
REMARK    1  A    between atoms: C_1  and  O_2
REMARK    2  A    between atoms: O_2  and  C_3
REMARK    3  A    between atoms: N_11  and  C_12
REMARK    4  A    between atoms: C_12  and  C_13
REMARK    5  A    between atoms: C_19  and  C_21
REMARK    6  A    between atoms: C_24  and  S_25
REMARK    7  A    between atoms: S_25  and  C_26
REMARK                            x       y       z     vdW  Elec       q    Type
REMARK                         _______ _______ _______ _____ _____    ______ ____
ROOT
ATOM      1  C   UNL     1      -1.049  16.475  19.231  0.00  0.00    +0.000 A 
ATOM      2  C   UNL     1      -1.409  17.584  20.011  0.00  0.00    +0.000 A 
ATOM      3  C   UNL     1      -1.904  17.414  21.298  0.00  0.00    +0.000 A 
ATOM      4  C   UNL     1      -2.035  16.133  21.842  0.00  0.00    +0.000 A 
ATOM      5 CL   UNL     1      -2.660  15.972  23.440  0.00  0.00    +0.000 Cl
ATOM      6  C   UNL     1      -1.637  15.017  21.081  0.00  0.00    +0.000 A 
ATOM      7  S   UNL     1      -1.641  13.331  21.491  0.00  0.00    +0.000 S 
ATOM      8  C   UNL     1      -0.922  12.970  19.995  0.00  0.00    +0.000 A 
ATOM      9  N   UNL     1      -0.600  11.647  19.747  0.00  0.00    +0.000 N 
ATOM     10  C   UNL     1       0.772  11.337  19.913  0.00  0.00    +0.000 C 
ATOM     11  O   UNL     1       1.601  12.127  20.370  0.00  0.00    +0.000 OA
ATOM     12  N   UNL     1      -0.766  13.966  19.161  0.00  0.00    +0.000 NA
ATOM     13  C   UNL     1      -1.137  15.160  19.776  0.00  0.00    +0.000 A 
ENDROOT
BRANCH  10  14
ATOM     14  C   UNL     1       1.278   9.945  19.630  0.00  0.00    +0.000 A 
ATOM     15  C   UNL     1       1.774   9.541  18.383  0.00  0.00    +0.000 A 
ATOM     16  C   UNL     1       2.121   8.214  18.131  0.00  0.00    +0.000 A 
ATOM     17  C   UNL     1       2.122   7.299  19.178  0.00  0.00    +0.000 A 
ATOM     18  C   UNL     1       1.730   7.690  20.461  0.00  0.00    +0.000 A 
ATOM     19  C   UNL     1       1.299   9.009  20.679  0.00  0.00    +0.000 A 
BRANCH  17  20
ATOM     20  S   UNL     1       2.659   5.639  18.841  0.00  0.00    +0.000 S 
ATOM     21  C   UNL     1       2.225   4.774  20.329  0.00  0.00    +0.000 C 
ATOM     22  O   UNL     1       1.838   5.126  17.757  0.00  0.00    +0.000 OA
ATOM     23  O   UNL     1       4.099   5.667  18.734  0.00  0.00    +0.000 OA
ENDBRANCH  17  20
ENDBRANCH  10  14
BRANCH   1  25
ATOM     24  C   UNL     1       0.172  18.032  17.926  0.00  0.00    +0.000 C 
ATOM     25  O   UNL     1      -0.558  16.811  17.973  0.00  0.00    +0.000 OA
ENDBRANCH   1  25
BRANCH   9  26
ATOM     26  C   UNL     1      -1.575  10.685  19.252  0.00  0.00    +0.000 C 
BRANCH  26  27
ATOM     27  C   UNL     1      -2.227  10.801  17.905  0.00  0.00    +0.000 A 
ATOM     28  C   UNL     1      -1.898   9.932  16.859  0.00  0.00    +0.000 A 
ATOM     29  C   UNL     1      -2.735   9.845  15.751  0.00  0.00    +0.000 A 
ATOM     30  C   UNL     1      -3.869  10.640  15.722  0.00  0.00    +0.000 A 
ATOM     31  N   UNL     1      -4.197  11.515  16.696  0.00  0.00    +0.000 NA
ATOM     32  C   UNL     1      -3.373  11.575  17.763  0.00  0.00    +0.000 A 
ENDBRANCH  26  27
ENDBRANCH   9  26
TORSDOF 5
ENDMDL
MODEL 3
REMARK VINA RESULT:      -7.2      1.000      1.432
REMARK  Name = 
REMARK  7 active torsions:
REMARK  status: ('A' for Active; 'I' for Inactive)
REMARK    1  A    between atoms: C_1  and  O_2
REMARK    2  A    between atoms: O_2  and  C_3
REMARK    3  A    between atoms: N_11  and  C_12
REMARK    4  A    between atoms: C_12  and  C_13
REMARK    5  A    between atoms: C_19  and  C_21
REMARK    6  A    between atoms: C_24  and  S_25
REMARK    7  A    between atoms: S_25  and  C_26
REMARK                            x       y       z     vdW  Elec       q    Type
REMARK                         _______ _______ _______ _____ _____    ______ ____
ROOT
ATOM      1  C   UNL     1      -0.927  15.933  19.664  0.00  0.00    +0.000 A 
ATOM      2  C   UNL     1      -1.441  16.982  20.441  0.00  0.00    +0.000 A 
ATOM      3  C   UNL     1      -2.199  16.718  21.575  0.00  0.00    +0.000 A 
ATOM      4  C   UNL     1      -2.446  15.400  21.969  0.00  0.00    +0.000 A 
ATOM      5 CL   UNL     1      -3.397  15.123  23.380  0.00  0.00    +0.000 Cl
ATOM      6  C   UNL     1      -1.900  14.342  21.219  0.00  0.00    +0.000 A 
ATOM      7  S   UNL     1      -1.997  12.628  21.476  0.00  0.00    +0.000 S 
ATOM      8  C   UNL     1      -0.978  12.376  20.141  0.00  0.00    +0.000 A 
ATOM      9  N   UNL     1      -0.614  11.070  19.856  0.00  0.00    +0.000 N 
ATOM     10  C   UNL     1       0.690  10.719  20.282  0.00  0.00    +0.000 C 
ATOM     11  O   UNL     1       1.406  11.451  20.968  0.00  0.00    +0.000 OA
ATOM     12  N   UNL     1      -0.644  13.433  19.446  0.00  0.00    +0.000 NA
ATOM     13  C   UNL     1      -1.134  14.580  20.066  0.00  0.00    +0.000 A 
ENDROOT
BRANCH  10  14
ATOM     14  C   UNL     1       1.240   9.344  19.996  0.00  0.00    +0.000 A 
ATOM     15  C   UNL     1       1.907   9.009  18.810  0.00  0.00    +0.000 A 
ATOM     16  C   UNL     1       2.295   7.697  18.537  0.00  0.00    +0.000 A 
ATOM     17  C   UNL     1       2.156   6.726  19.522  0.00  0.00    +0.000 A 
ATOM     18  C   UNL     1       1.588   7.046  20.757  0.00  0.00    +0.000 A 
ATOM     19  C   UNL     1       1.122   8.352  20.986  0.00  0.00    +0.000 A 
BRANCH  17  20
ATOM     20  S   UNL     1       2.746   5.087  19.173  0.00  0.00    +0.000 S 
ATOM     21  C   UNL     1       3.438   5.255  17.547  0.00  0.00    +0.000 C 
ATOM     22  O   UNL     1       3.826   4.804  20.104  0.00  0.00    +0.000 OA
ATOM     23  O   UNL     1       1.591   4.223  19.090  0.00  0.00    +0.000 OA
ENDBRANCH  17  20
ENDBRANCH  10  14
BRANCH   1  25
ATOM     24  C   UNL     1      -0.757  17.432  17.836  0.00  0.00    +0.000 C 
ATOM     25  O   UNL     1      -0.179  16.360  18.571  0.00  0.00    +0.000 OA
ENDBRANCH   1  25
BRANCH   9  26
ATOM     26  C   UNL     1      -1.465  10.172  19.087  0.00  0.00    +0.000 C 
BRANCH  26  27
ATOM     27  C   UNL     1      -2.209  10.604  17.857  0.00  0.00    +0.000 A 
ATOM     28  C   UNL     1      -1.981   9.998  16.617  0.00  0.00    +0.000 A 
ATOM     29  C   UNL     1      -2.897  10.180  15.587  0.00  0.00    +0.000 A 
ATOM     30  C   UNL     1      -4.008  10.972  15.828  0.00  0.00    +0.000 A 
ATOM     31  N   UNL     1      -4.241  11.600  17.000  0.00  0.00    +0.000 NA
ATOM     32  C   UNL     1      -3.341  11.402  17.986  0.00  0.00    +0.000 A 
ENDBRANCH  26  27
ENDBRANCH   9  26
TORSDOF 5
ENDMDL
MODEL 4
REMARK VINA RESULT:      -7.1      0.922      1.088
REMARK  Name = 
REMARK  7 active torsions:
REMARK  status: ('A' for Active; 'I' for Inactive)
REMARK    1  A    between atoms: C_1  and  O_2
REMARK    2  A    between atoms: O_2  and  C_3
REMARK    3  A    between atoms: N_11  and  C_12
REMARK    4  A    between atoms: C_12  and  C_13
REMARK    5  A    between atoms: C_19  and  C_21
REMARK    6  A    between atoms: C_24  and  S_25
REMARK    7  A    between atoms: S_25  and  C_26
REMARK                            x       y       z     vdW  Elec       q    Type
REMARK                         _______ _______ _______ _____ _____    ______ ____
ROOT
ATOM      1  C   UNL     1      -0.636  15.999  19.445  0.00  0.00    +0.000 A 
ATOM      2  C   UNL     1      -1.106  17.105  20.167  0.00  0.00    +0.000 A 
ATOM      3  C   UNL     1      -1.885  16.931  21.304  0.00  0.00    +0.000 A 
ATOM      4  C   UNL     1      -2.196  15.646  21.757  0.00  0.00    +0.000 A 
ATOM      5 CL   UNL     1      -3.170  15.479  23.170  0.00  0.00    +0.000 Cl
ATOM      6  C   UNL     1      -1.693  14.529  21.063  0.00  0.00    +0.000 A 
ATOM      7  S   UNL     1      -1.871  12.836  21.399  0.00  0.00    +0.000 S 
ATOM      8  C   UNL     1      -0.853  12.474  20.087  0.00  0.00    +0.000 A 
ATOM      9  N   UNL     1      -0.549  11.142  19.867  0.00  0.00    +0.000 N 
ATOM     10  C   UNL     1       0.735  10.751  20.322  0.00  0.00    +0.000 C 
ATOM     11  O   UNL     1       1.478  11.482  20.981  0.00  0.00    +0.000 OA
ATOM     12  N   UNL     1      -0.466  13.481  19.347  0.00  0.00    +0.000 NA
ATOM     13  C   UNL     1      -0.907  14.677  19.907  0.00  0.00    +0.000 A 
ENDROOT
BRANCH  10  14
ATOM     14  C   UNL     1       1.223   9.341  20.107  0.00  0.00    +0.000 A 
ATOM     15  C   UNL     1       1.122   8.332  21.074  0.00  0.00    +0.000 A 
ATOM     16  C   UNL     1       1.692   7.074  20.879  0.00  0.00    +0.000 A 
ATOM     17  C   UNL     1       2.241   6.760  19.640  0.00  0.00    +0.000 A 
ATOM     18  C   UNL     1       2.268   7.709  18.616  0.00  0.00    +0.000 A 
ATOM     19  C   UNL     1       1.769   9.000  18.857  0.00  0.00    +0.000 A 
BRANCH  17  20
ATOM     20  S   UNL     1       2.875   5.117  19.396  0.00  0.00    +0.000 S 
ATOM     21  C   UNL     1       4.617   5.392  19.199  0.00  0.00    +0.000 C 
ATOM     22  O   UNL     1       2.664   4.380  20.631  0.00  0.00    +0.000 OA
ATOM     23  O   UNL     1       2.345   4.634  18.142  0.00  0.00    +0.000 OA
ENDBRANCH  17  20
ENDBRANCH  10  14
BRANCH   1  25
ATOM     24  C   UNL     1       1.494  16.659  18.642  0.00  0.00    +0.000 C 
ATOM     25  O   UNL     1       0.141  16.339  18.341  0.00  0.00    +0.000 OA
ENDBRANCH   1  25
BRANCH   9  26
ATOM     26  C   UNL     1      -1.433  10.248  19.132  0.00  0.00    +0.000 C 
BRANCH  26  27
ATOM     27  C   UNL     1      -2.276  10.701  17.976  0.00  0.00    +0.000 A 
ATOM     28  C   UNL     1      -2.077  10.196  16.687  0.00  0.00    +0.000 A 
ATOM     29  C   UNL     1      -3.062  10.373  15.721  0.00  0.00    +0.000 A 
ATOM     30  C   UNL     1      -4.211  11.062  16.075  0.00  0.00    +0.000 A 
ATOM     31  N   UNL     1      -4.420  11.594  17.297  0.00  0.00    +0.000 NA
ATOM     32  C   UNL     1      -3.453  11.401  18.219  0.00  0.00    +0.000 A 
ENDBRANCH  26  27
ENDBRANCH   9  26
TORSDOF 5
ENDMDL
MODEL 5
REMARK VINA RESULT:      -7.0      3.782      6.443
REMARK  Name = 
REMARK  7 active torsions:
REMARK  status: ('A' for Active; 'I' for Inactive)
REMARK    1  A    between atoms: C_1  and  O_2
REMARK    2  A    between atoms: O_2  and  C_3
REMARK    3  A    between atoms: N_11  and  C_12
REMARK    4  A    between atoms: C_12  and  C_13
REMARK    5  A    between atoms: C_19  and  C_21
REMARK    6  A    between atoms: C_24  and  S_25
REMARK    7  A    between atoms: S_25  and  C_26
REMARK                            x       y       z     vdW  Elec       q    Type
REMARK                         _______ _______ _______ _____ _____    ______ ____
ROOT
ATOM      1  C   UNL     1      -4.077  11.431  17.086  0.00  0.00    +0.000 A 
ATOM      2  C   UNL     1      -5.462  11.462  17.308  0.00  0.00    +0.000 A 
ATOM      3  C   UNL     1      -5.972  11.796  18.556  0.00  0.00    +0.000 A 
ATOM      4  C   UNL     1      -5.111  12.123  19.607  0.00  0.00    +0.000 A 
ATOM      5 CL   UNL     1      -5.791  12.525  21.140  0.00  0.00    +0.000 Cl
ATOM      6  C   UNL     1      -3.722  12.135  19.382  0.00  0.00    +0.000 A 
ATOM      7  S   UNL     1      -2.422  12.533  20.461  0.00  0.00    +0.000 S 
ATOM      8  C   UNL     1      -1.311  12.319  19.194  0.00  0.00    +0.000 A 
ATOM      9  N   UNL     1       0.022  12.578  19.466  0.00  0.00    +0.000 N 
ATOM     10  C   UNL     1       0.485  13.829  18.989  0.00  0.00    +0.000 C 
ATOM     11  O   UNL     1      -0.251  14.687  18.494  0.00  0.00    +0.000 OA
ATOM     12  N   UNL     1      -1.790  11.878  18.059  0.00  0.00    +0.000 NA
ATOM     13  C   UNL     1      -3.179  11.798  18.131  0.00  0.00    +0.000 A 
ENDROOT
BRANCH  10  14
ATOM     14  C   UNL     1       1.928  14.227  19.170  0.00  0.00    +0.000 A 
ATOM     15  C   UNL     1       2.451  14.711  20.377  0.00  0.00    +0.000 A 
ATOM     16  C   UNL     1       3.762  15.178  20.468  0.00  0.00    +0.000 A 
ATOM     17  C   UNL     1       4.618  15.021  19.384  0.00  0.00    +0.000 A 
ATOM     18  C   UNL     1       4.160  14.448  18.196  0.00  0.00    +0.000 A 
ATOM     19  C   UNL     1       2.813  14.063  18.090  0.00  0.00    +0.000 A 
BRANCH  17  20
ATOM     20  S   UNL     1       6.308  15.543  19.567  0.00  0.00    +0.000 S 
ATOM     21  C   UNL     1       7.150  14.595  18.325  0.00  0.00    +0.000 C 
ATOM     22  O   UNL     1       6.373  16.946  19.195  0.00  0.00    +0.000 OA
ATOM     23  O   UNL     1       6.757  15.095  20.865  0.00  0.00    +0.000 OA
ENDBRANCH  17  20
ENDBRANCH  10  14
BRANCH   1  25
ATOM     24  C   UNL     1      -3.061   9.842  15.650  0.00  0.00    +0.000 C 
ATOM     25  O   UNL     1      -3.726  11.093  15.782  0.00  0.00    +0.000 OA
ENDBRANCH   1  25
BRANCH   9  26
ATOM     26  C   UNL     1       0.896  11.597  20.093  0.00  0.00    +0.000 C 
BRANCH  26  27
ATOM     27  C   UNL     1       1.153  10.239  19.508  0.00  0.00    +0.000 A 
ATOM     28  C   UNL     1       1.613  10.085  18.196  0.00  0.00    +0.000 A 
ATOM     29  C   UNL     1       2.151   8.867  17.796  0.00  0.00    +0.000 A 
ATOM     30  C   UNL     1       2.201   7.837  18.721  0.00  0.00    +0.000 A 
ATOM     31  N   UNL     1       1.735   7.938  19.983  0.00  0.00    +0.000 NA
ATOM     32  C   UNL     1       1.224   9.133  20.349  0.00  0.00    +0.000 A 
ENDBRANCH  26  27
ENDBRANCH   9  26
TORSDOF 5
ENDMDL
MODEL 6
REMARK VINA RESULT:      -6.8      4.633      7.947
REMARK  Name = 
REMARK  7 active torsions:
REMARK  status: ('A' for Active; 'I' for Inactive)
REMARK    1  A    between atoms: C_1  and  O_2
REMARK    2  A    between atoms: O_2  and  C_3
REMARK    3  A    between atoms: N_11  and  C_12
REMARK    4  A    between atoms: C_12  and  C_13
REMARK    5  A    between atoms: C_19  and  C_21
REMARK    6  A    between atoms: C_24  and  S_25
REMARK    7  A    between atoms: S_25  and  C_26
REMARK                            x       y       z     vdW  Elec       q    Type
REMARK                         _______ _______ _______ _____ _____    ______ ____
ROOT
ATOM      1  C   UNL     1       4.001  14.469  21.497  0.00  0.00    +0.000 A 
ATOM      2  C   UNL     1       5.019  15.101  20.769  0.00  0.00    +0.000 A 
ATOM      3  C   UNL     1       4.821  15.463  19.441  0.00  0.00    +0.000 A 
ATOM      4  C   UNL     1       3.595  15.217  18.817  0.00  0.00    +0.000 A 
ATOM      5 CL   UNL     1       3.398  15.677  17.168  0.00  0.00    +0.000 Cl
ATOM      6  C   UNL     1       2.554  14.621  19.554  0.00  0.00    +0.000 A 
ATOM      7  S   UNL     1       0.931  14.231  19.075  0.00  0.00    +0.000 S 
ATOM      8  C   UNL     1       0.597  13.703  20.654  0.00  0.00    +0.000 A 
ATOM      9  N   UNL     1      -0.694  13.284  20.925  0.00  0.00    +0.000 N 
ATOM     10  C   UNL     1      -1.487  14.235  21.614  0.00  0.00    +0.000 C 
ATOM     11  O   UNL     1      -1.124  15.391  21.842  0.00  0.00    +0.000 OA
ATOM     12  N   UNL     1       1.600  13.685  21.494  0.00  0.00    +0.000 NA
ATOM     13  C   UNL     1       2.728  14.241  20.895  0.00  0.00    +0.000 A 
ENDROOT
BRANCH  10  14
ATOM     14  C   UNL     1      -2.900  13.899  22.018  0.00  0.00    +0.000 A 
ATOM     15  C   UNL     1      -3.228  13.253  23.218  0.00  0.00    +0.000 A 
ATOM     16  C   UNL     1      -4.535  12.855  23.498  0.00  0.00    +0.000 A 
ATOM     17  C   UNL     1      -5.563  13.240  22.644  0.00  0.00    +0.000 A 
ATOM     18  C   UNL     1      -5.287  13.974  21.489  0.00  0.00    +0.000 A 
ATOM     19  C   UNL     1      -3.954  14.291  21.174  0.00  0.00    +0.000 A 
BRANCH  17  20
ATOM     20  S   UNL     1      -7.227  12.795  23.081  0.00  0.00    +0.000 S 
ATOM     21  C   UNL     1      -7.905  14.329  23.664  0.00  0.00    +0.000 C 
ATOM     22  O   UNL     1      -7.916  12.426  21.856  0.00  0.00    +0.000 OA
ATOM     23  O   UNL     1      -7.149  11.880  24.196  0.00  0.00    +0.000 OA
ENDBRANCH  17  20
ENDBRANCH  10  14
BRANCH   1  25
ATOM     24  C   UNL     1       4.700  15.321  23.595  0.00  0.00    +0.000 C 
ATOM     25  O   UNL     1       4.349  14.185  22.814  0.00  0.00    +0.000 OA
ENDBRANCH   1  25
BRANCH   9  26
ATOM     26  C   UNL     1      -1.159  11.937  20.620  0.00  0.00    +0.000 C 
BRANCH  26  27
ATOM     27  C   UNL     1      -0.655  10.718  21.335  0.00  0.00    +0.000 A 
ATOM     28  C   UNL     1       0.062   9.722  20.661  0.00  0.00    +0.000 A 
ATOM     29  C   UNL     1       0.790   8.789  21.392  0.00  0.00    +0.000 A 
ATOM     30  C   UNL     1       0.768   8.875  22.774  0.00  0.00    +0.000 A 
ATOM     31  N   UNL     1       0.059   9.799  23.457  0.00  0.00    +0.000 NA
ATOM     32  C   UNL     1      -0.633  10.698  22.725  0.00  0.00    +0.000 A 
ENDBRANCH  26  27
ENDBRANCH   9  26
TORSDOF 5
ENDMDL
MODEL 7
REMARK VINA RESULT:      -6.7      0.875      1.200
REMARK  Name = 
REMARK  7 active torsions:
REMARK  status: ('A' for Active; 'I' for Inactive)
REMARK    1  A    between atoms: C_1  and  O_2
REMARK    2  A    between atoms: O_2  and  C_3
REMARK    3  A    between atoms: N_11  and  C_12
REMARK    4  A    between atoms: C_12  and  C_13
REMARK    5  A    between atoms: C_19  and  C_21
REMARK    6  A    between atoms: C_24  and  S_25
REMARK    7  A    between atoms: S_25  and  C_26
REMARK                            x       y       z     vdW  Elec       q    Type
REMARK                         _______ _______ _______ _____ _____    ______ ____
ROOT
ATOM      1  C   UNL     1      -1.591  15.729  20.124  0.00  0.00    +0.000 A 
ATOM      2  C   UNL     1      -2.033  16.694  21.041  0.00  0.00    +0.000 A 
ATOM      3  C   UNL     1      -2.487  16.320  22.300  0.00  0.00    +0.000 A 
ATOM      4  C   UNL     1      -2.494  14.974  22.677  0.00  0.00    +0.000 A 
ATOM      5 CL   UNL     1      -3.072  14.558  24.247  0.00  0.00    +0.000 Cl
ATOM      6  C   UNL     1      -2.012  14.004  21.779  0.00  0.00    +0.000 A 
ATOM      7  S   UNL     1      -1.859  12.286  21.972  0.00  0.00    +0.000 S 
ATOM      8  C   UNL     1      -1.139  12.183  20.437  0.00  0.00    +0.000 A 
ATOM      9  N   UNL     1      -0.705  10.935  20.020  0.00  0.00    +0.000 N 
ATOM     10  C   UNL     1       0.692  10.732  20.136  0.00  0.00    +0.000 C 
ATOM     11  O   UNL     1       1.456  11.530  20.683  0.00  0.00    +0.000 OA
ATOM     12  N   UNL     1      -1.087  13.285  19.735  0.00  0.00    +0.000 NA
ATOM     13  C   UNL     1      -1.551  14.354  20.498  0.00  0.00    +0.000 A 
ENDROOT
BRANCH  10  14
ATOM     14  C   UNL     1       1.315   9.438  19.675  0.00  0.00    +0.000 A 
ATOM     15  C   UNL     1       1.458   8.313  20.498  0.00  0.00    +0.000 A 
ATOM     16  C   UNL     1       2.145   7.178  20.069  0.00  0.00    +0.000 A 
ATOM     17  C   UNL     1       2.566   7.096  18.746  0.00  0.00    +0.000 A 
ATOM     18  C   UNL     1       2.350   8.159  17.866  0.00  0.00    +0.000 A 
ATOM     19  C   UNL     1       1.734   9.331  18.337  0.00  0.00    +0.000 A 
BRANCH  17  20
ATOM     20  S   UNL     1       3.356   5.597  18.209  0.00  0.00    +0.000 S 
ATOM     21  C   UNL     1       4.476   6.169  16.955  0.00  0.00    +0.000 C 
ATOM     22  O   UNL     1       4.138   5.092  19.325  0.00  0.00    +0.000 OA
ATOM     23  O   UNL     1       2.345   4.781  17.578  0.00  0.00    +0.000 OA
ENDBRANCH  17  20
ENDBRANCH  10  14
BRANCH   1  25
ATOM     24  C   UNL     1       0.242  16.528  18.851  0.00  0.00    +0.000 C 
ATOM     25  O   UNL     1      -1.154  16.264  18.915  0.00  0.00    +0.000 OA
ENDBRANCH   1  25
BRANCH   9  26
ATOM     26  C   UNL     1      -1.600   9.959  19.414  0.00  0.00    +0.000 C 
BRANCH  26  27
ATOM     27  C   UNL     1      -2.386  10.235  18.166  0.00  0.00    +0.000 A 
ATOM     28  C   UNL     1      -3.567  10.984  18.200  0.00  0.00    +0.000 A 
ATOM     29  C   UNL     1      -4.086  11.499  17.017  0.00  0.00    +0.000 A 
ATOM     30  C   UNL     1      -3.413  11.237  15.836  0.00  0.00    +0.000 A 
ATOM     31  N   UNL     1      -2.292  10.488  15.762  0.00  0.00    +0.000 NA
ATOM     32  C   UNL     1      -1.804  10.006  16.924  0.00  0.00    +0.000 A 
ENDBRANCH  26  27
ENDBRANCH   9  26
TORSDOF 5
ENDMDL
MODEL 8
REMARK VINA RESULT:      -6.7      4.390      7.506
REMARK  Name = 
REMARK  7 active torsions:
REMARK  status: ('A' for Active; 'I' for Inactive)
REMARK    1  A    between atoms: C_1  and  O_2
REMARK    2  A    between atoms: O_2  and  C_3
REMARK    3  A    between atoms: N_11  and  C_12
REMARK    4  A    between atoms: C_12  and  C_13
REMARK    5  A    between atoms: C_19  and  C_21
REMARK    6  A    between atoms: C_24  and  S_25
REMARK    7  A    between atoms: S_25  and  C_26
REMARK                            x       y       z     vdW  Elec       q    Type
REMARK                         _______ _______ _______ _____ _____    ______ ____
ROOT
ATOM      1  C   UNL     1       3.978  14.512  21.667  0.00  0.00    +0.000 A 
ATOM      2  C   UNL     1       5.001  15.169  20.969  0.00  0.00    +0.000 A 
ATOM      3  C   UNL     1       4.833  15.528  19.637  0.00  0.00    +0.000 A 
ATOM      4  C   UNL     1       3.632  15.253  18.977  0.00  0.00    +0.000 A 
ATOM      5 CL   UNL     1       3.472  15.711  17.323  0.00  0.00    +0.000 Cl
ATOM      6  C   UNL     1       2.584  14.631  19.683  0.00  0.00    +0.000 A 
ATOM      7  S   UNL     1       0.987  14.204  19.157  0.00  0.00    +0.000 S 
ATOM      8  C   UNL     1       0.620  13.665  20.725  0.00  0.00    +0.000 A 
ATOM      9  N   UNL     1      -0.669  13.214  20.958  0.00  0.00    +0.000 N 
ATOM     10  C   UNL     1      -1.504  14.145  21.624  0.00  0.00    +0.000 C 
ATOM     11  O   UNL     1      -1.175  15.309  21.863  0.00  0.00    +0.000 OA
ATOM     12  N   UNL     1       1.598  13.670  21.594  0.00  0.00    +0.000 NA
ATOM     13  C   UNL     1       2.729  14.254  21.028  0.00  0.00    +0.000 A 
ENDROOT
BRANCH  10  14
ATOM     14  C   UNL     1      -2.920  13.774  21.987  0.00  0.00    +0.000 A 
ATOM     15  C   UNL     1      -4.025  14.057  21.174  0.00  0.00    +0.000 A 
ATOM     16  C   UNL     1      -5.329  13.803  21.601  0.00  0.00    +0.000 A 
ATOM     17  C   UNL     1      -5.534  13.116  22.793  0.00  0.00    +0.000 A 
ATOM     18  C   UNL     1      -4.449  12.727  23.582  0.00  0.00    +0.000 A 
ATOM     19  C   UNL     1      -3.146  13.068  23.182  0.00  0.00    +0.000 A 
BRANCH  17  20
ATOM     20  S   UNL     1      -7.204  12.728  23.260  0.00  0.00    +0.000 S 
ATOM     21  C   UNL     1      -7.915  12.151  21.739  0.00  0.00    +0.000 C 
ATOM     22  O   UNL     1      -7.148  11.613  24.192  0.00  0.00    +0.000 OA
ATOM     23  O   UNL     1      -7.848  13.969  23.622  0.00  0.00    +0.000 OA
ENDBRANCH  17  20
ENDBRANCH  10  14
BRANCH   1  25
ATOM     24  C   UNL     1       5.607  13.725  23.198  0.00  0.00    +0.000 C 
ATOM     25  O   UNL     1       4.294  14.234  22.994  0.00  0.00    +0.000 OA
ENDBRANCH   1  25
BRANCH   9  26
ATOM     26  C   UNL     1      -1.092  11.857  20.639  0.00  0.00    +0.000 C 
BRANCH  26  27
ATOM     27  C   UNL     1      -1.384  11.400  19.240  0.00  0.00    +0.000 A 
ATOM     28  C   UNL     1      -0.604  10.419  18.617  0.00  0.00    +0.000 A 
ATOM     29  C   UNL     1      -1.084   9.786  17.475  0.00  0.00    +0.000 A 
ATOM     30  C   UNL     1      -2.325  10.162  16.988  0.00  0.00    +0.000 A 
ATOM     31  N   UNL     1      -3.086  11.129  17.543  0.00  0.00    +0.000 NA
ATOM     32  C   UNL     1      -2.602  11.723  18.653  0.00  0.00    +0.000 A 
ENDBRANCH  26  27
ENDBRANCH   9  26
TORSDOF 5
ENDMDL
MODEL 9
REMARK VINA RESULT:      -6.6      1.438      1.922
REMARK  Name = 
REMARK  7 active torsions:
REMARK  status: ('A' for Active; 'I' for Inactive)
REMARK    1  A    between atoms: C_1  and  O_2
REMARK    2  A    between atoms: O_2  and  C_3
REMARK    3  A    between atoms: N_11  and  C_12
REMARK    4  A    between atoms: C_12  and  C_13
REMARK    5  A    between atoms: C_19  and  C_21
REMARK    6  A    between atoms: C_24  and  S_25
REMARK    7  A    between atoms: S_25  and  C_26
REMARK                            x       y       z     vdW  Elec       q    Type
REMARK                         _______ _______ _______ _____ _____    ______ ____
ROOT
ATOM      1  C   UNL     1      -0.232  15.669  19.467  0.00  0.00    +0.000 A 
ATOM      2  C   UNL     1      -0.985  16.657  20.119  0.00  0.00    +0.000 A 
ATOM      3  C   UNL     1      -2.145  16.324  20.808  0.00  0.00    +0.000 A 
ATOM      4  C   UNL     1      -2.570  14.995  20.876  0.00  0.00    +0.000 A 
ATOM      5 CL   UNL     1      -4.019  14.632  21.737  0.00  0.00    +0.000 Cl
ATOM      6  C   UNL     1      -1.798  13.992  20.260  0.00  0.00    +0.000 A 
ATOM      7  S   UNL     1      -2.042  12.274  20.206  0.00  0.00    +0.000 S 
ATOM      8  C   UNL     1      -0.577  12.098  19.364  0.00  0.00    +0.000 A 
ATOM      9  N   UNL     1      -0.169  10.810  19.061  0.00  0.00    +0.000 N 
ATOM     10  C   UNL     1       0.841  10.299  19.914  0.00  0.00    +0.000 C 
ATOM     11  O   UNL     1       1.238  10.880  20.927  0.00  0.00    +0.000 OA
ATOM     12  N   UNL     1       0.041  13.199  19.020  0.00  0.00    +0.000 NA
ATOM     13  C   UNL     1      -0.624  14.301  19.553  0.00  0.00    +0.000 A 
ENDROOT
BRANCH  10  14
ATOM     14  C   UNL     1       1.418   8.927  19.675  0.00  0.00    +0.000 A 
ATOM     15  C   UNL     1       2.079   8.562  18.495  0.00  0.00    +0.000 A 
ATOM     16  C   UNL     1       2.493   7.250  18.267  0.00  0.00    +0.000 A 
ATOM     17  C   UNL     1       2.387   6.314  19.290  0.00  0.00    +0.000 A 
ATOM     18  C   UNL     1       1.824   6.668  20.518  0.00  0.00    +0.000 A 
ATOM     19  C   UNL     1       1.332   7.971  20.702  0.00  0.00    +0.000 A 
BRANCH  17  20
ATOM     20  S   UNL     1       3.009   4.675  18.996  0.00  0.00    +0.000 S 
ATOM     21  C   UNL     1       1.875   4.033  17.791  0.00  0.00    +0.000 C 
ATOM     22  O   UNL     1       4.315   4.810  18.371  0.00  0.00    +0.000 OA
ATOM     23  O   UNL     1       2.845   3.928  20.221  0.00  0.00    +0.000 OA
ENDBRANCH  17  20
ENDBRANCH  10  14
BRANCH   1  25
ATOM     24  C   UNL     1       0.711  17.364  18.105  0.00  0.00    +0.000 C 
ATOM     25  O   UNL     1       0.907  16.159  18.836  0.00  0.00    +0.000 OA
ENDBRANCH   1  25
BRANCH   9  26
ATOM     26  C   UNL     1      -0.661  10.088  17.896  0.00  0.00    +0.000 C 
BRANCH  26  27
ATOM     27  C   UNL     1      -2.061  10.234  17.375  0.00  0.00    +0.000 A 
ATOM     28  C   UNL     1      -3.162   9.776  18.107  0.00  0.00    +0.000 A 
ATOM     29  C   UNL     1      -4.439  10.213  17.768  0.00  0.00    +0.000 A 
ATOM     30  C   UNL     1      -4.573  11.085  16.701  0.00  0.00    +0.000 A 
ATOM     31  N   UNL     1      -3.537  11.518  15.951  0.00  0.00    +0.000 NA
ATOM     32  C   UNL     1      -2.308  11.086  16.304  0.00  0.00    +0.000 A 
ENDBRANCH  26  27
ENDBRANCH   9  26
TORSDOF 5
ENDMDL
