MODEL 1
REMARK VINA RESULT:      -6.5      0.000      0.000
REMARK  Name = 
REMARK  4 active torsions:
REMARK  status: ('A' for Active; 'I' for Inactive)
REMARK    1  A    between atoms: C_1  and  N_2
REMARK    2  A    between atoms: C_3  and  C_4
REMARK    3  A    between atoms: N_8  and  C_9
REMARK    4  A    between atoms: C_9  and  C_10
REMARK                            x       y       z     vdW  Elec       q    Type
REMARK                         _______ _______ _______ _____ _____    ______ ____
ROOT
ATOM      1  C   UNL     1       7.423   6.532  17.534  0.00  0.00    +0.000 C 
ATOM      2  N   UNL     1       6.251   5.691  17.607  0.00  0.00    +0.000 N 
ATOM      3  C   UNL     1       5.533   5.080  16.646  0.00  0.00    +0.000 A 
ATOM      4  N   UNL     1       4.692   4.175  17.067  0.00  0.00    +0.000 NA
ATOM      5  N   UNL     1       4.815   4.213  18.440  0.00  0.00    +0.000 N 
ATOM      6  C   UNL     1       5.864   5.091  18.784  0.00  0.00    +0.000 A 
ATOM      7  O   UNL     1       6.395   5.216  19.878  0.00  0.00    +0.000 OA
ENDROOT
BRANCH   3   8
ATOM      8  C   UNL     1       5.719   5.319  15.205  0.00  0.00    +0.000 C 
ATOM      9  C   UNL     1       6.939   4.731  14.525  0.00  0.00    +0.000 C 
ATOM     10  C   UNL     1       5.575   4.248  14.151  0.00  0.00    +0.000 C 
ENDBRANCH   3   8
BRANCH   5  11
ATOM     11  C   UNL     1       4.510   3.093  19.305  0.00  0.00    +0.000 C 
BRANCH  11  12
ATOM     12  C   UNL     1       3.229   3.115  20.122  0.00  0.00    +0.000 C 
ATOM     13  C   UNL     1       2.507   4.434  20.303  0.00  0.00    +0.000 C 
ATOM     14  C   UNL     1       1.086   3.976  20.600  0.00  0.00    +0.000 C 
ATOM     15  O   UNL     1       0.891   2.734  19.910  0.00  0.00    +0.000 OA
ATOM     16  C   UNL     1       2.157   2.319  19.385  0.00  0.00    +0.000 C 
ENDBRANCH  11  12
ENDBRANCH   5  11
TORSDOF 3
ENDMDL
MODEL 2
REMARK VINA RESULT:      -6.4      1.115      1.233
REMARK  Name = 
REMARK  4 active torsions:
REMARK  status: ('A' for Active; 'I' for Inactive)
REMARK    1  A    between atoms: C_1  and  N_2
REMARK    2  A    between atoms: C_3  and  C_4
REMARK    3  A    between atoms: N_8  and  C_9
REMARK    4  A    between atoms: C_9  and  C_10
REMARK                            x       y       z     vdW  Elec       q    Type
REMARK                         _______ _______ _______ _____ _____    ______ ____
ROOT
ATOM      1  C   UNL     1       7.144   5.284  17.935  0.00  0.00    +0.000 C 
ATOM      2  N   UNL     1       5.852   4.701  17.658  0.00  0.00    +0.000 N 
ATOM      3  C   UNL     1       5.200   4.492  16.499  0.00  0.00    +0.000 A 
ATOM      4  N   UNL     1       4.167   3.699  16.574  0.00  0.00    +0.000 NA
ATOM      5  N   UNL     1       4.080   3.384  17.914  0.00  0.00    +0.000 N 
ATOM      6  C   UNL     1       5.193   3.928  18.588  0.00  0.00    +0.000 A 
ATOM      7  O   UNL     1       5.561   3.681  19.727  0.00  0.00    +0.000 OA
ENDROOT
BRANCH   3   8
ATOM      8  C   UNL     1       5.645   5.024  15.200  0.00  0.00    +0.000 C 
ATOM      9  C   UNL     1       6.873   4.418  14.550  0.00  0.00    +0.000 C 
ATOM     10  C   UNL     1       5.535   4.265  13.900  0.00  0.00    +0.000 C 
ENDBRANCH   3   8
BRANCH   5  11
ATOM     11  C   UNL     1       3.464   2.175  18.417  0.00  0.00    +0.000 C 
BRANCH  11  12
ATOM     12  C   UNL     1       2.283   2.284  19.368  0.00  0.00    +0.000 C 
ATOM     13  C   UNL     1       2.557   2.527  20.838  0.00  0.00    +0.000 C 
ATOM     14  C   UNL     1       1.250   3.153  21.302  0.00  0.00    +0.000 C 
ATOM     15  O   UNL     1       0.703   3.864  20.183  0.00  0.00    +0.000 OA
ATOM     16  C   UNL     1       1.489   3.543  19.030  0.00  0.00    +0.000 C 
ENDBRANCH  11  12
ENDBRANCH   5  11
TORSDOF 3
ENDMDL
MODEL 3
REMARK VINA RESULT:      -6.2      2.209      5.741
REMARK  Name = 
REMARK  4 active torsions:
REMARK  status: ('A' for Active; 'I' for Inactive)
REMARK    1  A    between atoms: C_1  and  N_2
REMARK    2  A    between atoms: C_3  and  C_4
REMARK    3  A    between atoms: N_8  and  C_9
REMARK    4  A    between atoms: C_9  and  C_10
REMARK                            x       y       z     vdW  Elec       q    Type
REMARK                         _______ _______ _______ _____ _____    ______ ____
ROOT
ATOM      1  C   UNL     1       2.225   6.941  20.222  0.00  0.00    +0.000 C 
ATOM      2  N   UNL     1       2.918   5.822  19.628  0.00  0.00    +0.000 N 
ATOM      3  C   UNL     1       2.963   4.520  19.970  0.00  0.00    +0.000 A 
ATOM      4  N   UNL     1       3.466   3.723  19.068  0.00  0.00    +0.000 NA
ATOM      5  N   UNL     1       3.843   4.567  18.044  0.00  0.00    +0.000 N 
ATOM      6  C   UNL     1       3.411   5.876  18.345  0.00  0.00    +0.000 A 
ATOM      7  O   UNL     1       3.379   6.835  17.588  0.00  0.00    +0.000 OA
ENDROOT
BRANCH   3   8
ATOM      8  C   UNL     1       2.408   3.981  21.223  0.00  0.00    +0.000 C 
ATOM      9  C   UNL     1       1.132   3.166  21.159  0.00  0.00    +0.000 C 
ATOM     10  C   UNL     1       2.410   2.515  21.579  0.00  0.00    +0.000 C 
ENDBRANCH   3   8
BRANCH   5  11
ATOM     11  C   UNL     1       3.955   4.152  16.662  0.00  0.00    +0.000 C 
BRANCH  11  12
ATOM     12  C   UNL     1       5.335   3.997  16.044  0.00  0.00    +0.000 C 
ATOM     13  C   UNL     1       5.677   4.819  14.819  0.00  0.00    +0.000 C 
ATOM     14  C   UNL     1       7.197   4.858  14.881  0.00  0.00    +0.000 C 
ATOM     15  O   UNL     1       7.563   4.798  16.267  0.00  0.00    +0.000 OA
ATOM     16  C   UNL     1       6.379   4.526  17.024  0.00  0.00    +0.000 C 
ENDBRANCH  11  12
ENDBRANCH   5  11
TORSDOF 3
ENDMDL
MODEL 4
REMARK VINA RESULT:      -6.1      1.153      1.339
REMARK  Name = 
REMARK  4 active torsions:
REMARK  status: ('A' for Active; 'I' for Inactive)
REMARK    1  A    between atoms: C_1  and  N_2
REMARK    2  A    between atoms: C_3  and  C_4
REMARK    3  A    between atoms: N_8  and  C_9
REMARK    4  A    between atoms: C_9  and  C_10
REMARK                            x       y       z     vdW  Elec       q    Type
REMARK                         _______ _______ _______ _____ _____    ______ ____
ROOT
ATOM      1  C   UNL     1       7.742   4.520  17.781  0.00  0.00    +0.000 C 
ATOM      2  N   UNL     1       6.356   4.870  17.577  0.00  0.00    +0.000 N 
ATOM      3  C   UNL     1       5.488   4.538  16.602  0.00  0.00    +0.000 A 
ATOM      4  N   UNL     1       4.236   4.801  16.856  0.00  0.00    +0.000 NA
ATOM      5  N   UNL     1       4.263   5.414  18.092  0.00  0.00    +0.000 N 
ATOM      6  C   UNL     1       5.579   5.372  18.597  0.00  0.00    +0.000 A 
ATOM      7  O   UNL     1       5.941   5.623  19.737  0.00  0.00    +0.000 OA
ENDROOT
BRANCH   3   8
ATOM      8  C   UNL     1       5.873   3.839  15.365  0.00  0.00    +0.000 C 
ATOM      9  C   UNL     1       5.355   4.368  14.042  0.00  0.00    +0.000 C 
ATOM     10  C   UNL     1       6.820   4.409  14.338  0.00  0.00    +0.000 C 
ENDBRANCH   3   8
BRANCH   5  11
ATOM     11  C   UNL     1       3.146   5.417  19.011  0.00  0.00    +0.000 C 
BRANCH  11  12
ATOM     12  C   UNL     1       2.688   4.104  19.626  0.00  0.00    +0.000 C 
ATOM     13  C   UNL     1       2.185   4.110  21.055  0.00  0.00    +0.000 C 
ATOM     14  C   UNL     1       1.311   2.864  21.085  0.00  0.00    +0.000 C 
ATOM     15  O   UNL     1       0.781   2.690  19.764  0.00  0.00    +0.000 OA
ATOM     16  C   UNL     1       1.434   3.627  18.900  0.00  0.00    +0.000 C 
ENDBRANCH  11  12
ENDBRANCH   5  11
TORSDOF 3
ENDMDL
MODEL 5
REMARK VINA RESULT:      -6.1      1.934      5.572
REMARK  Name = 
REMARK  4 active torsions:
REMARK  status: ('A' for Active; 'I' for Inactive)
REMARK    1  A    between atoms: C_1  and  N_2
REMARK    2  A    between atoms: C_3  and  C_4
REMARK    3  A    between atoms: N_8  and  C_9
REMARK    4  A    between atoms: C_9  and  C_10
REMARK                            x       y       z     vdW  Elec       q    Type
REMARK                         _______ _______ _______ _____ _____    ______ ____
ROOT
ATOM      1  C   UNL     1       4.615   2.214  20.511  0.00  0.00    +0.000 C 
ATOM      2  N   UNL     1       4.229   2.813  19.255  0.00  0.00    +0.000 N 
ATOM      3  C   UNL     1       3.033   2.906  18.643  0.00  0.00    +0.000 A 
ATOM      4  N   UNL     1       2.979   3.745  17.646  0.00  0.00    +0.000 NA
ATOM      5  N   UNL     1       4.268   4.225  17.539  0.00  0.00    +0.000 N 
ATOM      6  C   UNL     1       5.037   3.720  18.608  0.00  0.00    +0.000 A 
ATOM      7  O   UNL     1       6.149   4.090  18.957  0.00  0.00    +0.000 OA
ENDROOT
BRANCH   3   8
ATOM      8  C   UNL     1       1.823   2.201  19.097  0.00  0.00    +0.000 C 
ATOM      9  C   UNL     1       0.969   2.843  20.172  0.00  0.00    +0.000 C 
ATOM     10  C   UNL     1       0.419   2.663  18.794  0.00  0.00    +0.000 C 
ENDBRANCH   3   8
BRANCH   5  11
ATOM     11  C   UNL     1       4.601   5.511  16.965  0.00  0.00    +0.000 C 
BRANCH  11  12
ATOM     12  C   UNL     1       5.431   5.564  15.693  0.00  0.00    +0.000 C 
ATOM     13  C   UNL     1       6.938   5.464  15.807  0.00  0.00    +0.000 C 
ATOM     14  C   UNL     1       7.325   4.959  14.424  0.00  0.00    +0.000 C 
ATOM     15  O   UNL     1       6.232   4.163  13.947  0.00  0.00    +0.000 OA
ATOM     16  C   UNL     1       5.140   4.319  14.860  0.00  0.00    +0.000 C 
ENDBRANCH  11  12
ENDBRANCH   5  11
TORSDOF 3
ENDMDL
MODEL 6
REMARK VINA RESULT:      -5.9      2.258      5.520
REMARK  Name = 
REMARK  4 active torsions:
REMARK  status: ('A' for Active; 'I' for Inactive)
REMARK    1  A    between atoms: C_1  and  N_2
REMARK    2  A    between atoms: C_3  and  C_4
REMARK    3  A    between atoms: N_8  and  C_9
REMARK    4  A    between atoms: C_9  and  C_10
REMARK                            x       y       z     vdW  Elec       q    Type
REMARK                         _______ _______ _______ _____ _____    ______ ____
ROOT
ATOM      1  C   UNL     1       2.371   3.708  20.784  0.00  0.00    +0.000 C 
ATOM      2  N   UNL     1       3.175   4.196  19.687  0.00  0.00    +0.000 N 
ATOM      3  C   UNL     1       3.123   5.345  18.988  0.00  0.00    +0.000 A 
ATOM      4  N   UNL     1       4.162   5.591  18.239  0.00  0.00    +0.000 NA
ATOM      5  N   UNL     1       4.969   4.485  18.407  0.00  0.00    +0.000 N 
ATOM      6  C   UNL     1       4.403   3.649  19.392  0.00  0.00    +0.000 A 
ATOM      7  O   UNL     1       4.934   2.699  19.948  0.00  0.00    +0.000 OA
ENDROOT
BRANCH   3   8
ATOM      8  C   UNL     1       2.032   6.328  19.105  0.00  0.00    +0.000 C 
ATOM      9  C   UNL     1       2.083   7.337  20.234  0.00  0.00    +0.000 C 
ATOM     10  C   UNL     1       2.194   7.800  18.817  0.00  0.00    +0.000 C 
ENDBRANCH   3   8
BRANCH   5  11
ATOM     11  C   UNL     1       6.404   4.502  18.224  0.00  0.00    +0.000 C 
BRANCH  11  12
ATOM     12  C   UNL     1       6.975   4.370  16.821  0.00  0.00    +0.000 C 
ATOM     13  C   UNL     1       6.079   3.841  15.721  0.00  0.00    +0.000 C 
ATOM     14  C   UNL     1       6.744   4.407  14.475  0.00  0.00    +0.000 C 
ATOM     15  O   UNL     1       7.358   5.647  14.852  0.00  0.00    +0.000 OA
ATOM     16  C   UNL     1       7.277   5.763  16.277  0.00  0.00    +0.000 C 
ENDBRANCH  11  12
ENDBRANCH   5  11
TORSDOF 3
ENDMDL
MODEL 7
REMARK VINA RESULT:      -5.9      1.860      2.956
REMARK  Name = 
REMARK  4 active torsions:
REMARK  status: ('A' for Active; 'I' for Inactive)
REMARK    1  A    between atoms: C_1  and  N_2
REMARK    2  A    between atoms: C_3  and  C_4
REMARK    3  A    between atoms: N_8  and  C_9
REMARK    4  A    between atoms: C_9  and  C_10
REMARK                            x       y       z     vdW  Elec       q    Type
REMARK                         _______ _______ _______ _____ _____    ______ ____
ROOT
ATOM      1  C   UNL     1       6.786   5.092  15.387  0.00  0.00    +0.000 C 
ATOM      2  N   UNL     1       6.228   4.511  16.585  0.00  0.00    +0.000 N 
ATOM      3  C   UNL     1       6.593   4.612  17.877  0.00  0.00    +0.000 A 
ATOM      4  N   UNL     1       5.717   4.179  18.741  0.00  0.00    +0.000 NA
ATOM      5  N   UNL     1       4.687   3.693  17.962  0.00  0.00    +0.000 N 
ATOM      6  C   UNL     1       4.955   3.988  16.609  0.00  0.00    +0.000 A 
ATOM      7  O   UNL     1       4.181   3.901  15.667  0.00  0.00    +0.000 OA
ENDROOT
BRANCH   3   8
ATOM      8  C   UNL     1       7.842   5.248  18.329  0.00  0.00    +0.000 C 
ATOM      9  C   UNL     1       7.879   6.756  18.468  0.00  0.00    +0.000 C 
ATOM     10  C   UNL     1       8.013   5.894  19.682  0.00  0.00    +0.000 C 
ENDBRANCH   3   8
BRANCH   5  11
ATOM     11  C   UNL     1       3.316   3.597  18.414  0.00  0.00    +0.000 C 
BRANCH  11  12
ATOM     12  C   UNL     1       3.014   3.719  19.899  0.00  0.00    +0.000 C 
ATOM     13  C   UNL     1       1.568   3.700  20.348  0.00  0.00    +0.000 C 
ATOM     14  C   UNL     1       1.694   3.243  21.794  0.00  0.00    +0.000 C 
ATOM     15  O   UNL     1       2.849   2.397  21.868  0.00  0.00    +0.000 OA
ATOM     16  C   UNL     1       3.535   2.476  20.614  0.00  0.00    +0.000 C 
ENDBRANCH  11  12
ENDBRANCH   5  11
TORSDOF 3
ENDMDL
MODEL 8
REMARK VINA RESULT:      -5.8      1.152      1.579
REMARK  Name = 
REMARK  4 active torsions:
REMARK  status: ('A' for Active; 'I' for Inactive)
REMARK    1  A    between atoms: C_1  and  N_2
REMARK    2  A    between atoms: C_3  and  C_4
REMARK    3  A    between atoms: N_8  and  C_9
REMARK    4  A    between atoms: C_9  and  C_10
REMARK                            x       y       z     vdW  Elec       q    Type
REMARK                         _______ _______ _______ _____ _____    ______ ____
ROOT
ATOM      1  C   UNL     1       7.819   4.546  17.691  0.00  0.00    +0.000 C 
ATOM      2  N   UNL     1       6.508   5.151  17.650  0.00  0.00    +0.000 N 
ATOM      3  C   UNL     1       5.665   5.380  16.625  0.00  0.00    +0.000 A 
ATOM      4  N   UNL     1       4.446   5.699  16.965  0.00  0.00    +0.000 NA
ATOM      5  N   UNL     1       4.480   5.740  18.344  0.00  0.00    +0.000 N 
ATOM      6  C   UNL     1       5.745   5.300  18.786  0.00  0.00    +0.000 A 
ATOM      7  O   UNL     1       6.067   5.006  19.928  0.00  0.00    +0.000 OA
ENDROOT
BRANCH   3   8
ATOM      8  C   UNL     1       6.026   5.200  15.209  0.00  0.00    +0.000 C 
ATOM      9  C   UNL     1       6.335   3.802  14.712  0.00  0.00    +0.000 C 
ATOM     10  C   UNL     1       5.135   4.527  14.194  0.00  0.00    +0.000 C 
ENDBRANCH   3   8
BRANCH   5  11
ATOM     11  C   UNL     1       3.319   5.533  19.182  0.00  0.00    +0.000 C 
BRANCH  11  12
ATOM     12  C   UNL     1       2.281   4.501  18.769  0.00  0.00    +0.000 C 
ATOM     13  C   UNL     1       2.739   3.087  18.483  0.00  0.00    +0.000 C 
ATOM     14  C   UNL     1       1.461   2.291  18.708  0.00  0.00    +0.000 C 
ATOM     15  O   UNL     1       0.701   2.990  19.703  0.00  0.00    +0.000 OA
ATOM     16  C   UNL     1       1.339   4.249  19.943  0.00  0.00    +0.000 C 
ENDBRANCH  11  12
ENDBRANCH   5  11
TORSDOF 3
ENDMDL
MODEL 9
REMARK VINA RESULT:      -5.8      1.990      2.852
REMARK  Name = 
REMARK  4 active torsions:
REMARK  status: ('A' for Active; 'I' for Inactive)
REMARK    1  A    between atoms: C_1  and  N_2
REMARK    2  A    between atoms: C_3  and  C_4
REMARK    3  A    between atoms: N_8  and  C_9
REMARK    4  A    between atoms: C_9  and  C_10
REMARK                            x       y       z     vdW  Elec       q    Type
REMARK                         _______ _______ _______ _____ _____    ______ ____
ROOT
ATOM      1  C   UNL     1       5.618   3.656  15.996  0.00  0.00    +0.000 C 
ATOM      2  N   UNL     1       4.888   4.373  17.016  0.00  0.00    +0.000 N 
ATOM      3  C   UNL     1       4.914   5.667  17.386  0.00  0.00    +0.000 A 
ATOM      4  N   UNL     1       3.936   6.045  18.162  0.00  0.00    +0.000 NA
ATOM      5  N   UNL     1       3.210   4.892  18.378  0.00  0.00    +0.000 N 
ATOM      6  C   UNL     1       3.744   3.858  17.581  0.00  0.00    +0.000 A 
ATOM      7  O   UNL     1       3.240   2.768  17.352  0.00  0.00    +0.000 OA
ENDROOT
BRANCH   3   8
ATOM      8  C   UNL     1       5.904   6.641  16.897  0.00  0.00    +0.000 C 
ATOM      9  C   UNL     1       7.007   7.088  17.835  0.00  0.00    +0.000 C 
ATOM     10  C   UNL     1       7.345   6.300  16.610  0.00  0.00    +0.000 C 
ENDBRANCH   3   8
BRANCH   5  11
ATOM     11  C   UNL     1       1.803   4.880  18.714  0.00  0.00    +0.000 C 
BRANCH  11  12
ATOM     12  C   UNL     1       1.365   4.302  20.050  0.00  0.00    +0.000 C 
ATOM     13  C   UNL     1       1.133   2.809  20.153  0.00  0.00    +0.000 C 
ATOM     14  C   UNL     1       1.315   2.565  21.644  0.00  0.00    +0.000 C 
ATOM     15  O   UNL     1       2.257   3.538  22.117  0.00  0.00    +0.000 OA
ATOM     16  C   UNL     1       2.498   4.470  21.058  0.00  0.00    +0.000 C 
ENDBRANCH  11  12
ENDBRANCH   5  11
TORSDOF 3
ENDMDL
