MODEL 1
REMARK VINA RESULT:      -6.3      0.000      0.000
REMARK  Name = 
REMARK  7 active torsions:
REMARK  status: ('A' for Active; 'I' for Inactive)
REMARK    1  A    between atoms: C_1  and  C_2
REMARK    2  A    between atoms: C_3  and  C_4
REMARK    3  A    between atoms: C_4  and  O_6
REMARK    4  A    between atoms: O_6  and  C_7
REMARK    5  A    between atoms: C_7  and  C_8
REMARK    6  A    between atoms: C_7  and  C_9
REMARK    7  A    between atoms: C_10  and  C_11
REMARK                            x       y       z     vdW  Elec       q    Type
REMARK                         _______ _______ _______ _____ _____    ______ ____
ROOT
ATOM      1  C   UNL     1       5.189   6.614  15.730  0.00  0.00    +0.000 C 
ATOM      2  C   UNL     1       4.391   6.728  17.000  0.00  0.00    +0.000 C 
ATOM      3  C   UNL     1       4.198   5.819  17.978  0.00  0.00    +0.000 C 
ATOM      4  C   UNL     1       3.357   6.175  19.212  0.00  0.00    +0.000 C 
ATOM      5  N   UNL     1       2.468   7.345  18.956  0.00  0.00    +0.000 N 
ATOM      6  C   UNL     1       1.451   7.652  19.844  0.00  0.00    +0.000 C 
ATOM      7  N   UNL     1       0.555   8.598  19.436  0.00  0.00    +0.000 N 
ATOM      8  O   UNL     1       1.275   7.136  20.943  0.00  0.00    +0.000 OA
ATOM      9  C   UNL     1       2.922   8.335  18.106  0.00  0.00    +0.000 C 
ATOM     10  O   UNL     1       2.537   9.507  18.093  0.00  0.00    +0.000 OA
ATOM     11  N   UNL     1       3.834   7.967  17.165  0.00  0.00    +0.000 N 
ATOM     12  H   UNL     1       0.913   9.354  18.855  0.00  0.00    +0.000 HD
ATOM     13  H   UNL     1      -0.108   8.890  20.142  0.00  0.00    +0.000 HD
ATOM     14  H   UNL     1       4.041   8.704  16.497  0.00  0.00    +0.000 HD
ENDROOT
BRANCH   4  15
ATOM     15  C   UNL     1       2.629   4.968  19.827  0.00  0.00    +0.000 A 
ATOM     16  C   UNL     1       2.891   4.664  21.186  0.00  0.00    +0.000 A 
ATOM     17  C   UNL     1       2.291   3.577  21.815  0.00  0.00    +0.000 A 
ATOM     18  C   UNL     1       1.415   2.766  21.105  0.00  0.00    +0.000 A 
ATOM     19  C   UNL     1       1.133   3.044  19.760  0.00  0.00    +0.000 A 
ATOM     20 CL   UNL     1       0.049   1.971  18.949  0.00  0.00    +0.000 Cl
ATOM     21  C   UNL     1       1.726   4.150  19.121  0.00  0.00    +0.000 A 
ATOM     22 CL   UNL     1       1.353   4.491  17.461  0.00  0.00    +0.000 Cl
ENDBRANCH   4  15
BRANCH   3  23
ATOM     23  C   UNL     1       4.853   4.481  17.970  0.00  0.00    +0.000 C 
ATOM     24  O   UNL     1       4.483   3.560  17.260  0.00  0.00    +0.000 OA
BRANCH  23  25
ATOM     25  O   UNL     1       5.905   4.443  18.823  0.00  0.00    +0.000 OA
BRANCH  25  26
ATOM     26  C   UNL     1       7.052   5.255  18.501  0.00  0.00    +0.000 C 
ATOM     27  C   UNL     1       7.851   5.466  19.778  0.00  0.00    +0.000 C 
ATOM     28  C   UNL     1       7.882   4.503  17.462  0.00  0.00    +0.000 C 
ENDBRANCH  25  26
ENDBRANCH  23  25
ENDBRANCH   3  23
TORSDOF 4
ENDMDL
MODEL 2
REMARK VINA RESULT:      -5.9      8.063     11.339
REMARK  Name = 
REMARK  7 active torsions:
REMARK  status: ('A' for Active; 'I' for Inactive)
REMARK    1  A    between atoms: C_1  and  C_2
REMARK    2  A    between atoms: C_3  and  C_4
REMARK    3  A    between atoms: C_4  and  O_6
REMARK    4  A    between atoms: O_6  and  C_7
REMARK    5  A    between atoms: C_7  and  C_8
REMARK    6  A    between atoms: C_7  and  C_9
REMARK    7  A    between atoms: C_10  and  C_11
REMARK                            x       y       z     vdW  Elec       q    Type
REMARK                         _______ _______ _______ _____ _____    ______ ____
ROOT
ATOM      1  C   UNL     1      -4.543  11.557  17.482  0.00  0.00    +0.000 C 
ATOM      2  C   UNL     1      -3.527  11.729  18.578  0.00  0.00    +0.000 C 
ATOM      3  C   UNL     1      -3.649  12.339  19.775  0.00  0.00    +0.000 C 
ATOM      4  C   UNL     1      -2.468  12.363  20.756  0.00  0.00    +0.000 C 
ATOM      5  N   UNL     1      -1.172  12.102  20.068  0.00  0.00    +0.000 N 
ATOM      6  C   UNL     1       0.024  12.343  20.723  0.00  0.00    +0.000 C 
ATOM      7  N   UNL     1       1.156  12.283  19.962  0.00  0.00    +0.000 N 
ATOM      8  O   UNL     1       0.149  12.624  21.911  0.00  0.00    +0.000 OA
ATOM      9  C   UNL     1      -1.170  11.241  18.988  0.00  0.00    +0.000 C 
ATOM     10  O   UNL     1      -0.195  10.610  18.570  0.00  0.00    +0.000 OA
ATOM     11  N   UNL     1      -2.333  11.122  18.292  0.00  0.00    +0.000 N 
ATOM     12  H   UNL     1       1.167  11.605  19.202  0.00  0.00    +0.000 HD
ATOM     13  H   UNL     1       2.022  12.346  20.480  0.00  0.00    +0.000 HD
ATOM     14  H   UNL     1      -2.241  10.571  17.445  0.00  0.00    +0.000 HD
ENDROOT
BRANCH   4  15
ATOM     15  C   UNL     1      -2.448  13.607  21.660  0.00  0.00    +0.000 A 
ATOM     16  C   UNL     1      -2.111  14.848  21.065  0.00  0.00    +0.000 A 
ATOM     17  C   UNL     1      -2.049  16.020  21.814  0.00  0.00    +0.000 A 
ATOM     18  C   UNL     1      -2.320  15.983  23.177  0.00  0.00    +0.000 A 
ATOM     19  C   UNL     1      -2.661  14.771  23.793  0.00  0.00    +0.000 A 
ATOM     20 CL   UNL     1      -2.962  14.815  25.493  0.00  0.00    +0.000 Cl
ATOM     21  C   UNL     1      -2.739  13.584  23.038  0.00  0.00    +0.000 A 
ATOM     22 CL   UNL     1      -3.178  12.095  23.813  0.00  0.00    +0.000 Cl
ENDBRANCH   4  15
BRANCH   3  23
ATOM     23  C   UNL     1      -4.933  12.926  20.248  0.00  0.00    +0.000 C 
ATOM     24  O   UNL     1      -5.314  14.043  19.935  0.00  0.00    +0.000 OA
BRANCH  23  25
ATOM     25  O   UNL     1      -5.612  12.057  21.036  0.00  0.00    +0.000 OA
BRANCH  25  26
ATOM     26  C   UNL     1      -7.018  11.881  20.774  0.00  0.00    +0.000 C 
ATOM     27  C   UNL     1      -7.197  10.561  20.038  0.00  0.00    +0.000 C 
ATOM     28  C   UNL     1      -7.746  11.854  22.117  0.00  0.00    +0.000 C 
ENDBRANCH  25  26
ENDBRANCH  23  25
ENDBRANCH   3  23
TORSDOF 4
ENDMDL
MODEL 3
REMARK VINA RESULT:      -5.9      9.856     12.183
REMARK  Name = 
REMARK  7 active torsions:
REMARK  status: ('A' for Active; 'I' for Inactive)
REMARK    1  A    between atoms: C_1  and  C_2
REMARK    2  A    between atoms: C_3  and  C_4
REMARK    3  A    between atoms: C_4  and  O_6
REMARK    4  A    between atoms: O_6  and  C_7
REMARK    5  A    between atoms: C_7  and  C_8
REMARK    6  A    between atoms: C_7  and  C_9
REMARK    7  A    between atoms: C_10  and  C_11
REMARK                            x       y       z     vdW  Elec       q    Type
REMARK                         _______ _______ _______ _____ _____    ______ ____
ROOT
ATOM      1  C   UNL     1      10.888  11.644  20.446  0.00  0.00    +0.000 C 
ATOM      2  C   UNL     1      10.796  13.028  19.864  0.00  0.00    +0.000 C 
ATOM      3  C   UNL     1      10.151  14.116  20.333  0.00  0.00    +0.000 C 
ATOM      4  C   UNL     1      10.226  15.448  19.573  0.00  0.00    +0.000 C 
ATOM      5  N   UNL     1      10.633  15.252  18.152  0.00  0.00    +0.000 N 
ATOM      6  C   UNL     1      10.501  16.287  17.243  0.00  0.00    +0.000 C 
ATOM      7  N   UNL     1      10.692  15.969  15.929  0.00  0.00    +0.000 N 
ATOM      8  O   UNL     1      10.208  17.448  17.512  0.00  0.00    +0.000 OA
ATOM      9  C   UNL     1      11.513  14.228  17.862  0.00  0.00    +0.000 C 
ATOM     10  O   UNL     1      12.248  14.167  16.873  0.00  0.00    +0.000 OA
ATOM     11  N   UNL     1      11.527  13.168  18.715  0.00  0.00    +0.000 N 
ATOM     12  H   UNL     1      11.384  15.250  15.723  0.00  0.00    +0.000 HD
ATOM     13  H   UNL     1      10.706  16.758  15.296  0.00  0.00    +0.000 HD
ATOM     14  H   UNL     1      12.103  12.397  18.390  0.00  0.00    +0.000 HD
ENDROOT
BRANCH   4  15
ATOM     15  C   UNL     1       8.972  16.321  19.743  0.00  0.00    +0.000 A 
ATOM     16  C   UNL     1       9.101  17.520  20.487  0.00  0.00    +0.000 A 
ATOM     17  C   UNL     1       8.011  18.359  20.706  0.00  0.00    +0.000 A 
ATOM     18  C   UNL     1       6.766  18.022  20.189  0.00  0.00    +0.000 A 
ATOM     19  C   UNL     1       6.609  16.844  19.445  0.00  0.00    +0.000 A 
ATOM     20 CL   UNL     1       5.022  16.495  18.859  0.00  0.00    +0.000 Cl
ATOM     21  C   UNL     1       7.710  15.998  19.208  0.00  0.00    +0.000 A 
ATOM     22 CL   UNL     1       7.502  14.553  18.271  0.00  0.00    +0.000 Cl
ENDBRANCH   4  15
BRANCH   3  23
ATOM     23  C   UNL     1       9.426  14.119  21.634  0.00  0.00    +0.000 C 
ATOM     24  O   UNL     1       9.799  14.755  22.606  0.00  0.00    +0.000 OA
BRANCH  23  25
ATOM     25  O   UNL     1       8.310  13.353  21.577  0.00  0.00    +0.000 OA
BRANCH  25  26
ATOM     26  C   UNL     1       7.354  13.491  22.648  0.00  0.00    +0.000 C 
ATOM     27  C   UNL     1       6.172  14.292  22.123  0.00  0.00    +0.000 C 
ATOM     28  C   UNL     1       6.914  12.089  23.066  0.00  0.00    +0.000 C 
ENDBRANCH  25  26
ENDBRANCH  23  25
ENDBRANCH   3  23
TORSDOF 4
ENDMDL
MODEL 4
REMARK VINA RESULT:      -5.8      5.338      8.340
REMARK  Name = 
REMARK  7 active torsions:
REMARK  status: ('A' for Active; 'I' for Inactive)
REMARK    1  A    between atoms: C_1  and  C_2
REMARK    2  A    between atoms: C_3  and  C_4
REMARK    3  A    between atoms: C_4  and  O_6
REMARK    4  A    between atoms: O_6  and  C_7
REMARK    5  A    between atoms: C_7  and  C_8
REMARK    6  A    between atoms: C_7  and  C_9
REMARK    7  A    between atoms: C_10  and  C_11
REMARK                            x       y       z     vdW  Elec       q    Type
REMARK                         _______ _______ _______ _____ _____    ______ ____
ROOT
ATOM      1  C   UNL     1      -4.398  12.197  19.272  0.00  0.00    +0.000 C 
ATOM      2  C   UNL     1      -2.898  12.307  19.277  0.00  0.00    +0.000 C 
ATOM      3  C   UNL     1      -1.974  11.477  18.751  0.00  0.00    +0.000 C 
ATOM      4  C   UNL     1      -0.480  11.817  18.854  0.00  0.00    +0.000 C 
ATOM      5  N   UNL     1      -0.211  12.807  19.936  0.00  0.00    +0.000 N 
ATOM      6  C   UNL     1       1.086  13.037  20.360  0.00  0.00    +0.000 C 
ATOM      7  N   UNL     1       1.231  13.792  21.489  0.00  0.00    +0.000 N 
ATOM      8  O   UNL     1       2.105  12.608  19.826  0.00  0.00    +0.000 OA
ATOM      9  C   UNL     1      -1.169  13.769  20.192  0.00  0.00    +0.000 C 
ATOM     10  O   UNL     1      -0.969  14.861  20.729  0.00  0.00    +0.000 OA
ATOM     11  N   UNL     1      -2.455  13.457  19.873  0.00  0.00    +0.000 N 
ATOM     12  H   UNL     1       0.550  14.535  21.638  0.00  0.00    +0.000 HD
ATOM     13  H   UNL     1       2.184  14.045  21.713  0.00  0.00    +0.000 HD
ATOM     14  H   UNL     1      -3.127  14.149  20.190  0.00  0.00    +0.000 HD
ENDROOT
BRANCH   4  15
ATOM     15  C   UNL     1       0.428  10.577  18.911  0.00  0.00    +0.000 A 
ATOM     16  C   UNL     1       1.250  10.311  17.787  0.00  0.00    +0.000 A 
ATOM     17  C   UNL     1       2.086   9.199  17.747  0.00  0.00    +0.000 A 
ATOM     18  C   UNL     1       2.123   8.323  18.826  0.00  0.00    +0.000 A 
ATOM     19  C   UNL     1       1.324   8.563  19.953  0.00  0.00    +0.000 A 
ATOM     20 CL   UNL     1       1.418   7.411  21.237  0.00  0.00    +0.000 Cl
ATOM     21  C   UNL     1       0.485   9.693  20.006  0.00  0.00    +0.000 A 
ATOM     22 CL   UNL     1      -0.484   9.984  21.415  0.00  0.00    +0.000 Cl
ENDBRANCH   4  15
BRANCH   3  23
ATOM     23  C   UNL     1      -2.339  10.261  17.973  0.00  0.00    +0.000 C 
ATOM     24  O   UNL     1      -2.708   9.220  18.493  0.00  0.00    +0.000 OA
BRANCH  23  25
ATOM     25  O   UNL     1      -2.228  10.478  16.640  0.00  0.00    +0.000 OA
BRANCH  25  26
ATOM     26  C   UNL     1      -3.373  10.169  15.819  0.00  0.00    +0.000 C 
ATOM     27  C   UNL     1      -4.378  11.301  15.971  0.00  0.00    +0.000 C 
ATOM     28  C   UNL     1      -2.896  10.059  14.372  0.00  0.00    +0.000 C 
ENDBRANCH  25  26
ENDBRANCH  23  25
ENDBRANCH   3  23
TORSDOF 4
ENDMDL
MODEL 5
REMARK VINA RESULT:      -5.8      7.392     10.013
REMARK  Name = 
REMARK  7 active torsions:
REMARK  status: ('A' for Active; 'I' for Inactive)
REMARK    1  A    between atoms: C_1  and  C_2
REMARK    2  A    between atoms: C_3  and  C_4
REMARK    3  A    between atoms: C_4  and  O_6
REMARK    4  A    between atoms: O_6  and  C_7
REMARK    5  A    between atoms: C_7  and  C_8
REMARK    6  A    between atoms: C_7  and  C_9
REMARK    7  A    between atoms: C_10  and  C_11
REMARK                            x       y       z     vdW  Elec       q    Type
REMARK                         _______ _______ _______ _____ _____    ______ ____
ROOT
ATOM      1  C   UNL     1      -3.215  10.079  16.956  0.00  0.00    +0.000 C 
ATOM      2  C   UNL     1      -3.664  11.007  18.051  0.00  0.00    +0.000 C 
ATOM      3  C   UNL     1      -2.939  11.857  18.807  0.00  0.00    +0.000 C 
ATOM      4  C   UNL     1      -3.629  12.739  19.858  0.00  0.00    +0.000 C 
ATOM      5  N   UNL     1      -4.971  12.207  20.231  0.00  0.00    +0.000 N 
ATOM      6  C   UNL     1      -5.630  12.704  21.343  0.00  0.00    +0.000 C 
ATOM      7  N   UNL     1      -6.747  12.025  21.740  0.00  0.00    +0.000 N 
ATOM      8  O   UNL     1      -5.288  13.677  22.008  0.00  0.00    +0.000 OA
ATOM      9  C   UNL     1      -5.712  11.566  19.257  0.00  0.00    +0.000 C 
ATOM     10  O   UNL     1      -6.938  11.433  19.255  0.00  0.00    +0.000 OA
ATOM     11  N   UNL     1      -5.019  10.984  18.241  0.00  0.00    +0.000 N 
ATOM     12  H   UNL     1      -7.316  11.603  21.007  0.00  0.00    +0.000 HD
ATOM     13  H   UNL     1      -7.276  12.469  22.478  0.00  0.00    +0.000 HD
ATOM     14  H   UNL     1      -5.603  10.430  17.622  0.00  0.00    +0.000 HD
ENDROOT
BRANCH   4  15
ATOM     15  C   UNL     1      -2.735  13.065  21.067  0.00  0.00    +0.000 A 
ATOM     16  C   UNL     1      -2.355  11.992  21.912  0.00  0.00    +0.000 A 
ATOM     17  C   UNL     1      -1.565  12.202  23.039  0.00  0.00    +0.000 A 
ATOM     18  C   UNL     1      -1.135  13.486  23.352  0.00  0.00    +0.000 A 
ATOM     19  C   UNL     1      -1.492  14.566  22.532  0.00  0.00    +0.000 A 
ATOM     20 CL   UNL     1      -0.931  16.128  23.009  0.00  0.00    +0.000 Cl
ATOM     21  C   UNL     1      -2.280  14.359  21.383  0.00  0.00    +0.000 A 
ATOM     22 CL   UNL     1      -2.698  15.704  20.370  0.00  0.00    +0.000 Cl
ENDBRANCH   4  15
BRANCH   3  23
ATOM     23  C   UNL     1      -1.477  12.059  18.609  0.00  0.00    +0.000 C 
ATOM     24  O   UNL     1      -1.002  13.075  18.127  0.00  0.00    +0.000 OA
BRANCH  23  25
ATOM     25  O   UNL     1      -0.768  10.992  19.049  0.00  0.00    +0.000 OA
BRANCH  25  26
ATOM     26  C   UNL     1       0.664  11.134  19.132  0.00  0.00    +0.000 C 
ATOM     27  C   UNL     1       1.048  11.178  20.604  0.00  0.00    +0.000 C 
ATOM     28  C   UNL     1       1.296   9.924  18.445  0.00  0.00    +0.000 C 
ENDBRANCH  25  26
ENDBRANCH  23  25
ENDBRANCH   3  23
TORSDOF 4
ENDMDL
MODEL 6
REMARK VINA RESULT:      -5.8      7.044      9.304
REMARK  Name = 
REMARK  7 active torsions:
REMARK  status: ('A' for Active; 'I' for Inactive)
REMARK    1  A    between atoms: C_1  and  C_2
REMARK    2  A    between atoms: C_3  and  C_4
REMARK    3  A    between atoms: C_4  and  O_6
REMARK    4  A    between atoms: O_6  and  C_7
REMARK    5  A    between atoms: C_7  and  C_8
REMARK    6  A    between atoms: C_7  and  C_9
REMARK    7  A    between atoms: C_10  and  C_11
REMARK                            x       y       z     vdW  Elec       q    Type
REMARK                         _______ _______ _______ _____ _____    ______ ____
ROOT
ATOM      1  C   UNL     1       1.059   9.958  18.335  0.00  0.00    +0.000 C 
ATOM      2  C   UNL     1      -0.157  10.796  18.622  0.00  0.00    +0.000 C 
ATOM      3  C   UNL     1      -0.346  11.740  19.567  0.00  0.00    +0.000 C 
ATOM      4  C   UNL     1      -1.680  12.495  19.650  0.00  0.00    +0.000 C 
ATOM      5  N   UNL     1      -2.776  11.761  18.956  0.00  0.00    +0.000 N 
ATOM      6  C   UNL     1      -4.095  12.139  19.144  0.00  0.00    +0.000 C 
ATOM      7  N   UNL     1      -5.045  11.294  18.649  0.00  0.00    +0.000 N 
ATOM      8  O   UNL     1      -4.477  13.147  19.731  0.00  0.00    +0.000 OA
ATOM      9  C   UNL     1      -2.456  11.022  17.833  0.00  0.00    +0.000 C 
ATOM     10  O   UNL     1      -3.238  10.702  16.933  0.00  0.00    +0.000 OA
ATOM     11  N   UNL     1      -1.179  10.563  17.741  0.00  0.00    +0.000 N 
ATOM     12  H   UNL     1      -4.819  10.796  17.789  0.00  0.00    +0.000 HD
ATOM     13  H   UNL     1      -5.993  11.644  18.694  0.00  0.00    +0.000 HD
ATOM     14  H   UNL     1      -1.034   9.931  16.960  0.00  0.00    +0.000 HD
ENDROOT
BRANCH   4  15
ATOM     15  C   UNL     1      -2.043  12.943  21.076  0.00  0.00    +0.000 A 
ATOM     16  C   UNL     1      -2.358  11.936  22.022  0.00  0.00    +0.000 A 
ATOM     17  C   UNL     1      -2.717  12.254  23.329  0.00  0.00    +0.000 A 
ATOM     18  C   UNL     1      -2.772  13.585  23.725  0.00  0.00    +0.000 A 
ATOM     19  C   UNL     1      -2.462  14.603  22.812  0.00  0.00    +0.000 A 
ATOM     20 CL   UNL     1      -2.577  16.229  23.385  0.00  0.00    +0.000 Cl
ATOM     21  C   UNL     1      -2.085  14.287  21.492  0.00  0.00    +0.000 A 
ATOM     22 CL   UNL     1      -1.687  15.559  20.381  0.00  0.00    +0.000 Cl
ENDBRANCH   4  15
BRANCH   3  23
ATOM     23  C   UNL     1       0.732  12.166  20.501  0.00  0.00    +0.000 C 
ATOM     24  O   UNL     1       1.100  11.493  21.450  0.00  0.00    +0.000 OA
BRANCH  23  25
ATOM     25  O   UNL     1       1.249  13.367  20.141  0.00  0.00    +0.000 OA
BRANCH  25  26
ATOM     26  C   UNL     1       2.577  13.377  19.581  0.00  0.00    +0.000 C 
ATOM     27  C   UNL     1       2.455  13.636  18.087  0.00  0.00    +0.000 C 
ATOM     28  C   UNL     1       3.364  14.497  20.261  0.00  0.00    +0.000 C 
ENDBRANCH  25  26
ENDBRANCH  23  25
ENDBRANCH   3  23
TORSDOF 4
ENDMDL
MODEL 7
REMARK VINA RESULT:      -5.7      8.931     11.905
REMARK  Name = 
REMARK  7 active torsions:
REMARK  status: ('A' for Active; 'I' for Inactive)
REMARK    1  A    between atoms: C_1  and  C_2
REMARK    2  A    between atoms: C_3  and  C_4
REMARK    3  A    between atoms: C_4  and  O_6
REMARK    4  A    between atoms: O_6  and  C_7
REMARK    5  A    between atoms: C_7  and  C_8
REMARK    6  A    between atoms: C_7  and  C_9
REMARK    7  A    between atoms: C_10  and  C_11
REMARK                            x       y       z     vdW  Elec       q    Type
REMARK                         _______ _______ _______ _____ _____    ______ ____
ROOT
ATOM      1  C   UNL     1      -6.437  12.080  17.911  0.00  0.00    +0.000 C 
ATOM      2  C   UNL     1      -5.088  12.171  18.572  0.00  0.00    +0.000 C 
ATOM      3  C   UNL     1      -4.755  12.674  19.778  0.00  0.00    +0.000 C 
ATOM      4  C   UNL     1      -3.298  12.630  20.259  0.00  0.00    +0.000 C 
ATOM      5  N   UNL     1      -2.346  12.446  19.126  0.00  0.00    +0.000 N 
ATOM      6  C   UNL     1      -0.990  12.647  19.319  0.00  0.00    +0.000 C 
ATOM      7  N   UNL     1      -0.214  12.668  18.195  0.00  0.00    +0.000 N 
ATOM      8  O   UNL     1      -0.435  12.826  20.399  0.00  0.00    +0.000 OA
ATOM      9  C   UNL     1      -2.754  11.682  18.051  0.00  0.00    +0.000 C 
ATOM     10  O   UNL     1      -2.010  11.103  17.254  0.00  0.00    +0.000 OA
ATOM     11  N   UNL     1      -4.093  11.608  17.820  0.00  0.00    +0.000 N 
ATOM     12  H   UNL     1      -0.493  12.058  17.429  0.00  0.00    +0.000 HD
ATOM     13  H   UNL     1       0.782  12.698  18.365  0.00  0.00    +0.000 HD
ATOM     14  H   UNL     1      -4.326  11.133  16.953  0.00  0.00    +0.000 HD
ENDROOT
BRANCH   4  15
ATOM     15  C   UNL     1      -2.926  13.791  21.197  0.00  0.00    +0.000 A 
ATOM     16  C   UNL     1      -2.788  15.080  20.624  0.00  0.00    +0.000 A 
ATOM     17  C   UNL     1      -2.433  16.183  21.396  0.00  0.00    +0.000 A 
ATOM     18  C   UNL     1      -2.208  16.028  22.758  0.00  0.00    +0.000 A 
ATOM     19  C   UNL     1      -2.342  14.766  23.354  0.00  0.00    +0.000 A 
ATOM     20 CL   UNL     1      -2.022  14.663  25.048  0.00  0.00    +0.000 Cl
ATOM     21  C   UNL     1      -2.713  13.648  22.581  0.00  0.00    +0.000 A 
ATOM     22 CL   UNL     1      -2.891  12.097  23.337  0.00  0.00    +0.000 Cl
ENDBRANCH   4  15
BRANCH   3  23
ATOM     23  C   UNL     1      -5.767  13.201  20.734  0.00  0.00    +0.000 C 
ATOM     24  O   UNL     1      -6.196  14.343  20.693  0.00  0.00    +0.000 OA
BRANCH  23  25
ATOM     25  O   UNL     1      -6.151  12.248  21.619  0.00  0.00    +0.000 OA
BRANCH  25  26
ATOM     26  C   UNL     1      -7.564  11.986  21.742  0.00  0.00    +0.000 C 
ATOM     27  C   UNL     1      -7.874  10.716  20.963  0.00  0.00    +0.000 C 
ATOM     28  C   UNL     1      -7.879  11.801  23.225  0.00  0.00    +0.000 C 
ENDBRANCH  25  26
ENDBRANCH  23  25
ENDBRANCH   3  23
TORSDOF 4
ENDMDL
MODEL 8
REMARK VINA RESULT:      -5.7     10.091     12.132
REMARK  Name = 
REMARK  7 active torsions:
REMARK  status: ('A' for Active; 'I' for Inactive)
REMARK    1  A    between atoms: C_1  and  C_2
REMARK    2  A    between atoms: C_3  and  C_4
REMARK    3  A    between atoms: C_4  and  O_6
REMARK    4  A    between atoms: O_6  and  C_7
REMARK    5  A    between atoms: C_7  and  C_8
REMARK    6  A    between atoms: C_7  and  C_9
REMARK    7  A    between atoms: C_10  and  C_11
REMARK                            x       y       z     vdW  Elec       q    Type
REMARK                         _______ _______ _______ _____ _____    ______ ____
ROOT
ATOM      1  C   UNL     1      10.561  11.487  20.258  0.00  0.00    +0.000 C 
ATOM      2  C   UNL     1      10.468  12.892  19.727  0.00  0.00    +0.000 C 
ATOM      3  C   UNL     1       9.729  13.930  20.169  0.00  0.00    +0.000 C 
ATOM      4  C   UNL     1       9.823  15.297  19.477  0.00  0.00    +0.000 C 
ATOM      5  N   UNL     1      10.385  15.183  18.101  0.00  0.00    +0.000 N 
ATOM      6  C   UNL     1      10.302  16.253  17.225  0.00  0.00    +0.000 C 
ATOM      7  N   UNL     1      10.645  16.003  15.927  0.00  0.00    +0.000 N 
ATOM      8  O   UNL     1       9.931  17.388  17.509  0.00  0.00    +0.000 OA
ATOM      9  C   UNL     1      11.337  14.210  17.864  0.00  0.00    +0.000 C 
ATOM     10  O   UNL     1      12.174  14.224  16.958  0.00  0.00    +0.000 OA
ATOM     11  N   UNL     1      11.309  13.114  18.670  0.00  0.00    +0.000 N 
ATOM     12  H   UNL     1      11.387  15.323  15.768  0.00  0.00    +0.000 HD
ATOM     13  H   UNL     1      10.690  16.820  15.333  0.00  0.00    +0.000 HD
ATOM     14  H   UNL     1      11.951  12.383  18.377  0.00  0.00    +0.000 HD
ENDROOT
BRANCH   4  15
ATOM     15  C   UNL     1       8.519  16.110  19.546  0.00  0.00    +0.000 A 
ATOM     16  C   UNL     1       8.519  17.288  20.335  0.00  0.00    +0.000 A 
ATOM     17  C   UNL     1       7.376  18.071  20.470  0.00  0.00    +0.000 A 
ATOM     18  C   UNL     1       6.204  17.699  19.822  0.00  0.00    +0.000 A 
ATOM     19  C   UNL     1       6.175  16.542  19.031  0.00  0.00    +0.000 A 
ATOM     20 CL   UNL     1       4.671  16.145  18.280  0.00  0.00    +0.000 Cl
ATOM     21  C   UNL     1       7.332  15.752  18.880  0.00  0.00    +0.000 A 
ATOM     22 CL   UNL     1       7.283  14.332  17.884  0.00  0.00    +0.000 Cl
ENDBRANCH   4  15
BRANCH   3  23
ATOM     23  C   UNL     1       8.872  13.844  21.383  0.00  0.00    +0.000 C 
ATOM     24  O   UNL     1       7.692  13.533  21.349  0.00  0.00    +0.000 OA
BRANCH  23  25
ATOM     25  O   UNL     1       9.577  14.131  22.505  0.00  0.00    +0.000 OA
BRANCH  25  26
ATOM     26  C   UNL     1       9.183  15.296  23.258  0.00  0.00    +0.000 C 
ATOM     27  C   UNL     1       8.774  14.839  24.650  0.00  0.00    +0.000 C 
ATOM     28  C   UNL     1      10.384  16.237  23.329  0.00  0.00    +0.000 C 
ENDBRANCH  25  26
ENDBRANCH  23  25
ENDBRANCH   3  23
TORSDOF 4
ENDMDL
MODEL 9
REMARK VINA RESULT:      -5.7      6.073      9.082
REMARK  Name = 
REMARK  7 active torsions:
REMARK  status: ('A' for Active; 'I' for Inactive)
REMARK    1  A    between atoms: C_1  and  C_2
REMARK    2  A    between atoms: C_3  and  C_4
REMARK    3  A    between atoms: C_4  and  O_6
REMARK    4  A    between atoms: O_6  and  C_7
REMARK    5  A    between atoms: C_7  and  C_8
REMARK    6  A    between atoms: C_7  and  C_9
REMARK    7  A    between atoms: C_10  and  C_11
REMARK                            x       y       z     vdW  Elec       q    Type
REMARK                         _______ _______ _______ _____ _____    ______ ____
ROOT
ATOM      1  C   UNL     1       1.384  10.054  17.712  0.00  0.00    +0.000 C 
ATOM      2  C   UNL     1       0.550  10.180  18.958  0.00  0.00    +0.000 C 
ATOM      3  C   UNL     1      -0.417  11.071  19.258  0.00  0.00    +0.000 C 
ATOM      4  C   UNL     1      -1.162  10.983  20.598  0.00  0.00    +0.000 C 
ATOM      5  N   UNL     1      -0.398  10.191  21.604  0.00  0.00    +0.000 N 
ATOM      6  C   UNL     1      -0.769  10.220  22.938  0.00  0.00    +0.000 C 
ATOM      7  N   UNL     1       0.098   9.645  23.822  0.00  0.00    +0.000 N 
ATOM      8  O   UNL     1      -1.789  10.732  23.390  0.00  0.00    +0.000 OA
ATOM      9  C   UNL     1       0.366   9.132  21.156  0.00  0.00    +0.000 C 
ATOM     10  O   UNL     1       0.718   8.159  21.829  0.00  0.00    +0.000 OA
ATOM     11  N   UNL     1       0.816   9.197  19.873  0.00  0.00    +0.000 N 
ATOM     12  H   UNL     1       0.616   8.830  23.497  0.00  0.00    +0.000 HD
ATOM     13  H   UNL     1      -0.244   9.573  24.771  0.00  0.00    +0.000 HD
ATOM     14  H   UNL     1       1.467   8.454  19.637  0.00  0.00    +0.000 HD
ENDROOT
BRANCH   4  15
ATOM     15  C   UNL     1      -1.644  12.346  21.121  0.00  0.00    +0.000 A 
ATOM     16  C   UNL     1      -3.043  12.552  21.230  0.00  0.00    +0.000 A 
ATOM     17  C   UNL     1      -3.565  13.763  21.675  0.00  0.00    +0.000 A 
ATOM     18  C   UNL     1      -2.707  14.800  22.021  0.00  0.00    +0.000 A 
ATOM     19  C   UNL     1      -1.319  14.624  21.928  0.00  0.00    +0.000 A 
ATOM     20 CL   UNL     1      -0.329  15.973  22.360  0.00  0.00    +0.000 Cl
ATOM     21  C   UNL     1      -0.783  13.397  21.492  0.00  0.00    +0.000 A 
ATOM     22 CL   UNL     1       0.937  13.191  21.399  0.00  0.00    +0.000 Cl
ENDBRANCH   4  15
BRANCH   3  23
ATOM     23  C   UNL     1      -0.879  12.108  18.295  0.00  0.00    +0.000 C 
ATOM     24  O   UNL     1      -0.210  13.082  17.988  0.00  0.00    +0.000 OA
BRANCH  23  25
ATOM     25  O   UNL     1      -2.106  11.811  17.803  0.00  0.00    +0.000 OA
BRANCH  25  26
ATOM     26  C   UNL     1      -2.231  10.618  17.003  0.00  0.00    +0.000 C 
ATOM     27  C   UNL     1      -3.209   9.684  17.701  0.00  0.00    +0.000 C 
ATOM     28  C   UNL     1      -2.761  11.027  15.630  0.00  0.00    +0.000 C 
ENDBRANCH  25  26
ENDBRANCH  23  25
ENDBRANCH   3  23
TORSDOF 4
ENDMDL
