MODEL 1
REMARK VINA RESULT:      -6.0      0.000      0.000
REMARK  Name = 
REMARK  5 active torsions:
REMARK  status: ('A' for Active; 'I' for Inactive)
REMARK    1  A    between atoms: C_1  and  O_2
REMARK    2  A    between atoms: O_2  and  C_3
REMARK    3  A    between atoms: C_5  and  N_6
REMARK    4  A    between atoms: C_10  and  C_11
REMARK    5  A    between atoms: C_13  and  O_14
REMARK                            x       y       z     vdW  Elec       q    Type
REMARK                         _______ _______ _______ _____ _____    ______ ____
ROOT
ATOM      1  C   UNL     1       4.672   4.116  17.319  0.00  0.00    +0.000 A 
ATOM      2  C   UNL     1       5.169   4.111  16.007  0.00  0.00    +0.000 A 
ATOM      3  C   UNL     1       6.422   4.663  15.720  0.00  0.00    +0.000 A 
ATOM      4  C   UNL     1       7.202   5.229  16.735  0.00  0.00    +0.000 A 
ATOM      5  C   UNL     1       6.708   5.236  18.041  0.00  0.00    +0.000 A 
ATOM      6  C   UNL     1       5.446   4.685  18.343  0.00  0.00    +0.000 A 
ENDROOT
BRANCH   3   7
ATOM      7  N   UNL     1       6.926   4.652  14.341  0.00  0.00    +0.000 N 
ATOM      8  O   UNL     1       6.443   3.827  13.554  0.00  0.00    +0.000 OA
ATOM      9  O   UNL     1       7.809   5.471  14.051  0.00  0.00    +0.000 OA
ENDBRANCH   3   7
BRANCH   1  11
ATOM     10  C   UNL     1       3.350   2.189  17.867  0.00  0.00    +0.000 C 
ATOM     11  O   UNL     1       3.437   3.532  17.410  0.00  0.00    +0.000 OA
ENDBRANCH   1  11
BRANCH   5  12
ATOM     12  C   UNL     1       7.555   5.837  19.092  0.00  0.00    +0.000 C 
ATOM     13  O   UNL     1       7.634   5.323  20.204  0.00  0.00    +0.000 OA
ENDBRANCH   5  12
BRANCH   6  14
ATOM     14  O   UNL     1       4.976   4.704  19.630  0.00  0.00    +0.000 OA
ATOM     15  H   UNL     1       3.995   4.617  19.622  0.00  0.00    +0.000 HD
ENDBRANCH   6  14
TORSDOF 4
ENDMDL
MODEL 2
REMARK VINA RESULT:      -5.9      1.001      3.420
REMARK  Name = 
REMARK  5 active torsions:
REMARK  status: ('A' for Active; 'I' for Inactive)
REMARK    1  A    between atoms: C_1  and  O_2
REMARK    2  A    between atoms: O_2  and  C_3
REMARK    3  A    between atoms: C_5  and  N_6
REMARK    4  A    between atoms: C_10  and  C_11
REMARK    5  A    between atoms: C_13  and  O_14
REMARK                            x       y       z     vdW  Elec       q    Type
REMARK                         _______ _______ _______ _____ _____    ______ ____
ROOT
ATOM      1  C   UNL     1       5.825   4.692  18.601  0.00  0.00    +0.000 A 
ATOM      2  C   UNL     1       6.553   4.801  17.407  0.00  0.00    +0.000 A 
ATOM      3  C   UNL     1       5.983   4.414  16.189  0.00  0.00    +0.000 A 
ATOM      4  C   UNL     1       4.678   3.912  16.140  0.00  0.00    +0.000 A 
ATOM      5  C   UNL     1       3.952   3.802  17.328  0.00  0.00    +0.000 A 
ATOM      6  C   UNL     1       4.517   4.186  18.561  0.00  0.00    +0.000 A 
ENDROOT
BRANCH   3   7
ATOM      7  N   UNL     1       6.760   4.533  14.948  0.00  0.00    +0.000 N 
ATOM      8  O   UNL     1       6.455   3.797  14.000  0.00  0.00    +0.000 OA
ATOM      9  O   UNL     1       7.677   5.365  14.930  0.00  0.00    +0.000 OA
ENDBRANCH   3   7
BRANCH   1  11
ATOM     10  C   UNL     1       7.789   5.762  19.471  0.00  0.00    +0.000 C 
ATOM     11  O   UNL     1       6.540   5.119  19.687  0.00  0.00    +0.000 OA
ENDBRANCH   1  11
BRANCH   5  12
ATOM     12  C   UNL     1       2.576   3.271  17.245  0.00  0.00    +0.000 C 
ATOM     13  O   UNL     1       1.611   3.993  17.479  0.00  0.00    +0.000 OA
ENDBRANCH   5  12
BRANCH   6  14
ATOM     14  O   UNL     1       3.791   4.066  19.718  0.00  0.00    +0.000 OA
ATOM     15  H   UNL     1       4.387   4.181  20.492  0.00  0.00    +0.000 HD
ENDBRANCH   6  14
TORSDOF 4
ENDMDL
MODEL 3
REMARK VINA RESULT:      -5.8      0.799      3.370
REMARK  Name = 
REMARK  5 active torsions:
REMARK  status: ('A' for Active; 'I' for Inactive)
REMARK    1  A    between atoms: C_1  and  O_2
REMARK    2  A    between atoms: O_2  and  C_3
REMARK    3  A    between atoms: C_5  and  N_6
REMARK    4  A    between atoms: C_10  and  C_11
REMARK    5  A    between atoms: C_13  and  O_14
REMARK                            x       y       z     vdW  Elec       q    Type
REMARK                         _______ _______ _______ _____ _____    ______ ____
ROOT
ATOM      1  C   UNL     1       6.676   4.590  17.937  0.00  0.00    +0.000 A 
ATOM      2  C   UNL     1       7.181   4.721  16.634  0.00  0.00    +0.000 A 
ATOM      3  C   UNL     1       6.355   4.499  15.526  0.00  0.00    +0.000 A 
ATOM      4  C   UNL     1       5.013   4.145  15.698  0.00  0.00    +0.000 A 
ATOM      5  C   UNL     1       4.509   4.013  16.994  0.00  0.00    +0.000 A 
ATOM      6  C   UNL     1       5.332   4.231  18.117  0.00  0.00    +0.000 A 
ENDROOT
BRANCH   3   7
ATOM      7  N   UNL     1       6.900   4.639  14.170  0.00  0.00    +0.000 N 
ATOM      8  O   UNL     1       7.789   5.480  13.986  0.00  0.00    +0.000 OA
ATOM      9  O   UNL     1       6.432   3.902  13.291  0.00  0.00    +0.000 OA
ENDBRANCH   3   7
BRANCH   1  11
ATOM     10  C   UNL     1       8.013   6.196  19.119  0.00  0.00    +0.000 C 
ATOM     11  O   UNL     1       7.625   4.848  18.890  0.00  0.00    +0.000 OA
ENDBRANCH   1  11
BRANCH   5  12
ATOM     12  C   UNL     1       3.088   3.639  17.143  0.00  0.00    +0.000 C 
ATOM     13  O   UNL     1       2.312   4.360  17.765  0.00  0.00    +0.000 OA
ENDBRANCH   5  12
BRANCH   6  14
ATOM     14  O   UNL     1       4.822   4.093  19.382  0.00  0.00    +0.000 OA
ATOM     15  H   UNL     1       4.050   4.693  19.491  0.00  0.00    +0.000 HD
ENDBRANCH   6  14
TORSDOF 4
ENDMDL
MODEL 4
REMARK VINA RESULT:      -5.7      2.281      3.853
REMARK  Name = 
REMARK  5 active torsions:
REMARK  status: ('A' for Active; 'I' for Inactive)
REMARK    1  A    between atoms: C_1  and  O_2
REMARK    2  A    between atoms: O_2  and  C_3
REMARK    3  A    between atoms: C_5  and  N_6
REMARK    4  A    between atoms: C_10  and  C_11
REMARK    5  A    between atoms: C_13  and  O_14
REMARK                            x       y       z     vdW  Elec       q    Type
REMARK                         _______ _______ _______ _____ _____    ______ ____
ROOT
ATOM      1  C   UNL     1       5.828   4.116  16.392  0.00  0.00    +0.000 A 
ATOM      2  C   UNL     1       4.481   4.452  16.598  0.00  0.00    +0.000 A 
ATOM      3  C   UNL     1       4.099   5.195  17.721  0.00  0.00    +0.000 A 
ATOM      4  C   UNL     1       5.051   5.616  18.656  0.00  0.00    +0.000 A 
ATOM      5  C   UNL     1       6.391   5.281  18.453  0.00  0.00    +0.000 A 
ATOM      6  C   UNL     1       6.788   4.531  17.327  0.00  0.00    +0.000 A 
ENDROOT
BRANCH   3   7
ATOM      7  N   UNL     1       2.685   5.537  17.923  0.00  0.00    +0.000 N 
ATOM      8  O   UNL     1       2.403   6.719  18.163  0.00  0.00    +0.000 OA
ATOM      9  O   UNL     1       1.860   4.617  17.840  0.00  0.00    +0.000 OA
ENDBRANCH   3   7
BRANCH   1  11
ATOM     10  C   UNL     1       6.293   4.089  14.038  0.00  0.00    +0.000 C 
ATOM     11  O   UNL     1       6.013   3.392  15.245  0.00  0.00    +0.000 OA
ENDBRANCH   1  11
BRANCH   5  12
ATOM     12  C   UNL     1       7.374   5.741  19.455  0.00  0.00    +0.000 C 
ATOM     13  O   UNL     1       8.344   5.047  19.746  0.00  0.00    +0.000 OA
ENDBRANCH   5  12
BRANCH   6  14
ATOM     14  O   UNL     1       8.108   4.207  17.146  0.00  0.00    +0.000 OA
ATOM     15  H   UNL     1       8.296   4.123  16.184  0.00  0.00    +0.000 HD
ENDBRANCH   6  14
TORSDOF 4
ENDMDL
MODEL 5
REMARK VINA RESULT:      -5.6      1.987      3.881
REMARK  Name = 
REMARK  5 active torsions:
REMARK  status: ('A' for Active; 'I' for Inactive)
REMARK    1  A    between atoms: C_1  and  O_2
REMARK    2  A    between atoms: O_2  and  C_3
REMARK    3  A    between atoms: C_5  and  N_6
REMARK    4  A    between atoms: C_10  and  C_11
REMARK    5  A    between atoms: C_13  and  O_14
REMARK                            x       y       z     vdW  Elec       q    Type
REMARK                         _______ _______ _______ _____ _____    ______ ____
ROOT
ATOM      1  C   UNL     1       5.564   4.740  15.943  0.00  0.00    +0.000 A 
ATOM      2  C   UNL     1       4.571   3.939  16.527  0.00  0.00    +0.000 A 
ATOM      3  C   UNL     1       4.534   3.752  17.914  0.00  0.00    +0.000 A 
ATOM      4  C   UNL     1       5.483   4.361  18.741  0.00  0.00    +0.000 A 
ATOM      5  C   UNL     1       6.473   5.158  18.161  0.00  0.00    +0.000 A 
ATOM      6  C   UNL     1       6.522   5.351  16.765  0.00  0.00    +0.000 A 
ENDROOT
BRANCH   3   7
ATOM      7  N   UNL     1       3.489   2.909  18.509  0.00  0.00    +0.000 N 
ATOM      8  O   UNL     1       2.661   2.390  17.750  0.00  0.00    +0.000 OA
ATOM      9  O   UNL     1       3.503   2.770  19.740  0.00  0.00    +0.000 OA
ENDBRANCH   3   7
BRANCH   1  11
ATOM     10  C   UNL     1       6.211   3.923  13.781  0.00  0.00    +0.000 C 
ATOM     11  O   UNL     1       5.441   4.809  14.581  0.00  0.00    +0.000 OA
ENDBRANCH   1  11
BRANCH   5  12
ATOM     12  C   UNL     1       7.461   5.789  19.059  0.00  0.00    +0.000 C 
ATOM     13  O   UNL     1       7.620   5.377  20.204  0.00  0.00    +0.000 OA
ENDBRANCH   5  12
BRANCH   6  14
ATOM     14  O   UNL     1       7.504   6.133  16.213  0.00  0.00    +0.000 OA
ATOM     15  H   UNL     1       7.343   7.075  16.448  0.00  0.00    +0.000 HD
ENDBRANCH   6  14
TORSDOF 4
ENDMDL
MODEL 6
REMARK VINA RESULT:      -5.6      2.329      3.108
REMARK  Name = 
REMARK  5 active torsions:
REMARK  status: ('A' for Active; 'I' for Inactive)
REMARK    1  A    between atoms: C_1  and  O_2
REMARK    2  A    between atoms: O_2  and  C_3
REMARK    3  A    between atoms: C_5  and  N_6
REMARK    4  A    between atoms: C_10  and  C_11
REMARK    5  A    between atoms: C_13  and  O_14
REMARK                            x       y       z     vdW  Elec       q    Type
REMARK                         _______ _______ _______ _____ _____    ______ ____
ROOT
ATOM      1  C   UNL     1       3.863   3.915  17.464  0.00  0.00    +0.000 A 
ATOM      2  C   UNL     1       5.210   4.089  17.112  0.00  0.00    +0.000 A 
ATOM      3  C   UNL     1       5.772   5.370  17.064  0.00  0.00    +0.000 A 
ATOM      4  C   UNL     1       5.002   6.498  17.367  0.00  0.00    +0.000 A 
ATOM      5  C   UNL     1       3.661   6.326  17.717  0.00  0.00    +0.000 A 
ATOM      6  C   UNL     1       3.083   5.041  17.766  0.00  0.00    +0.000 A 
ENDROOT
BRANCH   3   7
ATOM      7  N   UNL     1       7.183   5.534  16.691  0.00  0.00    +0.000 N 
ATOM      8  O   UNL     1       7.599   6.682  16.489  0.00  0.00    +0.000 OA
ATOM      9  O   UNL     1       7.871   4.508  16.603  0.00  0.00    +0.000 OA
ENDBRANCH   3   7
BRANCH   1  11
ATOM     10  C   UNL     1       3.531   1.874  18.683  0.00  0.00    +0.000 C 
ATOM     11  O   UNL     1       3.491   2.597  17.460  0.00  0.00    +0.000 OA
ENDBRANCH   1  11
BRANCH   5  12
ATOM     12  C   UNL     1       2.874   7.535  18.034  0.00  0.00    +0.000 C 
ATOM     13  O   UNL     1       2.317   7.653  19.122  0.00  0.00    +0.000 OA
ENDBRANCH   5  12
BRANCH   6  14
ATOM     14  O   UNL     1       1.764   4.892  18.106  0.00  0.00    +0.000 OA
ATOM     15  H   UNL     1       1.653   4.072  18.640  0.00  0.00    +0.000 HD
ENDBRANCH   6  14
TORSDOF 4
ENDMDL
MODEL 7
REMARK VINA RESULT:      -5.6      2.810      4.485
REMARK  Name = 
REMARK  5 active torsions:
REMARK  status: ('A' for Active; 'I' for Inactive)
REMARK    1  A    between atoms: C_1  and  O_2
REMARK    2  A    between atoms: O_2  and  C_3
REMARK    3  A    between atoms: C_5  and  N_6
REMARK    4  A    between atoms: C_10  and  C_11
REMARK    5  A    between atoms: C_13  and  O_14
REMARK                            x       y       z     vdW  Elec       q    Type
REMARK                         _______ _______ _______ _____ _____    ______ ____
ROOT
ATOM      1  C   UNL     1       4.089   6.422  17.349  0.00  0.00    +0.000 A 
ATOM      2  C   UNL     1       3.158   5.430  17.691  0.00  0.00    +0.000 A 
ATOM      3  C   UNL     1       3.380   4.095  17.334  0.00  0.00    +0.000 A 
ATOM      4  C   UNL     1       4.532   3.726  16.633  0.00  0.00    +0.000 A 
ATOM      5  C   UNL     1       5.460   4.713  16.291  0.00  0.00    +0.000 A 
ATOM      6  C   UNL     1       5.246   6.061  16.642  0.00  0.00    +0.000 A 
ENDROOT
BRANCH   3   7
ATOM      7  N   UNL     1       2.394   3.069  17.698  0.00  0.00    +0.000 N 
ATOM      8  O   UNL     1       2.799   1.913  17.879  0.00  0.00    +0.000 OA
ATOM      9  O   UNL     1       1.212   3.427  17.801  0.00  0.00    +0.000 OA
ENDBRANCH   3   7
BRANCH   1  11
ATOM     10  C   UNL     1       2.321   7.941  17.924  0.00  0.00    +0.000 C 
ATOM     11  O   UNL     1       3.708   7.664  17.781  0.00  0.00    +0.000 OA
ENDBRANCH   1  11
BRANCH   5  12
ATOM     12  C   UNL     1       6.668   4.293  15.552  0.00  0.00    +0.000 C 
ATOM     13  O   UNL     1       7.772   4.736  15.854  0.00  0.00    +0.000 OA
ENDBRANCH   5  12
BRANCH   6  14
ATOM     14  O   UNL     1       6.165   7.017  16.294  0.00  0.00    +0.000 OA
ATOM     15  H   UNL     1       5.720   7.894  16.237  0.00  0.00    +0.000 HD
ENDBRANCH   6  14
TORSDOF 4
ENDMDL
MODEL 8
REMARK VINA RESULT:      -5.5      2.321      2.963
REMARK  Name = 
REMARK  5 active torsions:
REMARK  status: ('A' for Active; 'I' for Inactive)
REMARK    1  A    between atoms: C_1  and  O_2
REMARK    2  A    between atoms: O_2  and  C_3
REMARK    3  A    between atoms: C_5  and  N_6
REMARK    4  A    between atoms: C_10  and  C_11
REMARK    5  A    between atoms: C_13  and  O_14
REMARK                            x       y       z     vdW  Elec       q    Type
REMARK                         _______ _______ _______ _____ _____    ______ ____
ROOT
ATOM      1  C   UNL     1       3.678   3.934  17.349  0.00  0.00    +0.000 A 
ATOM      2  C   UNL     1       5.000   3.885  16.880  0.00  0.00    +0.000 A 
ATOM      3  C   UNL     1       5.759   5.056  16.771  0.00  0.00    +0.000 A 
ATOM      4  C   UNL     1       5.215   6.294  17.127  0.00  0.00    +0.000 A 
ATOM      5  C   UNL     1       3.899   6.345  17.592  0.00  0.00    +0.000 A 
ATOM      6  C   UNL     1       3.123   5.173  17.705  0.00  0.00    +0.000 A 
ENDROOT
BRANCH   3   7
ATOM      7  N   UNL     1       7.140   4.987  16.276  0.00  0.00    +0.000 N 
ATOM      8  O   UNL     1       7.974   4.389  16.968  0.00  0.00    +0.000 OA
ATOM      9  O   UNL     1       7.384   5.535  15.193  0.00  0.00    +0.000 OA
ENDBRANCH   3   7
BRANCH   1  11
ATOM     10  C   UNL     1       3.450   1.812  18.447  0.00  0.00    +0.000 C 
ATOM     11  O   UNL     1       3.095   2.696  17.392  0.00  0.00    +0.000 OA
ENDBRANCH   1  11
BRANCH   5  12
ATOM     12  C   UNL     1       3.352   7.666  17.963  0.00  0.00    +0.000 C 
ATOM     13  O   UNL     1       2.569   8.251  17.220  0.00  0.00    +0.000 OA
ENDBRANCH   5  12
BRANCH   6  14
ATOM     14  O   UNL     1       1.832   5.242  18.159  0.00  0.00    +0.000 OA
ATOM     15  H   UNL     1       1.834   5.343  19.138  0.00  0.00    +0.000 HD
ENDBRANCH   6  14
TORSDOF 4
ENDMDL
MODEL 9
REMARK VINA RESULT:      -5.5      1.527      3.636
REMARK  Name = 
REMARK  5 active torsions:
REMARK  status: ('A' for Active; 'I' for Inactive)
REMARK    1  A    between atoms: C_1  and  O_2
REMARK    2  A    between atoms: O_2  and  C_3
REMARK    3  A    between atoms: C_5  and  N_6
REMARK    4  A    between atoms: C_10  and  C_11
REMARK    5  A    between atoms: C_13  and  O_14
REMARK                            x       y       z     vdW  Elec       q    Type
REMARK                         _______ _______ _______ _____ _____    ______ ____
ROOT
ATOM      1  C   UNL     1       5.805   4.608  18.860  0.00  0.00    +0.000 A 
ATOM      2  C   UNL     1       5.957   5.256  17.625  0.00  0.00    +0.000 A 
ATOM      3  C   UNL     1       5.184   4.874  16.523  0.00  0.00    +0.000 A 
ATOM      4  C   UNL     1       4.247   3.841  16.632  0.00  0.00    +0.000 A 
ATOM      5  C   UNL     1       4.096   3.194  17.860  0.00  0.00    +0.000 A 
ATOM      6  C   UNL     1       4.870   3.568  18.977  0.00  0.00    +0.000 A 
ENDROOT
BRANCH   3   7
ATOM      7  N   UNL     1       5.357   5.562  15.237  0.00  0.00    +0.000 N 
ATOM      8  O   UNL     1       5.652   4.878  14.248  0.00  0.00    +0.000 OA
ATOM      9  O   UNL     1       5.197   6.790  15.223  0.00  0.00    +0.000 OA
ENDBRANCH   3   7
BRANCH   1  11
ATOM     10  C   UNL     1       7.833   5.769  19.410  0.00  0.00    +0.000 C 
ATOM     11  O   UNL     1       6.639   5.116  19.820  0.00  0.00    +0.000 OA
ENDBRANCH   1  11
BRANCH   5  12
ATOM     12  C   UNL     1       3.097   2.108  17.946  0.00  0.00    +0.000 C 
ATOM     13  O   UNL     1       2.163   2.178  18.738  0.00  0.00    +0.000 OA
ENDBRANCH   5  12
BRANCH   6  14
ATOM     14  O   UNL     1       4.711   2.918  20.174  0.00  0.00    +0.000 OA
ATOM     15  H   UNL     1       3.965   2.280  20.104  0.00  0.00    +0.000 HD
ENDBRANCH   6  14
TORSDOF 4
ENDMDL
