MODEL 1
REMARK VINA RESULT:      -8.0      0.000      0.000
REMARK  Name = 
REMARK  5 active torsions:
REMARK  status: ('A' for Active; 'I' for Inactive)
REMARK    1  A    between atoms: N_1  and  C_2
REMARK    2  A    between atoms: C_3  and  S_4
REMARK    3  A    between atoms: S_4  and  O_7
REMARK    4  A    between atoms: C_9  and  N_10
REMARK    5  A    between atoms: N_10  and  C_11
REMARK                            x       y       z     vdW  Elec       q    Type
REMARK                         _______ _______ _______ _____ _____    ______ ____
ROOT
ATOM      1  C   UNL     1       2.620   4.862  20.151  0.00  0.00    +0.000 A 
ATOM      2  C   UNL     1       3.398   3.916  19.479  0.00  0.00    +0.000 A 
ATOM      3  C   UNL     1       4.053   4.230  18.275  0.00  0.00    +0.000 A 
ATOM      4  C   UNL     1       3.961   5.494  17.687  0.00  0.00    +0.000 A 
ATOM      5  C   UNL     1       3.160   6.466  18.348  0.00  0.00    +0.000 A 
ATOM      6  C   UNL     1       2.488   6.146  19.549  0.00  0.00    +0.000 A 
ATOM      7  C   UNL     1       1.679   7.193  20.239  0.00  0.00    +0.000 C 
ATOM      8  O   UNL     1       1.160   6.981  21.331  0.00  0.00    +0.000 OA
ATOM      9  C   UNL     1       1.519   8.525  19.643  0.00  0.00    +0.000 A 
ATOM     10  C   UNL     1       0.731   9.485  20.300  0.00  0.00    +0.000 A 
ATOM     11  C   UNL     1       0.592  10.764  19.765  0.00  0.00    +0.000 A 
ATOM     12  C   UNL     1       1.234  11.087  18.573  0.00  0.00    +0.000 A 
ATOM     13  C   UNL     1       2.013  10.128  17.916  0.00  0.00    +0.000 A 
ATOM     14  C   UNL     1       2.157   8.840  18.454  0.00  0.00    +0.000 A 
ATOM     15  C   UNL     1       2.989   7.832  17.764  0.00  0.00    +0.000 C 
ATOM     16  O   UNL     1       3.521   8.140  16.700  0.00  0.00    +0.000 OA
ENDROOT
BRANCH   1  17
ATOM     17  N   UNL     1       1.823   4.503  21.258  0.00  0.00    +0.000 N 
ATOM     18  H   UNL     1       1.913   3.530  21.555  0.00  0.00    +0.000 HD
ATOM     19  H   UNL     1       1.950   5.141  22.059  0.00  0.00    +0.000 HD
ENDBRANCH   1  17
BRANCH   2  20
ATOM     20  S   UNL     1       3.672   2.259  20.061  0.00  0.00    +0.000 S 
ATOM     21  O   UNL     1       3.499   2.290  21.495  0.00  0.00    +0.000 OA
ATOM     22  O   UNL     1       2.904   1.383  19.208  0.00  0.00    +0.000 OA
BRANCH  20  23
ATOM     23  O   UNL     1       5.239   1.926  19.826  0.00  0.00    +0.000 OA
ATOM     24  H   UNL     1       5.453   2.159  18.899  0.00  0.00    +0.000 HD
ENDBRANCH  20  23
ENDBRANCH   2  20
BRANCH   4  25
ATOM     25  N   UNL     1       4.714   5.793  16.550  0.00  0.00    +0.000 N 
ATOM     26  H   UNL     1       4.267   6.498  15.947  0.00  0.00    +0.000 HD
BRANCH  25  27
ATOM     27  C   UNL     1       5.589   4.845  15.857  0.00  0.00    +0.000 C 
ATOM     28  C   UNL     1       5.014   4.360  14.527  0.00  0.00    +0.000 C 
ATOM     29  C   UNL     1       6.222   4.001  13.671  0.00  0.00    +0.000 C 
ATOM     30  C   UNL     1       7.380   4.846  14.182  0.00  0.00    +0.000 C 
ATOM     31  C   UNL     1       6.911   5.515  15.470  0.00  0.00    +0.000 C 
ENDBRANCH  25  27
ENDBRANCH   4  25
TORSDOF 5
ENDMDL
MODEL 2
REMARK VINA RESULT:      -7.6      1.279      1.808
REMARK  Name = 
REMARK  5 active torsions:
REMARK  status: ('A' for Active; 'I' for Inactive)
REMARK    1  A    between atoms: N_1  and  C_2
REMARK    2  A    between atoms: C_3  and  S_4
REMARK    3  A    between atoms: S_4  and  O_7
REMARK    4  A    between atoms: C_9  and  N_10
REMARK    5  A    between atoms: N_10  and  C_11
REMARK                            x       y       z     vdW  Elec       q    Type
REMARK                         _______ _______ _______ _____ _____    ______ ____
ROOT
ATOM      1  C   UNL     1       2.513   4.916  20.181  0.00  0.00    +0.000 A 
ATOM      2  C   UNL     1       3.366   4.020  19.532  0.00  0.00    +0.000 A 
ATOM      3  C   UNL     1       4.090   4.397  18.387  0.00  0.00    +0.000 A 
ATOM      4  C   UNL     1       3.996   5.679  17.838  0.00  0.00    +0.000 A 
ATOM      5  C   UNL     1       3.120   6.601  18.476  0.00  0.00    +0.000 A 
ATOM      6  C   UNL     1       2.380   6.217  19.616  0.00  0.00    +0.000 A 
ATOM      7  C   UNL     1       1.493   7.213  20.285  0.00  0.00    +0.000 C 
ATOM      8  O   UNL     1       0.908   6.945  21.331  0.00  0.00    +0.000 OA
ATOM      9  C   UNL     1       1.329   8.560  19.726  0.00  0.00    +0.000 A 
ATOM     10  C   UNL     1       0.468   9.471  20.360  0.00  0.00    +0.000 A 
ATOM     11  C   UNL     1       0.322  10.764  19.861  0.00  0.00    +0.000 A 
ATOM     12  C   UNL     1       1.032  11.150  18.728  0.00  0.00    +0.000 A 
ATOM     13  C   UNL     1       1.885  10.240  18.092  0.00  0.00    +0.000 A 
ATOM     14  C   UNL     1       2.035   8.938  18.594  0.00  0.00    +0.000 A 
ATOM     15  C   UNL     1       2.944   7.982  17.929  0.00  0.00    +0.000 C 
ATOM     16  O   UNL     1       3.536   8.345  16.915  0.00  0.00    +0.000 OA
ENDROOT
BRANCH   1  17
ATOM     17  N   UNL     1       1.656   4.493  21.219  0.00  0.00    +0.000 N 
ATOM     18  H   UNL     1       0.708   4.871  21.174  0.00  0.00    +0.000 HD
ATOM     19  H   UNL     1       1.634   3.467  21.319  0.00  0.00    +0.000 HD
ENDBRANCH   1  17
BRANCH   2  20
ATOM     20  S   UNL     1       3.654   2.352  20.074  0.00  0.00    +0.000 S 
ATOM     21  O   UNL     1       3.412   2.331  21.498  0.00  0.00    +0.000 OA
ATOM     22  O   UNL     1       2.952   1.486  19.157  0.00  0.00    +0.000 OA
BRANCH  20  23
ATOM     23  O   UNL     1       5.239   2.065  19.905  0.00  0.00    +0.000 OA
ATOM     24  H   UNL     1       5.596   1.851  20.792  0.00  0.00    +0.000 HD
ENDBRANCH  20  23
ENDBRANCH   2  20
BRANCH   4  25
ATOM     25  N   UNL     1       4.813   6.042  16.766  0.00  0.00    +0.000 N 
ATOM     26  H   UNL     1       4.494   5.651  15.868  0.00  0.00    +0.000 HD
BRANCH  25  27
ATOM     27  C   UNL     1       6.253   6.288  16.861  0.00  0.00    +0.000 C 
ATOM     28  C   UNL     1       6.594   7.745  17.164  0.00  0.00    +0.000 C 
ATOM     29  C   UNL     1       7.935   7.705  17.888  0.00  0.00    +0.000 C 
ATOM     30  C   UNL     1       8.025   6.341  18.557  0.00  0.00    +0.000 C 
ATOM     31  C   UNL     1       6.856   5.510  18.036  0.00  0.00    +0.000 C 
ENDBRANCH  25  27
ENDBRANCH   4  25
TORSDOF 5
ENDMDL
MODEL 3
REMARK VINA RESULT:      -7.6      0.840      1.205
REMARK  Name = 
REMARK  5 active torsions:
REMARK  status: ('A' for Active; 'I' for Inactive)
REMARK    1  A    between atoms: N_1  and  C_2
REMARK    2  A    between atoms: C_3  and  S_4
REMARK    3  A    between atoms: S_4  and  O_7
REMARK    4  A    between atoms: C_9  and  N_10
REMARK    5  A    between atoms: N_10  and  C_11
REMARK                            x       y       z     vdW  Elec       q    Type
REMARK                         _______ _______ _______ _____ _____    ______ ____
ROOT
ATOM      1  C   UNL     1       2.473   5.172  20.190  0.00  0.00    +0.000 A 
ATOM      2  C   UNL     1       3.264   4.337  19.395  0.00  0.00    +0.000 A 
ATOM      3  C   UNL     1       3.826   4.793  18.190  0.00  0.00    +0.000 A 
ATOM      4  C   UNL     1       3.626   6.095  17.722  0.00  0.00    +0.000 A 
ATOM      5  C   UNL     1       2.810   6.954  18.509  0.00  0.00    +0.000 A 
ATOM      6  C   UNL     1       2.231   6.492  19.711  0.00  0.00    +0.000 A 
ATOM      7  C   UNL     1       1.405   7.423  20.534  0.00  0.00    +0.000 C 
ATOM      8  O   UNL     1       0.965   7.086  21.630  0.00  0.00    +0.000 OA
ATOM      9  C   UNL     1       1.132   8.788  20.068  0.00  0.00    +0.000 A 
ATOM     10  C   UNL     1       0.330   9.637  20.849  0.00  0.00    +0.000 A 
ATOM     11  C   UNL     1       0.085  10.946  20.437  0.00  0.00    +0.000 A 
ATOM     12  C   UNL     1       0.635  11.408  19.246  0.00  0.00    +0.000 A 
ATOM     13  C   UNL     1       1.428  10.560  18.465  0.00  0.00    +0.000 A 
ATOM     14  C   UNL     1       1.679   9.243  18.878  0.00  0.00    +0.000 A 
ATOM     15  C   UNL     1       2.525   8.351  18.058  0.00  0.00    +0.000 C 
ATOM     16  O   UNL     1       2.973   8.782  16.998  0.00  0.00    +0.000 OA
ENDROOT
BRANCH   1  17
ATOM     17  N   UNL     1       1.766   4.671  21.303  0.00  0.00    +0.000 N 
ATOM     18  H   UNL     1       1.498   3.687  21.235  0.00  0.00    +0.000 HD
ATOM     19  H   UNL     1       2.251   4.854  22.194  0.00  0.00    +0.000 HD
ENDBRANCH   1  17
BRANCH   2  20
ATOM     20  S   UNL     1       3.667   2.657  19.814  0.00  0.00    +0.000 S 
ATOM     21  O   UNL     1       3.583   2.557  21.252  0.00  0.00    +0.000 OA
ATOM     22  O   UNL     1       2.899   1.811  18.933  0.00  0.00    +0.000 OA
BRANCH  20  23
ATOM     23  O   UNL     1       5.233   2.444  19.460  0.00  0.00    +0.000 OA
ATOM     24  H   UNL     1       5.495   1.564  19.802  0.00  0.00    +0.000 HD
ENDBRANCH  20  23
ENDBRANCH   2  20
BRANCH   4  25
ATOM     25  N   UNL     1       4.290   6.535  16.576  0.00  0.00    +0.000 N 
ATOM     26  H   UNL     1       3.652   6.734  15.794  0.00  0.00    +0.000 HD
BRANCH  25  27
ATOM     27  C   UNL     1       5.643   6.128  16.189  0.00  0.00    +0.000 C 
ATOM     28  C   UNL     1       6.484   5.643  17.367  0.00  0.00    +0.000 C 
ATOM     29  C   UNL     1       7.491   4.668  16.771  0.00  0.00    +0.000 C 
ATOM     30  C   UNL     1       6.856   4.109  15.506  0.00  0.00    +0.000 C 
ATOM     31  C   UNL     1       5.593   4.923  15.244  0.00  0.00    +0.000 C 
ENDBRANCH  25  27
ENDBRANCH   4  25
TORSDOF 5
ENDMDL
MODEL 4
REMARK VINA RESULT:      -7.4      2.479      4.898
REMARK  Name = 
REMARK  5 active torsions:
REMARK  status: ('A' for Active; 'I' for Inactive)
REMARK    1  A    between atoms: N_1  and  C_2
REMARK    2  A    between atoms: C_3  and  S_4
REMARK    3  A    between atoms: S_4  and  O_7
REMARK    4  A    between atoms: C_9  and  N_10
REMARK    5  A    between atoms: N_10  and  C_11
REMARK                            x       y       z     vdW  Elec       q    Type
REMARK                         _______ _______ _______ _____ _____    ______ ____
ROOT
ATOM      1  C   UNL     1       4.755   6.371  16.755  0.00  0.00    +0.000 A 
ATOM      2  C   UNL     1       5.476   5.176  16.829  0.00  0.00    +0.000 A 
ATOM      3  C   UNL     1       5.306   4.284  17.902  0.00  0.00    +0.000 A 
ATOM      4  C   UNL     1       4.414   4.541  18.948  0.00  0.00    +0.000 A 
ATOM      5  C   UNL     1       3.682   5.760  18.898  0.00  0.00    +0.000 A 
ATOM      6  C   UNL     1       3.866   6.665  17.828  0.00  0.00    +0.000 A 
ATOM      7  C   UNL     1       3.063   7.921  17.784  0.00  0.00    +0.000 C 
ATOM      8  O   UNL     1       3.125   8.685  16.823  0.00  0.00    +0.000 OA
ATOM      9  C   UNL     1       2.141   8.257  18.876  0.00  0.00    +0.000 A 
ATOM     10  C   UNL     1       1.416   9.459  18.823  0.00  0.00    +0.000 A 
ATOM     11  C   UNL     1       0.514   9.780  19.836  0.00  0.00    +0.000 A 
ATOM     12  C   UNL     1       0.337   8.906  20.904  0.00  0.00    +0.000 A 
ATOM     13  C   UNL     1       1.065   7.712  20.960  0.00  0.00    +0.000 A 
ATOM     14  C   UNL     1       1.971   7.385  19.940  0.00  0.00    +0.000 A 
ATOM     15  C   UNL     1       2.732   6.119  19.995  0.00  0.00    +0.000 C 
ATOM     16  O   UNL     1       2.572   5.382  20.965  0.00  0.00    +0.000 OA
ENDROOT
BRANCH   1  17
ATOM     17  N   UNL     1       5.048   7.346  15.778  0.00  0.00    +0.000 N 
ATOM     18  H   UNL     1       6.005   7.703  15.802  0.00  0.00    +0.000 HD
ATOM     19  H   UNL     1       4.798   7.039  14.826  0.00  0.00    +0.000 HD
ENDBRANCH   1  17
BRANCH   2  20
ATOM     20  S   UNL     1       6.641   4.640  15.598  0.00  0.00    +0.000 S 
ATOM     21  O   UNL     1       6.483   5.524  14.466  0.00  0.00    +0.000 OA
ATOM     22  O   UNL     1       7.906   4.461  16.268  0.00  0.00    +0.000 OA
BRANCH  20  23
ATOM     23  O   UNL     1       6.148   3.188  15.079  0.00  0.00    +0.000 OA
ATOM     24  H   UNL     1       5.435   3.335  14.424  0.00  0.00    +0.000 HD
ENDBRANCH  20  23
ENDBRANCH   2  20
BRANCH   4  25
ATOM     25  N   UNL     1       4.199   3.579  19.935  0.00  0.00    +0.000 N 
ATOM     26  H   UNL     1       5.059   3.320  20.438  0.00  0.00    +0.000 HD
BRANCH  25  27
ATOM     27  C   UNL     1       3.178   2.531  19.870  0.00  0.00    +0.000 C 
ATOM     28  C   UNL     1       2.069   2.710  20.905  0.00  0.00    +0.000 C 
ATOM     29  C   UNL     1       0.838   2.047  20.297  0.00  0.00    +0.000 C 
ATOM     30  C   UNL     1       1.020   2.098  18.787  0.00  0.00    +0.000 C 
ATOM     31  C   UNL     1       2.445   2.575  18.525  0.00  0.00    +0.000 C 
ENDBRANCH  25  27
ENDBRANCH   4  25
TORSDOF 5
ENDMDL
MODEL 5
REMARK VINA RESULT:      -7.2      2.558      4.694
REMARK  Name = 
REMARK  5 active torsions:
REMARK  status: ('A' for Active; 'I' for Inactive)
REMARK    1  A    between atoms: N_1  and  C_2
REMARK    2  A    between atoms: C_3  and  S_4
REMARK    3  A    between atoms: S_4  and  O_7
REMARK    4  A    between atoms: C_9  and  N_10
REMARK    5  A    between atoms: N_10  and  C_11
REMARK                            x       y       z     vdW  Elec       q    Type
REMARK                         _______ _______ _______ _____ _____    ______ ____
ROOT
ATOM      1  C   UNL     1       3.893   7.045  17.616  0.00  0.00    +0.000 A 
ATOM      2  C   UNL     1       4.448   5.825  18.010  0.00  0.00    +0.000 A 
ATOM      3  C   UNL     1       4.033   5.179  19.187  0.00  0.00    +0.000 A 
ATOM      4  C   UNL     1       3.051   5.718  20.024  0.00  0.00    +0.000 A 
ATOM      5  C   UNL     1       2.486   6.968  19.648  0.00  0.00    +0.000 A 
ATOM      6  C   UNL     1       2.915   7.626  18.474  0.00  0.00    +0.000 A 
ATOM      7  C   UNL     1       2.284   8.921  18.085  0.00  0.00    +0.000 C 
ATOM      8  O   UNL     1       2.563   9.473  17.024  0.00  0.00    +0.000 OA
ATOM      9  C   UNL     1       1.277   9.548  18.949  0.00  0.00    +0.000 A 
ATOM     10  C   UNL     1       0.716  10.781  18.574  0.00  0.00    +0.000 A 
ATOM     11  C   UNL     1      -0.263  11.377  19.366  0.00  0.00    +0.000 A 
ATOM     12  C   UNL     1      -0.682  10.748  20.535  0.00  0.00    +0.000 A 
ATOM     13  C   UNL     1      -0.118   9.524  20.912  0.00  0.00    +0.000 A 
ATOM     14  C   UNL     1       0.866   8.920  20.115  0.00  0.00    +0.000 A 
ATOM     15  C   UNL     1       1.453   7.622  20.509  0.00  0.00    +0.000 C 
ATOM     16  O   UNL     1       1.080   7.106  21.560  0.00  0.00    +0.000 OA
ENDROOT
BRANCH   1  17
ATOM     17  N   UNL     1       4.427   7.780  16.536  0.00  0.00    +0.000 N 
ATOM     18  H   UNL     1       5.019   7.241  15.901  0.00  0.00    +0.000 HD
ATOM     19  H   UNL     1       3.702   8.292  16.010  0.00  0.00    +0.000 HD
ENDBRANCH   1  17
BRANCH   2  20
ATOM     20  S   UNL     1       5.688   4.951  17.083  0.00  0.00    +0.000 S 
ATOM     21  O   UNL     1       4.987   4.032  16.217  0.00  0.00    +0.000 OA
ATOM     22  O   UNL     1       6.607   5.942  16.577  0.00  0.00    +0.000 OA
BRANCH  20  23
ATOM     23  O   UNL     1       6.496   4.020  18.132  0.00  0.00    +0.000 OA
ATOM     24  H   UNL     1       7.091   4.604  18.647  0.00  0.00    +0.000 HD
ENDBRANCH  20  23
ENDBRANCH   2  20
BRANCH   4  25
ATOM     25  N   UNL     1       2.595   4.991  21.125  0.00  0.00    +0.000 N 
ATOM     26  H   UNL     1       3.195   5.099  21.954  0.00  0.00    +0.000 HD
BRANCH  25  27
ATOM     27  C   UNL     1       1.870   3.721  21.042  0.00  0.00    +0.000 C 
ATOM     28  C   UNL     1       0.736   3.743  20.019  0.00  0.00    +0.000 C 
ATOM     29  C   UNL     1       0.574   2.297  19.564  0.00  0.00    +0.000 C 
ATOM     30  C   UNL     1       1.923   1.626  19.769  0.00  0.00    +0.000 C 
ATOM     31  C   UNL     1       2.795   2.603  20.551  0.00  0.00    +0.000 C 
ENDBRANCH  25  27
ENDBRANCH   4  25
TORSDOF 5
ENDMDL
MODEL 6
REMARK VINA RESULT:      -6.9      4.351      8.153
REMARK  Name = 
REMARK  5 active torsions:
REMARK  status: ('A' for Active; 'I' for Inactive)
REMARK    1  A    between atoms: N_1  and  C_2
REMARK    2  A    between atoms: C_3  and  S_4
REMARK    3  A    between atoms: S_4  and  O_7
REMARK    4  A    between atoms: C_9  and  N_10
REMARK    5  A    between atoms: N_10  and  C_11
REMARK                            x       y       z     vdW  Elec       q    Type
REMARK                         _______ _______ _______ _____ _____    ______ ____
ROOT
ATOM      1  C   UNL     1      -0.172  10.240  21.788  0.00  0.00    +0.000 A 
ATOM      2  C   UNL     1      -0.579  11.567  21.621  0.00  0.00    +0.000 A 
ATOM      3  C   UNL     1      -0.250  12.292  20.464  0.00  0.00    +0.000 A 
ATOM      4  C   UNL     1       0.498  11.733  19.423  0.00  0.00    +0.000 A 
ATOM      5  C   UNL     1       0.934  10.389  19.582  0.00  0.00    +0.000 A 
ATOM      6  C   UNL     1       0.619   9.664  20.752  0.00  0.00    +0.000 A 
ATOM      7  C   UNL     1       1.062   8.245  20.879  0.00  0.00    +0.000 C 
ATOM      8  O   UNL     1       0.725   7.555  21.838  0.00  0.00    +0.000 OA
ATOM      9  C   UNL     1       1.882   7.623  19.833  0.00  0.00    +0.000 A 
ATOM     10  C   UNL     1       2.308   6.294  19.989  0.00  0.00    +0.000 A 
ATOM     11  C   UNL     1       3.062   5.677  18.992  0.00  0.00    +0.000 A 
ATOM     12  C   UNL     1       3.395   6.385  17.841  0.00  0.00    +0.000 A 
ATOM     13  C   UNL     1       2.976   7.712  17.690  0.00  0.00    +0.000 A 
ATOM     14  C   UNL     1       2.215   8.335  18.690  0.00  0.00    +0.000 A 
ATOM     15  C   UNL     1       1.764   9.732  18.524  0.00  0.00    +0.000 C 
ATOM     16  O   UNL     1       2.098  10.338  17.509  0.00  0.00    +0.000 OA
ENDROOT
BRANCH   1  17
ATOM     17  N   UNL     1      -0.347   9.567  23.015  0.00  0.00    +0.000 N 
ATOM     18  H   UNL     1      -1.067   9.962  23.623  0.00  0.00    +0.000 HD
ATOM     19  H   UNL     1      -0.491   8.553  22.893  0.00  0.00    +0.000 HD
ENDBRANCH   1  17
BRANCH   2  20
ATOM     20  S   UNL     1      -1.557  12.462  22.805  0.00  0.00    +0.000 S 
ATOM     21  O   UNL     1      -2.434  11.500  23.430  0.00  0.00    +0.000 OA
ATOM     22  O   UNL     1      -0.646  13.285  23.564  0.00  0.00    +0.000 OA
BRANCH  20  23
ATOM     23  O   UNL     1      -2.530  13.448  21.967  0.00  0.00    +0.000 OA
ATOM     24  H   UNL     1      -2.654  14.262  22.499  0.00  0.00    +0.000 HD
ENDBRANCH  20  23
ENDBRANCH   2  20
BRANCH   4  25
ATOM     25  N   UNL     1       0.709  12.456  18.247  0.00  0.00    +0.000 N 
ATOM     26  H   UNL     1       0.681  11.866  17.404  0.00  0.00    +0.000 HD
BRANCH  25  27
ATOM     27  C   UNL     1       1.546  13.653  18.143  0.00  0.00    +0.000 C 
ATOM     28  C   UNL     1       0.903  14.890  18.765  0.00  0.00    +0.000 C 
ATOM     29  C   UNL     1       2.065  15.778  19.194  0.00  0.00    +0.000 C 
ATOM     30  C   UNL     1       3.248  14.853  19.438  0.00  0.00    +0.000 C 
ATOM     31  C   UNL     1       2.847  13.471  18.932  0.00  0.00    +0.000 C 
ENDBRANCH  25  27
ENDBRANCH   4  25
TORSDOF 5
ENDMDL
MODEL 7
REMARK VINA RESULT:      -6.7      9.204     10.873
REMARK  Name = 
REMARK  5 active torsions:
REMARK  status: ('A' for Active; 'I' for Inactive)
REMARK    1  A    between atoms: N_1  and  C_2
REMARK    2  A    between atoms: C_3  and  S_4
REMARK    3  A    between atoms: S_4  and  O_7
REMARK    4  A    between atoms: C_9  and  N_10
REMARK    5  A    between atoms: N_10  and  C_11
REMARK                            x       y       z     vdW  Elec       q    Type
REMARK                         _______ _______ _______ _____ _____    ______ ____
ROOT
ATOM      1  C   UNL     1       8.088  12.833  22.298  0.00  0.00    +0.000 A 
ATOM      2  C   UNL     1       6.934  13.487  22.737  0.00  0.00    +0.000 A 
ATOM      3  C   UNL     1       6.315  14.481  21.960  0.00  0.00    +0.000 A 
ATOM      4  C   UNL     1       6.817  14.871  20.714  0.00  0.00    +0.000 A 
ATOM      5  C   UNL     1       8.001  14.228  20.258  0.00  0.00    +0.000 A 
ATOM      6  C   UNL     1       8.632  13.241  21.046  0.00  0.00    +0.000 A 
ATOM      7  C   UNL     1       9.855  12.560  20.529  0.00  0.00    +0.000 C 
ATOM      8  O   UNL     1      10.376  11.632  21.142  0.00  0.00    +0.000 OA
ATOM      9  C   UNL     1      10.445  12.959  19.245  0.00  0.00    +0.000 A 
ATOM     10  C   UNL     1      11.612  12.320  18.793  0.00  0.00    +0.000 A 
ATOM     11  C   UNL     1      12.169  12.664  17.563  0.00  0.00    +0.000 A 
ATOM     12  C   UNL     1      11.567  13.648  16.784  0.00  0.00    +0.000 A 
ATOM     13  C   UNL     1      10.408  14.289  17.238  0.00  0.00    +0.000 A 
ATOM     14  C   UNL     1       9.844  13.942  18.475  0.00  0.00    +0.000 A 
ATOM     15  C   UNL     1       8.615  14.612  18.949  0.00  0.00    +0.000 C 
ATOM     16  O   UNL     1       8.123  15.495  18.250  0.00  0.00    +0.000 OA
ENDROOT
BRANCH   1  17
ATOM     17  N   UNL     1       8.808  11.966  23.145  0.00  0.00    +0.000 N 
ATOM     18  H   UNL     1       9.478  12.427  23.763  0.00  0.00    +0.000 HD
ATOM     19  H   UNL     1       8.192  11.337  23.683  0.00  0.00    +0.000 HD
ENDBRANCH   1  17
BRANCH   2  20
ATOM     20  S   UNL     1       6.114  13.130  24.274  0.00  0.00    +0.000 S 
ATOM     21  O   UNL     1       7.117  13.218  25.309  0.00  0.00    +0.000 OA
ATOM     22  O   UNL     1       4.907  13.921  24.298  0.00  0.00    +0.000 OA
BRANCH  20  23
ATOM     23  O   UNL     1       5.680  11.571  24.229  0.00  0.00    +0.000 OA
ATOM     24  H   UNL     1       4.956  11.448  24.877  0.00  0.00    +0.000 HD
ENDBRANCH  20  23
ENDBRANCH   2  20
BRANCH   4  25
ATOM     25  N   UNL     1       6.111  15.784  19.931  0.00  0.00    +0.000 N 
ATOM     26  H   UNL     1       6.364  16.762  20.128  0.00  0.00    +0.000 HD
BRANCH  25  27
ATOM     27  C   UNL     1       4.746  15.582  19.439  0.00  0.00    +0.000 C 
ATOM     28  C   UNL     1       3.945  16.878  19.342  0.00  0.00    +0.000 C 
ATOM     29  C   UNL     1       2.918  16.637  18.242  0.00  0.00    +0.000 C 
ATOM     30  C   UNL     1       3.511  15.581  17.321  0.00  0.00    +0.000 C 
ATOM     31  C   UNL     1       4.764  15.044  18.005  0.00  0.00    +0.000 C 
ENDBRANCH  25  27
ENDBRANCH   4  25
TORSDOF 5
ENDMDL
MODEL 8
REMARK VINA RESULT:      -6.7      7.617      9.722
REMARK  Name = 
REMARK  5 active torsions:
REMARK  status: ('A' for Active; 'I' for Inactive)
REMARK    1  A    between atoms: N_1  and  C_2
REMARK    2  A    between atoms: C_3  and  S_4
REMARK    3  A    between atoms: S_4  and  O_7
REMARK    4  A    between atoms: C_9  and  N_10
REMARK    5  A    between atoms: N_10  and  C_11
REMARK                            x       y       z     vdW  Elec       q    Type
REMARK                         _______ _______ _______ _____ _____    ______ ____
ROOT
ATOM      1  C   UNL     1      -1.583  12.114  21.867  0.00  0.00    +0.000 A 
ATOM      2  C   UNL     1      -0.831  11.756  20.745  0.00  0.00    +0.000 A 
ATOM      3  C   UNL     1      -1.399  11.731  19.460  0.00  0.00    +0.000 A 
ATOM      4  C   UNL     1      -2.740  12.059  19.234  0.00  0.00    +0.000 A 
ATOM      5  C   UNL     1      -3.526  12.410  20.366  0.00  0.00    +0.000 A 
ATOM      6  C   UNL     1      -2.959  12.419  21.660  0.00  0.00    +0.000 A 
ATOM      7  C   UNL     1      -3.798  12.821  22.826  0.00  0.00    +0.000 C 
ATOM      8  O   UNL     1      -3.316  12.933  23.951  0.00  0.00    +0.000 OA
ATOM      9  C   UNL     1      -5.221  13.137  22.648  0.00  0.00    +0.000 A 
ATOM     10  C   UNL     1      -5.995  13.489  23.767  0.00  0.00    +0.000 A 
ATOM     11  C   UNL     1      -7.340  13.821  23.614  0.00  0.00    +0.000 A 
ATOM     12  C   UNL     1      -7.915  13.799  22.347  0.00  0.00    +0.000 A 
ATOM     13  C   UNL     1      -7.145  13.442  21.234  0.00  0.00    +0.000 A 
ATOM     14  C   UNL     1      -5.790  13.110  21.385  0.00  0.00    +0.000 A 
ATOM     15  C   UNL     1      -4.975  12.743  20.208  0.00  0.00    +0.000 C 
ATOM     16  O   UNL     1      -5.520  12.708  19.107  0.00  0.00    +0.000 OA
ENDROOT
BRANCH   1  17
ATOM     17  N   UNL     1      -1.068  11.971  23.172  0.00  0.00    +0.000 N 
ATOM     18  H   UNL     1      -1.756  11.702  23.878  0.00  0.00    +0.000 HD
ATOM     19  H   UNL     1      -0.248  11.346  23.207  0.00  0.00    +0.000 HD
ENDBRANCH   1  17
BRANCH   2  20
ATOM     20  S   UNL     1       0.894  11.329  20.800  0.00  0.00    +0.000 S 
ATOM     21  O   UNL     1       1.193  10.649  19.562  0.00  0.00    +0.000 OA
ATOM     22  O   UNL     1       1.605  12.512  21.224  0.00  0.00    +0.000 OA
BRANCH  20  23
ATOM     23  O   UNL     1       1.069  10.209  21.957  0.00  0.00    +0.000 OA
ATOM     24  H   UNL     1       1.822  10.482  22.520  0.00  0.00    +0.000 HD
ENDBRANCH  20  23
ENDBRANCH   2  20
BRANCH   4  25
ATOM     25  N   UNL     1      -3.233  12.124  17.930  0.00  0.00    +0.000 N 
ATOM     26  H   UNL     1      -3.823  12.951  17.765  0.00  0.00    +0.000 HD
BRANCH  25  27
ATOM     27  C   UNL     1      -3.546  10.961  17.097  0.00  0.00    +0.000 C 
ATOM     28  C   UNL     1      -4.230  11.330  15.783  0.00  0.00    +0.000 C 
ATOM     29  C   UNL     1      -3.862  10.217  14.809  0.00  0.00    +0.000 C 
ATOM     30  C   UNL     1      -2.542   9.638  15.293  0.00  0.00    +0.000 C 
ATOM     31  C   UNL     1      -2.261  10.248  16.663  0.00  0.00    +0.000 C 
ENDBRANCH  25  27
ENDBRANCH   4  25
TORSDOF 5
ENDMDL
MODEL 9
REMARK VINA RESULT:      -6.6      7.647      9.711
REMARK  Name = 
REMARK  5 active torsions:
REMARK  status: ('A' for Active; 'I' for Inactive)
REMARK    1  A    between atoms: N_1  and  C_2
REMARK    2  A    between atoms: C_3  and  S_4
REMARK    3  A    between atoms: S_4  and  O_7
REMARK    4  A    between atoms: C_9  and  N_10
REMARK    5  A    between atoms: N_10  and  C_11
REMARK                            x       y       z     vdW  Elec       q    Type
REMARK                         _______ _______ _______ _____ _____    ______ ____
ROOT
ATOM      1  C   UNL     1      -1.514  12.195  21.795  0.00  0.00    +0.000 A 
ATOM      2  C   UNL     1      -0.789  11.880  20.643  0.00  0.00    +0.000 A 
ATOM      3  C   UNL     1      -1.410  11.809  19.384  0.00  0.00    +0.000 A 
ATOM      4  C   UNL     1      -2.777  12.046  19.215  0.00  0.00    +0.000 A 
ATOM      5  C   UNL     1      -3.536  12.353  20.379  0.00  0.00    +0.000 A 
ATOM      6  C   UNL     1      -2.915  12.408  21.647  0.00  0.00    +0.000 A 
ATOM      7  C   UNL     1      -3.727  12.763  22.847  0.00  0.00    +0.000 C 
ATOM      8  O   UNL     1      -3.205  12.913  23.949  0.00  0.00    +0.000 OA
ATOM      9  C   UNL     1      -5.174  12.984  22.730  0.00  0.00    +0.000 A 
ATOM     10  C   UNL     1      -5.920  13.292  23.880  0.00  0.00    +0.000 A 
ATOM     11  C   UNL     1      -7.290  13.534  23.784  0.00  0.00    +0.000 A 
ATOM     12  C   UNL     1      -7.917  13.466  22.543  0.00  0.00    +0.000 A 
ATOM     13  C   UNL     1      -7.174  13.152  21.400  0.00  0.00    +0.000 A 
ATOM     14  C   UNL     1      -5.795  12.911  21.493  0.00  0.00    +0.000 A 
ATOM     15  C   UNL     1      -5.009  12.590  20.283  0.00  0.00    +0.000 C 
ATOM     16  O   UNL     1      -5.598  12.511  19.207  0.00  0.00    +0.000 OA
ENDROOT
BRANCH   1  17
ATOM     17  N   UNL     1      -0.935  12.095  23.077  0.00  0.00    +0.000 N 
ATOM     18  H   UNL     1      -1.397  11.437  23.707  0.00  0.00    +0.000 HD
ATOM     19  H   UNL     1       0.079  11.911  23.039  0.00  0.00    +0.000 HD
ENDBRANCH   1  17
BRANCH   2  20
ATOM     20  S   UNL     1       0.961  11.567  20.625  0.00  0.00    +0.000 S 
ATOM     21  O   UNL     1       1.203  10.509  21.578  0.00  0.00    +0.000 OA
ATOM     22  O   UNL     1       1.354  11.465  19.240  0.00  0.00    +0.000 OA
BRANCH  20  23
ATOM     23  O   UNL     1       1.683  12.877  21.246  0.00  0.00    +0.000 OA
ATOM     24  H   UNL     1       0.978  13.496  21.526  0.00  0.00    +0.000 HD
ENDBRANCH  20  23
ENDBRANCH   2  20
BRANCH   4  25
ATOM     25  N   UNL     1      -3.330  12.070  17.934  0.00  0.00    +0.000 N 
ATOM     26  H   UNL     1      -4.356  12.147  17.941  0.00  0.00    +0.000 HD
BRANCH  25  27
ATOM     27  C   UNL     1      -2.765  11.386  16.769  0.00  0.00    +0.000 C 
ATOM     28  C   UNL     1      -2.549   9.891  16.999  0.00  0.00    +0.000 C 
ATOM     29  C   UNL     1      -2.644   9.252  15.618  0.00  0.00    +0.000 C 
ATOM     30  C   UNL     1      -3.517  10.171  14.776  0.00  0.00    +0.000 C 
ATOM     31  C   UNL     1      -3.735  11.446  15.585  0.00  0.00    +0.000 C 
ENDBRANCH  25  27
ENDBRANCH   4  25
TORSDOF 5
ENDMDL
