MODEL 1
REMARK VINA RESULT:      -6.8      0.000      0.000
REMARK  Name = 
REMARK  5 active torsions:
REMARK  status: ('A' for Active; 'I' for Inactive)
REMARK    1  A    between atoms: C_1  and  C_2
REMARK    2  A    between atoms: C_2  and  C_3
REMARK    3  A    between atoms: N_6  and  C_7
REMARK    4  A    between atoms: C_7  and  C_8
REMARK    5  A    between atoms: C_11  and  C_12
REMARK                            x       y       z     vdW  Elec       q    Type
REMARK                         _______ _______ _______ _____ _____    ______ ____
ROOT
ATOM      1  C   UNL     1       7.455   5.994  17.566  0.00  0.00    +0.000 C 
ATOM      2  C   UNL     1       7.143   5.306  16.283  0.00  0.00    +0.000 C 
ATOM      3  O   UNL     1       7.867   5.308  15.303  0.00  0.00    +0.000 OA
ATOM      4  N   UNL     1       5.810   4.822  16.143  0.00  0.00    +0.000 N 
ATOM      5  C   UNL     1       5.202   4.401  17.250  0.00  0.00    +0.000 A 
ATOM      6  S   UNL     1       3.644   3.651  17.366  0.00  0.00    +0.000 S 
ATOM      7  C   UNL     1       3.917   3.388  19.060  0.00  0.00    +0.000 A 
ATOM      8  C   UNL     1       2.900   2.687  19.890  0.00  0.00    +0.000 C 
ATOM      9  N   UNL     1       5.056   3.878  19.522  0.00  0.00    +0.000 NA
ATOM     10  N   UNL     1       5.724   4.471  18.474  0.00  0.00    +0.000 N 
ATOM     11  C   UNL     1       6.903   5.174  18.675  0.00  0.00    +0.000 C 
ATOM     12  O   UNL     1       7.367   5.145  19.801  0.00  0.00    +0.000 OA
ENDROOT
BRANCH   1  14
ATOM     13  C   UNL     1       7.710   8.555  17.671  0.00  0.00    +0.000 C 
ATOM     14  C   UNL     1       6.781   7.373  17.466  0.00  0.00    +0.000 C 
ENDBRANCH   1  14
BRANCH   4  15
ATOM     15  C   UNL     1       5.157   4.925  14.825  0.00  0.00    +0.000 C 
ATOM     16  C   UNL     1       5.635   3.855  13.870  0.00  0.00    +0.000 C 
ENDBRANCH   4  15
TORSDOF 2
ENDMDL
MODEL 2
REMARK VINA RESULT:      -6.5      3.161      5.440
REMARK  Name = 
REMARK  5 active torsions:
REMARK  status: ('A' for Active; 'I' for Inactive)
REMARK    1  A    between atoms: C_1  and  C_2
REMARK    2  A    between atoms: C_2  and  C_3
REMARK    3  A    between atoms: N_6  and  C_7
REMARK    4  A    between atoms: C_7  and  C_8
REMARK    5  A    between atoms: C_11  and  C_12
REMARK                            x       y       z     vdW  Elec       q    Type
REMARK                         _______ _______ _______ _____ _____    ______ ____
ROOT
ATOM      1  C   UNL     1       1.607   4.604  19.795  0.00  0.00    +0.000 C 
ATOM      2  C   UNL     1       1.583   3.632  18.668  0.00  0.00    +0.000 C 
ATOM      3  O   UNL     1       0.639   2.910  18.397  0.00  0.00    +0.000 OA
ATOM      4  N   UNL     1       2.833   3.384  18.030  0.00  0.00    +0.000 N 
ATOM      5  C   UNL     1       3.690   4.402  17.969  0.00  0.00    +0.000 A 
ATOM      6  S   UNL     1       5.218   4.433  17.152  0.00  0.00    +0.000 S 
ATOM      7  C   UNL     1       5.369   6.119  17.537  0.00  0.00    +0.000 A 
ATOM      8  C   UNL     1       6.550   6.897  17.074  0.00  0.00    +0.000 C 
ATOM      9  N   UNL     1       4.386   6.610  18.275  0.00  0.00    +0.000 NA
ATOM     10  N   UNL     1       3.488   5.596  18.522  0.00  0.00    +0.000 N 
ATOM     11  C   UNL     1       2.405   5.783  19.369  0.00  0.00    +0.000 C 
ATOM     12  O   UNL     1       2.233   6.914  19.790  0.00  0.00    +0.000 OA
ENDROOT
BRANCH   1  14
ATOM     13  C   UNL     1       1.408   2.742  21.563  0.00  0.00    +0.000 C 
ATOM     14  C   UNL     1       2.254   3.854  20.970  0.00  0.00    +0.000 C 
ENDBRANCH   1  14
BRANCH   4  15
ATOM     15  C   UNL     1       3.141   2.011  17.590  0.00  0.00    +0.000 C 
ATOM     16  C   UNL     1       3.774   1.192  18.691  0.00  0.00    +0.000 C 
ENDBRANCH   4  15
TORSDOF 2
ENDMDL
MODEL 3
REMARK VINA RESULT:      -6.5      3.071      5.164
REMARK  Name = 
REMARK  5 active torsions:
REMARK  status: ('A' for Active; 'I' for Inactive)
REMARK    1  A    between atoms: C_1  and  C_2
REMARK    2  A    between atoms: C_2  and  C_3
REMARK    3  A    between atoms: N_6  and  C_7
REMARK    4  A    between atoms: C_7  and  C_8
REMARK    5  A    between atoms: C_11  and  C_12
REMARK                            x       y       z     vdW  Elec       q    Type
REMARK                         _______ _______ _______ _____ _____    ______ ____
ROOT
ATOM      1  C   UNL     1       1.807   5.526  18.700  0.00  0.00    +0.000 C 
ATOM      2  C   UNL     1       2.032   4.321  17.856  0.00  0.00    +0.000 C 
ATOM      3  O   UNL     1       1.151   3.575  17.466  0.00  0.00    +0.000 OA
ATOM      4  N   UNL     1       3.388   3.909  17.705  0.00  0.00    +0.000 N 
ATOM      5  C   UNL     1       4.312   4.867  17.698  0.00  0.00    +0.000 A 
ATOM      6  S   UNL     1       6.010   4.679  17.409  0.00  0.00    +0.000 S 
ATOM      7  C   UNL     1       6.190   6.405  17.453  0.00  0.00    +0.000 A 
ATOM      8  C   UNL     1       7.520   7.033  17.224  0.00  0.00    +0.000 C 
ATOM      9  N   UNL     1       5.080   7.073  17.726  0.00  0.00    +0.000 NA
ATOM     10  N   UNL     1       4.062   6.161  17.893  0.00  0.00    +0.000 N 
ATOM     11  C   UNL     1       2.797   6.560  18.301  0.00  0.00    +0.000 C 
ATOM     12  O   UNL     1       2.611   7.760  18.397  0.00  0.00    +0.000 OA
ENDROOT
BRANCH   1  14
ATOM     13  C   UNL     1       1.091   3.923  20.585  0.00  0.00    +0.000 C 
ATOM     14  C   UNL     1       2.005   5.054  20.150  0.00  0.00    +0.000 C 
ENDBRANCH   1  14
BRANCH   4  15
ATOM     15  C   UNL     1       3.688   2.465  17.687  0.00  0.00    +0.000 C 
ATOM     16  C   UNL     1       3.779   1.886  19.080  0.00  0.00    +0.000 C 
ENDBRANCH   4  15
TORSDOF 2
ENDMDL
MODEL 4
REMARK VINA RESULT:      -6.4      3.103      5.410
REMARK  Name = 
REMARK  5 active torsions:
REMARK  status: ('A' for Active; 'I' for Inactive)
REMARK    1  A    between atoms: C_1  and  C_2
REMARK    2  A    between atoms: C_2  and  C_3
REMARK    3  A    between atoms: N_6  and  C_7
REMARK    4  A    between atoms: C_7  and  C_8
REMARK    5  A    between atoms: C_11  and  C_12
REMARK                            x       y       z     vdW  Elec       q    Type
REMARK                         _______ _______ _______ _____ _____    ______ ____
ROOT
ATOM      1  C   UNL     1       4.293   4.049  17.723  0.00  0.00    +0.000 C 
ATOM      2  C   UNL     1       4.223   4.078  19.209  0.00  0.00    +0.000 C 
ATOM      3  O   UNL     1       4.776   3.277  19.943  0.00  0.00    +0.000 OA
ATOM      4  N   UNL     1       3.257   4.961  19.772  0.00  0.00    +0.000 N 
ATOM      5  C   UNL     1       3.010   6.087  19.106  0.00  0.00    +0.000 A 
ATOM      6  S   UNL     1       1.989   7.396  19.607  0.00  0.00    +0.000 S 
ATOM      7  C   UNL     1       2.499   8.301  18.217  0.00  0.00    +0.000 A 
ATOM      8  C   UNL     1       1.996   9.684  17.989  0.00  0.00    +0.000 C 
ATOM      9  N   UNL     1       3.319   7.656  17.403  0.00  0.00    +0.000 NA
ATOM     10  N   UNL     1       3.545   6.403  17.927  0.00  0.00    +0.000 N 
ATOM     11  C   UNL     1       4.280   5.453  17.234  0.00  0.00    +0.000 C 
ATOM     12  O   UNL     1       4.801   5.821  16.195  0.00  0.00    +0.000 OA
ENDROOT
BRANCH   1  14
ATOM     13  C   UNL     1       2.919   1.876  17.875  0.00  0.00    +0.000 C 
ATOM     14  C   UNL     1       3.053   3.261  17.268  0.00  0.00    +0.000 C 
ENDBRANCH   1  14
BRANCH   4  15
ATOM     15  C   UNL     1       2.518   4.527  20.972  0.00  0.00    +0.000 C 
ATOM     16  C   UNL     1       1.247   3.789  20.619  0.00  0.00    +0.000 C 
ENDBRANCH   4  15
TORSDOF 2
ENDMDL
MODEL 5
REMARK VINA RESULT:      -6.3      3.105      5.432
REMARK  Name = 
REMARK  5 active torsions:
REMARK  status: ('A' for Active; 'I' for Inactive)
REMARK    1  A    between atoms: C_1  and  C_2
REMARK    2  A    between atoms: C_2  and  C_3
REMARK    3  A    between atoms: N_6  and  C_7
REMARK    4  A    between atoms: C_7  and  C_8
REMARK    5  A    between atoms: C_11  and  C_12
REMARK                            x       y       z     vdW  Elec       q    Type
REMARK                         _______ _______ _______ _____ _____    ______ ____
ROOT
ATOM      1  C   UNL     1       2.111   4.044  20.157  0.00  0.00    +0.000 C 
ATOM      2  C   UNL     1       2.177   5.521  20.329  0.00  0.00    +0.000 C 
ATOM      3  O   UNL     1       1.426   6.169  21.038  0.00  0.00    +0.000 OA
ATOM      4  N   UNL     1       3.023   6.218  19.420  0.00  0.00    +0.000 N 
ATOM      5  C   UNL     1       4.116   5.581  19.005  0.00  0.00    +0.000 A 
ATOM      6  S   UNL     1       5.382   6.219  18.007  0.00  0.00    +0.000 S 
ATOM      7  C   UNL     1       6.275   4.747  18.232  0.00  0.00    +0.000 A 
ATOM      8  C   UNL     1       7.622   4.580  17.622  0.00  0.00    +0.000 C 
ATOM      9  N   UNL     1       5.652   3.822  18.944  0.00  0.00    +0.000 NA
ATOM     10  N   UNL     1       4.427   4.325  19.322  0.00  0.00    +0.000 N 
ATOM     11  C   UNL     1       3.498   3.538  19.986  0.00  0.00    +0.000 C 
ATOM     12  O   UNL     1       3.864   2.421  20.309  0.00  0.00    +0.000 OA
ENDROOT
BRANCH   1  14
ATOM     13  C   UNL     1       0.806   2.378  18.689  0.00  0.00    +0.000 C 
ATOM     14  C   UNL     1       1.246   3.814  18.907  0.00  0.00    +0.000 C 
ENDBRANCH   1  14
BRANCH   4  15
ATOM     15  C   UNL     1       2.584   7.531  18.912  0.00  0.00    +0.000 C 
ATOM     16  C   UNL     1       1.918   7.422  17.559  0.00  0.00    +0.000 C 
ENDBRANCH   4  15
TORSDOF 2
ENDMDL
MODEL 6
REMARK VINA RESULT:      -6.2      2.158      4.337
REMARK  Name = 
REMARK  5 active torsions:
REMARK  status: ('A' for Active; 'I' for Inactive)
REMARK    1  A    between atoms: C_1  and  C_2
REMARK    2  A    between atoms: C_2  and  C_3
REMARK    3  A    between atoms: N_6  and  C_7
REMARK    4  A    between atoms: C_7  and  C_8
REMARK    5  A    between atoms: C_11  and  C_12
REMARK                            x       y       z     vdW  Elec       q    Type
REMARK                         _______ _______ _______ _____ _____    ______ ____
ROOT
ATOM      1  C   UNL     1       4.806   4.734  18.865  0.00  0.00    +0.000 C 
ATOM      2  C   UNL     1       6.236   5.126  18.991  0.00  0.00    +0.000 C 
ATOM      3  O   UNL     1       6.818   5.289  20.049  0.00  0.00    +0.000 OA
ATOM      4  N   UNL     1       6.873   5.557  17.791  0.00  0.00    +0.000 N 
ATOM      5  C   UNL     1       6.471   4.987  16.657  0.00  0.00    +0.000 A 
ATOM      6  S   UNL     1       7.144   5.218  15.077  0.00  0.00    +0.000 S 
ATOM      7  C   UNL     1       6.083   3.986  14.466  0.00  0.00    +0.000 A 
ATOM      8  C   UNL     1       6.135   3.587  13.034  0.00  0.00    +0.000 C 
ATOM      9  N   UNL     1       5.244   3.483  15.358  0.00  0.00    +0.000 NA
ATOM     10  N   UNL     1       5.476   4.106  16.564  0.00  0.00    +0.000 N 
ATOM     11  C   UNL     1       4.669   3.866  17.666  0.00  0.00    +0.000 C 
ATOM     12  O   UNL     1       3.820   3.001  17.540  0.00  0.00    +0.000 OA
ENDROOT
BRANCH   1  14
ATOM     13  C   UNL     1       2.633   5.914  18.145  0.00  0.00    +0.000 C 
ATOM     14  C   UNL     1       4.029   6.053  18.723  0.00  0.00    +0.000 C 
ENDBRANCH   1  14
BRANCH   4  15
ATOM     15  C   UNL     1       7.835   6.672  17.865  0.00  0.00    +0.000 C 
ATOM     16  C   UNL     1       7.191   8.000  17.539  0.00  0.00    +0.000 C 
ENDBRANCH   4  15
TORSDOF 2
ENDMDL
MODEL 7
REMARK VINA RESULT:      -6.1      1.206      1.244
REMARK  Name = 
REMARK  5 active torsions:
REMARK  status: ('A' for Active; 'I' for Inactive)
REMARK    1  A    between atoms: C_1  and  C_2
REMARK    2  A    between atoms: C_2  and  C_3
REMARK    3  A    between atoms: N_6  and  C_7
REMARK    4  A    between atoms: C_7  and  C_8
REMARK    5  A    between atoms: C_11  and  C_12
REMARK                            x       y       z     vdW  Elec       q    Type
REMARK                         _______ _______ _______ _____ _____    ______ ____
ROOT
ATOM      1  C   UNL     1       6.933   5.588  18.145  0.00  0.00    +0.000 C 
ATOM      2  C   UNL     1       7.112   4.526  17.117  0.00  0.00    +0.000 C 
ATOM      3  O   UNL     1       8.186   4.193  16.647  0.00  0.00    +0.000 OA
ATOM      4  N   UNL     1       5.921   4.052  16.494  0.00  0.00    +0.000 N 
ATOM      5  C   UNL     1       4.819   4.029  17.241  0.00  0.00    +0.000 A 
ATOM      6  S   UNL     1       3.269   3.393  16.797  0.00  0.00    +0.000 S 
ATOM      7  C   UNL     1       2.705   3.691  18.412  0.00  0.00    +0.000 A 
ATOM      8  C   UNL     1       1.319   3.321  18.808  0.00  0.00    +0.000 C 
ATOM      9  N   UNL     1       3.584   4.280  19.208  0.00  0.00    +0.000 NA
ATOM     10  N   UNL     1       4.742   4.483  18.491  0.00  0.00    +0.000 N 
ATOM     11  C   UNL     1       5.809   5.187  19.031  0.00  0.00    +0.000 C 
ATOM     12  O   UNL     1       5.707   5.517  20.199  0.00  0.00    +0.000 OA
ENDROOT
BRANCH   1  14
ATOM     13  C   UNL     1       7.678   7.961  17.478  0.00  0.00    +0.000 C 
ATOM     14  C   UNL     1       6.627   6.873  17.358  0.00  0.00    +0.000 C 
ENDBRANCH   1  14
BRANCH   4  15
ATOM     15  C   UNL     1       5.956   3.735  15.055  0.00  0.00    +0.000 C 
ATOM     16  C   UNL     1       5.793   4.968  14.198  0.00  0.00    +0.000 C 
ENDBRANCH   4  15
TORSDOF 2
ENDMDL
MODEL 8
REMARK VINA RESULT:      -6.0      2.885      4.956
REMARK  Name = 
REMARK  5 active torsions:
REMARK  status: ('A' for Active; 'I' for Inactive)
REMARK    1  A    between atoms: C_1  and  C_2
REMARK    2  A    between atoms: C_2  and  C_3
REMARK    3  A    between atoms: N_6  and  C_7
REMARK    4  A    between atoms: C_7  and  C_8
REMARK    5  A    between atoms: C_11  and  C_12
REMARK                            x       y       z     vdW  Elec       q    Type
REMARK                         _______ _______ _______ _____ _____    ______ ____
ROOT
ATOM      1  C   UNL     1       2.474   5.646  18.529  0.00  0.00    +0.000 C 
ATOM      2  C   UNL     1       2.054   4.376  17.875  0.00  0.00    +0.000 C 
ATOM      3  O   UNL     1       0.933   3.900  17.944  0.00  0.00    +0.000 OA
ATOM      4  N   UNL     1       3.102   3.572  17.341  0.00  0.00    +0.000 N 
ATOM      5  C   UNL     1       4.163   4.211  16.855  0.00  0.00    +0.000 A 
ATOM      6  S   UNL     1       5.521   3.510  16.037  0.00  0.00    +0.000 S 
ATOM      7  C   UNL     1       6.132   5.104  15.724  0.00  0.00    +0.000 A 
ATOM      8  C   UNL     1       7.389   5.293  14.950  0.00  0.00    +0.000 C 
ATOM      9  N   UNL     1       5.414   6.087  16.244  0.00  0.00    +0.000 NA
ATOM     10  N   UNL     1       4.340   5.531  16.902  0.00  0.00    +0.000 N 
ATOM     11  C   UNL     1       3.467   6.311  17.646  0.00  0.00    +0.000 C 
ATOM     12  O   UNL     1       3.639   7.516  17.595  0.00  0.00    +0.000 OA
ENDROOT
BRANCH   1  14
ATOM     13  C   UNL     1       2.070   4.780  20.921  0.00  0.00    +0.000 C 
ATOM     14  C   UNL     1       3.079   5.231  19.880  0.00  0.00    +0.000 C 
ENDBRANCH   1  14
BRANCH   4  15
ATOM     15  C   UNL     1       2.999   2.106  17.466  0.00  0.00    +0.000 C 
ATOM     16  C   UNL     1       3.558   1.607  18.778  0.00  0.00    +0.000 C 
ENDBRANCH   4  15
TORSDOF 2
ENDMDL
MODEL 9
REMARK VINA RESULT:      -6.0      2.014      4.171
REMARK  Name = 
REMARK  5 active torsions:
REMARK  status: ('A' for Active; 'I' for Inactive)
REMARK    1  A    between atoms: C_1  and  C_2
REMARK    2  A    between atoms: C_2  and  C_3
REMARK    3  A    between atoms: N_6  and  C_7
REMARK    4  A    between atoms: C_7  and  C_8
REMARK    5  A    between atoms: C_11  and  C_12
REMARK                            x       y       z     vdW  Elec       q    Type
REMARK                         _______ _______ _______ _____ _____    ______ ____
ROOT
ATOM      1  C   UNL     1       6.094   6.310  18.124  0.00  0.00    +0.000 C 
ATOM      2  C   UNL     1       4.689   5.907  17.840  0.00  0.00    +0.000 C 
ATOM      3  O   UNL     1       3.723   6.258  18.495  0.00  0.00    +0.000 OA
ATOM      4  N   UNL     1       4.520   4.864  16.885  0.00  0.00    +0.000 N 
ATOM      5  C   UNL     1       5.407   4.805  15.894  0.00  0.00    +0.000 A 
ATOM      6  S   UNL     1       5.382   3.734  14.531  0.00  0.00    +0.000 S 
ATOM      7  C   UNL     1       6.754   4.569  13.873  0.00  0.00    +0.000 A 
ATOM      8  C   UNL     1       7.323   4.169  12.557  0.00  0.00    +0.000 C 
ATOM      9  N   UNL     1       7.238   5.534  14.639  0.00  0.00    +0.000 NA
ATOM     10  N   UNL     1       6.470   5.601  15.780  0.00  0.00    +0.000 N 
ATOM     11  C   UNL     1       6.805   6.447  16.827  0.00  0.00    +0.000 C 
ATOM     12  O   UNL     1       7.745   7.199  16.637  0.00  0.00    +0.000 OA
ENDROOT
BRANCH   1  14
ATOM     13  C   UNL     1       7.986   5.521  19.683  0.00  0.00    +0.000 C 
ATOM     14  C   UNL     1       6.676   5.184  18.994  0.00  0.00    +0.000 C 
ENDBRANCH   1  14
BRANCH   4  15
ATOM     15  C   UNL     1       3.463   3.861  17.114  0.00  0.00    +0.000 C 
ATOM     16  C   UNL     1       3.878   2.822  18.130  0.00  0.00    +0.000 C 
ENDBRANCH   4  15
TORSDOF 2
ENDMDL
