MODEL 1
REMARK VINA RESULT:      -7.8      0.000      0.000
REMARK  Name = 
REMARK  6 active torsions:
REMARK  status: ('A' for Active; 'I' for Inactive)
REMARK    1  A    between atoms: O5*_1  and  C5*_2
REMARK    2  A    between atoms: C5*_2  and  C4*_3
REMARK    3  A    between atoms: C1*_5  and  N_6
REMARK    4  A    between atoms: C_10  and  N_11
REMARK    5  A    between atoms: N_11  and  C_12
REMARK    6  A    between atoms: C3*_25  and  O3*_26
REMARK                            x       y       z     vdW  Elec       q    Type
REMARK                         _______ _______ _______ _____ _____    ______ ____
ROOT
ATOM      1  N   UNL     1       0.875   9.523  19.567  0.00  0.00    +0.000 N 
ATOM      2  C   UNL     1       0.485   9.129  20.817  0.00  0.00    +0.000 A 
ATOM      3  N   UNL     1       1.049   7.999  21.189  0.00  0.00    +0.000 NA
ATOM      4  C   UNL     1       1.827   7.616  20.109  0.00  0.00    +0.000 A 
ATOM      5  C   UNL     1       2.645   6.470  19.898  0.00  0.00    +0.000 A 
ATOM      6  C   UNL     1       3.243   6.409  18.629  0.00  0.00    +0.000 A 
ATOM      7  C   UNL     1       3.105   7.452  17.719  0.00  0.00    +0.000 A 
ATOM      8  N   UNL     1       2.373   8.573  17.910  0.00  0.00    +0.000 NA
ATOM      9  C   UNL     1       1.752   8.572  19.104  0.00  0.00    +0.000 A 
ENDROOT
BRANCH   1  12
ATOM     10  C4* UNL     1       0.159  12.951  19.502  0.00  0.00    +0.000 C 
ATOM     11  O4* UNL     1       1.134  11.885  19.407  0.00  0.00    +0.000 OA
ATOM     12  C1* UNL     1       0.499  10.715  18.835  0.00  0.00    +0.000 C 
ATOM     13  C2* UNL     1      -0.997  10.989  18.782  0.00  0.00    +0.000 C 
ATOM     14  C3* UNL     1      -1.060  12.495  18.703  0.00  0.00    +0.000 C 
BRANCH  14  15
ATOM     15  O3* UNL     1      -0.952  12.905  17.338  0.00  0.00    +0.000 OA
ATOM     16  H3* UNL     1      -1.564  13.647  17.180  0.00  0.00    +0.000 HD
ENDBRANCH  14  15
BRANCH  10  17
ATOM     17  C5* UNL     1      -0.164  13.241  20.972  0.00  0.00    +0.000 C 
BRANCH  17  18
ATOM     18  O5* UNL     1       0.587  12.399  21.840  0.00  0.00    +0.000 OA
ATOM     19  H5* UNL     1      -0.016  11.714  22.180  0.00  0.00    +0.000 HD
ENDBRANCH  17  18
ENDBRANCH  10  17
ENDBRANCH   1  12
BRANCH   5  20
ATOM     20  N   UNL     1       2.789   5.459  20.860  0.00  0.00    +0.000 N 
ATOM     21  H   UNL     1       3.753   5.427  21.198  0.00  0.00    +0.000 HD
BRANCH  20  22
ATOM     22  C   UNL     1       2.114   4.155  20.713  0.00  0.00    +0.000 C 
ATOM     23  C   UNL     1       1.171   4.178  19.503  0.00  0.00    +0.000 C 
ATOM     24  C   UNL     1       0.465   2.871  19.150  0.00  0.00    +0.000 C 
ATOM     25  C   UNL     1       1.311   1.736  18.579  0.00  0.00    +0.000 C 
ATOM     26  C   UNL     1       2.499   2.174  17.728  0.00  0.00    +0.000 C 
ATOM     27  C   UNL     1       3.842   1.999  18.429  0.00  0.00    +0.000 C 
ATOM     28  C   UNL     1       4.176   2.860  19.653  0.00  0.00    +0.000 C 
ATOM     29  C   UNL     1       3.151   3.012  20.782  0.00  0.00    +0.000 C 
ENDBRANCH  20  22
ENDBRANCH   5  20
TORSDOF 6
ENDMDL
MODEL 2
REMARK VINA RESULT:      -7.7      0.959      1.017
REMARK  Name = 
REMARK  6 active torsions:
REMARK  status: ('A' for Active; 'I' for Inactive)
REMARK    1  A    between atoms: O5*_1  and  C5*_2
REMARK    2  A    between atoms: C5*_2  and  C4*_3
REMARK    3  A    between atoms: C1*_5  and  N_6
REMARK    4  A    between atoms: C_10  and  N_11
REMARK    5  A    between atoms: N_11  and  C_12
REMARK    6  A    between atoms: C3*_25  and  O3*_26
REMARK                            x       y       z     vdW  Elec       q    Type
REMARK                         _______ _______ _______ _____ _____    ______ ____
ROOT
ATOM      1  N   UNL     1       0.763   9.551  19.601  0.00  0.00    +0.000 N 
ATOM      2  C   UNL     1       0.486   9.148  20.878  0.00  0.00    +0.000 A 
ATOM      3  N   UNL     1       1.121   8.042  21.206  0.00  0.00    +0.000 NA
ATOM      4  C   UNL     1       1.827   7.684  20.070  0.00  0.00    +0.000 A 
ATOM      5  C   UNL     1       2.670   6.570  19.798  0.00  0.00    +0.000 A 
ATOM      6  C   UNL     1       3.170   6.526  18.487  0.00  0.00    +0.000 A 
ATOM      7  C   UNL     1       2.921   7.559  17.589  0.00  0.00    +0.000 A 
ATOM      8  N   UNL     1       2.163   8.652  17.835  0.00  0.00    +0.000 NA
ATOM      9  C   UNL     1       1.637   8.632  19.073  0.00  0.00    +0.000 A 
ENDROOT
BRANCH   1  12
ATOM     10  C4* UNL     1      -1.059  12.542  19.568  0.00  0.00    +0.000 C 
ATOM     11  O4* UNL     1       0.194  11.855  19.800  0.00  0.00    +0.000 OA
ATOM     12  C1* UNL     1       0.285  10.725  18.898  0.00  0.00    +0.000 C 
ATOM     13  C2* UNL     1      -1.072  10.564  18.231  0.00  0.00    +0.000 C 
ATOM     14  C3* UNL     1      -1.639  11.961  18.280  0.00  0.00    +0.000 C 
BRANCH  14  15
ATOM     15  O3* UNL     1      -1.184  12.699  17.142  0.00  0.00    +0.000 OA
ATOM     16  H3* UNL     1      -0.860  12.075  16.467  0.00  0.00    +0.000 HD
ENDBRANCH  14  15
BRANCH  10  17
ATOM     17  C5* UNL     1      -1.989  12.367  20.774  0.00  0.00    +0.000 C 
BRANCH  17  18
ATOM     18  O5* UNL     1      -3.336  12.675  20.435  0.00  0.00    +0.000 OA
ATOM     19  H5* UNL     1      -3.331  13.087  19.554  0.00  0.00    +0.000 HD
ENDBRANCH  17  18
ENDBRANCH  10  17
ENDBRANCH   1  12
BRANCH   5  20
ATOM     20  N   UNL     1       2.927   5.570  20.748  0.00  0.00    +0.000 N 
ATOM     21  H   UNL     1       3.910   5.591  21.027  0.00  0.00    +0.000 HD
BRANCH  20  22
ATOM     22  C   UNL     1       2.316   4.231  20.639  0.00  0.00    +0.000 C 
ATOM     23  C   UNL     1       1.201   4.238  19.585  0.00  0.00    +0.000 C 
ATOM     24  C   UNL     1       0.529   2.902  19.277  0.00  0.00    +0.000 C 
ATOM     25  C   UNL     1       1.346   1.850  18.531  0.00  0.00    +0.000 C 
ATOM     26  C   UNL     1       2.363   2.400  17.536  0.00  0.00    +0.000 C 
ATOM     27  C   UNL     1       3.804   2.286  18.019  0.00  0.00    +0.000 C 
ATOM     28  C   UNL     1       4.268   3.118  19.221  0.00  0.00    +0.000 C 
ATOM     29  C   UNL     1       3.419   3.158  20.496  0.00  0.00    +0.000 C 
ENDBRANCH  20  22
ENDBRANCH   5  20
TORSDOF 6
ENDMDL
MODEL 3
REMARK VINA RESULT:      -7.7      1.867      2.594
REMARK  Name = 
REMARK  6 active torsions:
REMARK  status: ('A' for Active; 'I' for Inactive)
REMARK    1  A    between atoms: O5*_1  and  C5*_2
REMARK    2  A    between atoms: C5*_2  and  C4*_3
REMARK    3  A    between atoms: C1*_5  and  N_6
REMARK    4  A    between atoms: C_10  and  N_11
REMARK    5  A    between atoms: N_11  and  C_12
REMARK    6  A    between atoms: C3*_25  and  O3*_26
REMARK                            x       y       z     vdW  Elec       q    Type
REMARK                         _______ _______ _______ _____ _____    ______ ____
ROOT
ATOM      1  N   UNL     1       0.145  10.587  20.880  0.00  0.00    +0.000 N 
ATOM      2  C   UNL     1       0.192   9.760  21.966  0.00  0.00    +0.000 A 
ATOM      3  N   UNL     1       0.883   8.663  21.736  0.00  0.00    +0.000 NA
ATOM      4  C   UNL     1       1.282   8.764  20.414  0.00  0.00    +0.000 A 
ATOM      5  C   UNL     1       2.026   7.877  19.585  0.00  0.00    +0.000 A 
ATOM      6  C   UNL     1       2.183   8.314  18.260  0.00  0.00    +0.000 A 
ATOM      7  C   UNL     1       1.725   9.565  17.858  0.00  0.00    +0.000 A 
ATOM      8  N   UNL     1       1.058  10.447  18.636  0.00  0.00    +0.000 NA
ATOM      9  C   UNL     1       0.856   9.972  19.878  0.00  0.00    +0.000 A 
ENDROOT
BRANCH   1  12
ATOM     10  C4* UNL     1      -1.982  13.066  22.147  0.00  0.00    +0.000 C 
ATOM     11  O4* UNL     1      -0.653  12.496  22.061  0.00  0.00    +0.000 OA
ATOM     12  C1* UNL     1      -0.486  11.886  20.757  0.00  0.00    +0.000 C 
ATOM     13  C2* UNL     1      -1.849  11.875  20.082  0.00  0.00    +0.000 C 
ATOM     14  C3* UNL     1      -2.557  13.038  20.733  0.00  0.00    +0.000 C 
BRANCH  14  15
ATOM     15  O3* UNL     1      -2.237  14.242  20.032  0.00  0.00    +0.000 OA
ATOM     16  H3* UNL     1      -2.551  15.005  20.551  0.00  0.00    +0.000 HD
ENDBRANCH  14  15
BRANCH  10  17
ATOM     17  C5* UNL     1      -2.830  12.280  23.153  0.00  0.00    +0.000 C 
BRANCH  17  18
ATOM     18  O5* UNL     1      -4.205  12.293  22.790  0.00  0.00    +0.000 OA
ATOM     19  H5* UNL     1      -4.278  12.746  21.931  0.00  0.00    +0.000 HD
ENDBRANCH  17  18
ENDBRANCH  10  17
ENDBRANCH   1  12
BRANCH   5  20
ATOM     20  N   UNL     1       2.505   6.641  20.043  0.00  0.00    +0.000 N 
ATOM     21  H   UNL     1       3.444   6.748  20.432  0.00  0.00    +0.000 HD
BRANCH  20  22
ATOM     22  C   UNL     1       2.255   5.393  19.296  0.00  0.00    +0.000 C 
ATOM     23  C   UNL     1       3.560   4.870  18.683  0.00  0.00    +0.000 C 
ATOM     24  C   UNL     1       3.496   3.528  17.956  0.00  0.00    +0.000 C 
ATOM     25  C   UNL     1       3.285   2.272  18.797  0.00  0.00    +0.000 C 
ATOM     26  C   UNL     1       3.896   2.313  20.194  0.00  0.00    +0.000 C 
ATOM     27  C   UNL     1       2.861   2.483  21.301  0.00  0.00    +0.000 C 
ATOM     28  C   UNL     1       2.079   3.798  21.413  0.00  0.00    +0.000 C 
ATOM     29  C   UNL     1       1.437   4.412  20.165  0.00  0.00    +0.000 C 
ENDBRANCH  20  22
ENDBRANCH   5  20
TORSDOF 6
ENDMDL
MODEL 4
REMARK VINA RESULT:      -7.4      1.828      2.614
REMARK  Name = 
REMARK  6 active torsions:
REMARK  status: ('A' for Active; 'I' for Inactive)
REMARK    1  A    between atoms: O5*_1  and  C5*_2
REMARK    2  A    between atoms: C5*_2  and  C4*_3
REMARK    3  A    between atoms: C1*_5  and  N_6
REMARK    4  A    between atoms: C_10  and  N_11
REMARK    5  A    between atoms: N_11  and  C_12
REMARK    6  A    between atoms: C3*_25  and  O3*_26
REMARK                            x       y       z     vdW  Elec       q    Type
REMARK                         _______ _______ _______ _____ _____    ______ ____
ROOT
ATOM      1  N   UNL     1       0.285  10.379  20.755  0.00  0.00    +0.000 N 
ATOM      2  C   UNL     1       0.283   9.495  21.797  0.00  0.00    +0.000 A 
ATOM      3  N   UNL     1       0.959   8.397  21.529  0.00  0.00    +0.000 NA
ATOM      4  C   UNL     1       1.401   8.560  20.226  0.00  0.00    +0.000 A 
ATOM      5  C   UNL     1       2.152   7.702  19.373  0.00  0.00    +0.000 A 
ATOM      6  C   UNL     1       2.359   8.206  18.080  0.00  0.00    +0.000 A 
ATOM      7  C   UNL     1       1.937   9.485  17.731  0.00  0.00    +0.000 A 
ATOM      8  N   UNL     1       1.263  10.339  18.535  0.00  0.00    +0.000 NA
ATOM      9  C   UNL     1       1.014   9.803  19.744  0.00  0.00    +0.000 A 
ENDROOT
BRANCH   1  12
ATOM     10  C4* UNL     1      -1.767  12.863  22.130  0.00  0.00    +0.000 C 
ATOM     11  O4* UNL     1      -0.454  12.265  22.009  0.00  0.00    +0.000 OA
ATOM     12  C1* UNL     1      -0.317  11.696  20.684  0.00  0.00    +0.000 C 
ATOM     13  C2* UNL     1      -1.688  11.738  20.025  0.00  0.00    +0.000 C 
ATOM     14  C3* UNL     1      -2.360  12.895  20.723  0.00  0.00    +0.000 C 
BRANCH  14  15
ATOM     15  O3* UNL     1      -2.020  14.115  20.059  0.00  0.00    +0.000 OA
ATOM     16  H3* UNL     1      -2.038  14.844  20.705  0.00  0.00    +0.000 HD
ENDBRANCH  14  15
BRANCH  10  17
ATOM     17  C5* UNL     1      -2.621  12.063  23.121  0.00  0.00    +0.000 C 
BRANCH  17  18
ATOM     18  O5* UNL     1      -4.009  12.211  22.841  0.00  0.00    +0.000 OA
ATOM     19  H5* UNL     1      -4.440  12.530  23.653  0.00  0.00    +0.000 HD
ENDBRANCH  17  18
ENDBRANCH  10  17
ENDBRANCH   1  12
BRANCH   5  20
ATOM     20  N   UNL     1       2.593   6.434  19.779  0.00  0.00    +0.000 N 
ATOM     21  H   UNL     1       3.093   6.501  20.668  0.00  0.00    +0.000 HD
BRANCH  20  22
ATOM     22  C   UNL     1       3.129   5.459  18.810  0.00  0.00    +0.000 C 
ATOM     23  C   UNL     1       4.132   4.522  19.497  0.00  0.00    +0.000 C 
ATOM     24  C   UNL     1       4.709   3.386  18.655  0.00  0.00    +0.000 C 
ATOM     25  C   UNL     1       3.775   2.243  18.265  0.00  0.00    +0.000 C 
ATOM     26  C   UNL     1       2.689   1.914  19.284  0.00  0.00    +0.000 C 
ATOM     27  C   UNL     1       1.299   2.375  18.858  0.00  0.00    +0.000 C 
ATOM     28  C   UNL     1       0.997   3.876  18.757  0.00  0.00    +0.000 C 
ATOM     29  C   UNL     1       1.971   4.804  18.025  0.00  0.00    +0.000 C 
ENDBRANCH  20  22
ENDBRANCH   5  20
TORSDOF 6
ENDMDL
MODEL 5
REMARK VINA RESULT:      -7.4      3.920      7.795
REMARK  Name = 
REMARK  6 active torsions:
REMARK  status: ('A' for Active; 'I' for Inactive)
REMARK    1  A    between atoms: O5*_1  and  C5*_2
REMARK    2  A    between atoms: C5*_2  and  C4*_3
REMARK    3  A    between atoms: C1*_5  and  N_6
REMARK    4  A    between atoms: C_10  and  N_11
REMARK    5  A    between atoms: N_11  and  C_12
REMARK    6  A    between atoms: C3*_25  and  O3*_26
REMARK                            x       y       z     vdW  Elec       q    Type
REMARK                         _______ _______ _______ _____ _____    ______ ____
ROOT
ATOM      1  N   UNL     1       4.056   6.222  17.971  0.00  0.00    +0.000 N 
ATOM      2  C   UNL     1       3.609   7.470  17.638  0.00  0.00    +0.000 A 
ATOM      3  N   UNL     1       2.664   7.901  18.447  0.00  0.00    +0.000 NA
ATOM      4  C   UNL     1       2.459   6.863  19.340  0.00  0.00    +0.000 A 
ATOM      5  C   UNL     1       1.546   6.720  20.424  0.00  0.00    +0.000 A 
ATOM      6  C   UNL     1       1.603   5.476  21.072  0.00  0.00    +0.000 A 
ATOM      7  C   UNL     1       2.557   4.526  20.719  0.00  0.00    +0.000 A 
ATOM      8  N   UNL     1       3.466   4.653  19.726  0.00  0.00    +0.000 NA
ATOM      9  C   UNL     1       3.341   5.824  19.075  0.00  0.00    +0.000 A 
ENDROOT
BRANCH   1  12
ATOM     10  C4* UNL     1       7.315   4.938  17.979  0.00  0.00    +0.000 C 
ATOM     11  O4* UNL     1       5.922   4.791  18.347  0.00  0.00    +0.000 OA
ATOM     12  C1* UNL     1       5.100   5.437  17.344  0.00  0.00    +0.000 C 
ATOM     13  C2* UNL     1       6.029   6.220  16.429  0.00  0.00    +0.000 C 
ATOM     14  C3* UNL     1       7.330   5.466  16.547  0.00  0.00    +0.000 C 
BRANCH  14  15
ATOM     15  O3* UNL     1       7.342   4.387  15.609  0.00  0.00    +0.000 OA
ATOM     16  H3* UNL     1       7.258   3.545  16.093  0.00  0.00    +0.000 HD
ENDBRANCH  14  15
BRANCH  10  17
ATOM     17  C5* UNL     1       8.026   5.869  18.968  0.00  0.00    +0.000 C 
BRANCH  17  18
ATOM     18  O5* UNL     1       7.843   5.433  20.310  0.00  0.00    +0.000 OA
ATOM     19  H5* UNL     1       6.922   5.624  20.558  0.00  0.00    +0.000 HD
ENDBRANCH  17  18
ENDBRANCH  10  17
ENDBRANCH   1  12
BRANCH   5  20
ATOM     20  N   UNL     1       0.627   7.721  20.771  0.00  0.00    +0.000 N 
ATOM     21  H   UNL     1      -0.230   7.620  20.223  0.00  0.00    +0.000 HD
BRANCH  20  22
ATOM     22  C   UNL     1       1.061   9.106  21.039  0.00  0.00    +0.000 C 
ATOM     23  C   UNL     1       0.400  10.072  20.047  0.00  0.00    +0.000 C 
ATOM     24  C   UNL     1       0.667  11.562  20.247  0.00  0.00    +0.000 C 
ATOM     25  C   UNL     1       0.038  12.241  21.461  0.00  0.00    +0.000 C 
ATOM     26  C   UNL     1      -1.312  11.679  21.895  0.00  0.00    +0.000 C 
ATOM     27  C   UNL     1      -1.239  10.846  23.170  0.00  0.00    +0.000 C 
ATOM     28  C   UNL     1      -0.487   9.508  23.159  0.00  0.00    +0.000 C 
ATOM     29  C   UNL     1       0.913   9.425  22.543  0.00  0.00    +0.000 C 
ENDBRANCH  20  22
ENDBRANCH   5  20
TORSDOF 6
ENDMDL
MODEL 6
REMARK VINA RESULT:      -7.3      1.503      2.603
REMARK  Name = 
REMARK  6 active torsions:
REMARK  status: ('A' for Active; 'I' for Inactive)
REMARK    1  A    between atoms: O5*_1  and  C5*_2
REMARK    2  A    between atoms: C5*_2  and  C4*_3
REMARK    3  A    between atoms: C1*_5  and  N_6
REMARK    4  A    between atoms: C_10  and  N_11
REMARK    5  A    between atoms: N_11  and  C_12
REMARK    6  A    between atoms: C3*_25  and  O3*_26
REMARK                            x       y       z     vdW  Elec       q    Type
REMARK                         _______ _______ _______ _____ _____    ______ ____
ROOT
ATOM      1  N   UNL     1       0.232  10.407  21.122  0.00  0.00    +0.000 N 
ATOM      2  C   UNL     1       0.506   9.580  22.175  0.00  0.00    +0.000 A 
ATOM      3  N   UNL     1       1.227   8.536  21.822  0.00  0.00    +0.000 NA
ATOM      4  C   UNL     1       1.408   8.672  20.456  0.00  0.00    +0.000 A 
ATOM      5  C   UNL     1       2.073   7.844  19.507  0.00  0.00    +0.000 A 
ATOM      6  C   UNL     1       1.992   8.299  18.182  0.00  0.00    +0.000 A 
ATOM      7  C   UNL     1       1.390   9.515  17.875  0.00  0.00    +0.000 A 
ATOM      8  N   UNL     1       0.792  10.344  18.761  0.00  0.00    +0.000 NA
ATOM      9  C   UNL     1       0.820   9.849  20.012  0.00  0.00    +0.000 A 
ENDROOT
BRANCH   1  12
ATOM     10  C4* UNL     1      -2.076  12.576  19.627  0.00  0.00    +0.000 C 
ATOM     11  O4* UNL     1      -1.812  11.479  20.534  0.00  0.00    +0.000 OA
ATOM     12  C1* UNL     1      -0.500  11.658  21.120  0.00  0.00    +0.000 C 
ATOM     13  C2* UNL     1       0.181  12.796  20.374  0.00  0.00    +0.000 C 
ATOM     14  C3* UNL     1      -0.985  13.614  19.875  0.00  0.00    +0.000 C 
BRANCH  14  15
ATOM     15  O3* UNL     1      -1.386  14.539  20.888  0.00  0.00    +0.000 OA
ATOM     16  H3* UNL     1      -0.856  15.353  20.804  0.00  0.00    +0.000 HD
ENDBRANCH  14  15
BRANCH  10  17
ATOM     17  C5* UNL     1      -2.104  12.070  18.180  0.00  0.00    +0.000 C 
BRANCH  17  18
ATOM     18  O5* UNL     1      -1.074  12.673  17.404  0.00  0.00    +0.000 OA
ATOM     19  H5* UNL     1      -0.619  13.320  17.971  0.00  0.00    +0.000 HD
ENDBRANCH  17  18
ENDBRANCH  10  17
ENDBRANCH   1  12
BRANCH   5  20
ATOM     20  N   UNL     1       2.704   6.644  19.866  0.00  0.00    +0.000 N 
ATOM     21  H   UNL     1       3.692   6.810  20.069  0.00  0.00    +0.000 HD
BRANCH  20  22
ATOM     22  C   UNL     1       2.390   5.375  19.180  0.00  0.00    +0.000 C 
ATOM     23  C   UNL     1       3.670   4.748  18.613  0.00  0.00    +0.000 C 
ATOM     24  C   UNL     1       3.537   3.376  17.954  0.00  0.00    +0.000 C 
ATOM     25  C   UNL     1       3.245   2.179  18.855  0.00  0.00    +0.000 C 
ATOM     26  C   UNL     1       3.843   2.258  20.257  0.00  0.00    +0.000 C 
ATOM     27  C   UNL     1       2.808   2.544  21.340  0.00  0.00    +0.000 C 
ATOM     28  C   UNL     1       2.101   3.905  21.373  0.00  0.00    +0.000 C 
ATOM     29  C   UNL     1       1.508   4.488  20.087  0.00  0.00    +0.000 C 
ENDBRANCH  20  22
ENDBRANCH   5  20
TORSDOF 6
ENDMDL
MODEL 7
REMARK VINA RESULT:      -7.3      1.125      1.249
REMARK  Name = 
REMARK  6 active torsions:
REMARK  status: ('A' for Active; 'I' for Inactive)
REMARK    1  A    between atoms: O5*_1  and  C5*_2
REMARK    2  A    between atoms: C5*_2  and  C4*_3
REMARK    3  A    between atoms: C1*_5  and  N_6
REMARK    4  A    between atoms: C_10  and  N_11
REMARK    5  A    between atoms: N_11  and  C_12
REMARK    6  A    between atoms: C3*_25  and  O3*_26
REMARK                            x       y       z     vdW  Elec       q    Type
REMARK                         _______ _______ _______ _____ _____    ______ ____
ROOT
ATOM      1  N   UNL     1       0.598   9.805  20.335  0.00  0.00    +0.000 N 
ATOM      2  C   UNL     1       0.536   9.104  21.507  0.00  0.00    +0.000 A 
ATOM      3  N   UNL     1       1.247   7.997  21.471  0.00  0.00    +0.000 NA
ATOM      4  C   UNL     1       1.779   7.955  20.193  0.00  0.00    +0.000 A 
ATOM      5  C   UNL     1       2.603   6.991  19.547  0.00  0.00    +0.000 A 
ATOM      6  C   UNL     1       2.893   7.280  18.205  0.00  0.00    +0.000 A 
ATOM      7  C   UNL     1       2.477   8.472  17.621  0.00  0.00    +0.000 A 
ATOM      8  N   UNL     1       1.733   9.428  18.224  0.00  0.00    +0.000 NA
ATOM      9  C   UNL     1       1.407   9.091  19.485  0.00  0.00    +0.000 A 
ENDROOT
BRANCH   1  12
ATOM     10  C4* UNL     1      -1.278  12.610  21.277  0.00  0.00    +0.000 C 
ATOM     11  O4* UNL     1       0.013  11.967  21.146  0.00  0.00    +0.000 OA
ATOM     12  C1* UNL     1      -0.019  11.075  20.005  0.00  0.00    +0.000 C 
ATOM     13  C2* UNL     1      -1.464  10.982  19.539  0.00  0.00    +0.000 C 
ATOM     14  C3* UNL     1      -2.049  12.296  19.996  0.00  0.00    +0.000 C 
BRANCH  14  15
ATOM     15  O3* UNL     1      -1.809  13.296  19.003  0.00  0.00    +0.000 OA
ATOM     16  H3* UNL     1      -1.460  14.096  19.435  0.00  0.00    +0.000 HD
ENDBRANCH  14  15
BRANCH  10  17
ATOM     17  C5* UNL     1      -1.989  12.113  22.540  0.00  0.00    +0.000 C 
BRANCH  17  18
ATOM     18  O5* UNL     1      -1.093  11.409  23.393  0.00  0.00    +0.000 OA
ATOM     19  H5* UNL     1      -1.329  11.626  24.311  0.00  0.00    +0.000 HD
ENDBRANCH  17  18
ENDBRANCH  10  17
ENDBRANCH   1  12
BRANCH   5  20
ATOM     20  N   UNL     1       3.035   5.819  20.187  0.00  0.00    +0.000 N 
ATOM     21  H   UNL     1       4.029   5.665  20.008  0.00  0.00    +0.000 HD
BRANCH  20  22
ATOM     22  C   UNL     1       2.191   4.609  20.229  0.00  0.00    +0.000 C 
ATOM     23  C   UNL     1       1.465   4.421  18.891  0.00  0.00    +0.000 C 
ATOM     24  C   UNL     1       0.623   3.158  18.730  0.00  0.00    +0.000 C 
ATOM     25  C   UNL     1       1.356   1.823  18.618  0.00  0.00    +0.000 C 
ATOM     26  C   UNL     1       2.717   1.883  17.932  0.00  0.00    +0.000 C 
ATOM     27  C   UNL     1       3.888   1.745  18.898  0.00  0.00    +0.000 C 
ATOM     28  C   UNL     1       4.160   2.853  19.923  0.00  0.00    +0.000 C 
ATOM     29  C   UNL     1       3.009   3.413  20.765  0.00  0.00    +0.000 C 
ENDBRANCH  20  22
ENDBRANCH   5  20
TORSDOF 6
ENDMDL
MODEL 8
REMARK VINA RESULT:      -7.3      1.434      2.606
REMARK  Name = 
REMARK  6 active torsions:
REMARK  status: ('A' for Active; 'I' for Inactive)
REMARK    1  A    between atoms: O5*_1  and  C5*_2
REMARK    2  A    between atoms: C5*_2  and  C4*_3
REMARK    3  A    between atoms: C1*_5  and  N_6
REMARK    4  A    between atoms: C_10  and  N_11
REMARK    5  A    between atoms: N_11  and  C_12
REMARK    6  A    between atoms: C3*_25  and  O3*_26
REMARK                            x       y       z     vdW  Elec       q    Type
REMARK                         _______ _______ _______ _____ _____    ______ ____
ROOT
ATOM      1  N   UNL     1       0.525  10.031  21.010  0.00  0.00    +0.000 N 
ATOM      2  C   UNL     1       0.676   9.045  21.945  0.00  0.00    +0.000 A 
ATOM      3  N   UNL     1       1.339   8.007  21.481  0.00  0.00    +0.000 NA
ATOM      4  C   UNL     1       1.609   8.318  20.159  0.00  0.00    +0.000 A 
ATOM      5  C   UNL     1       2.267   7.581  19.134  0.00  0.00    +0.000 A 
ATOM      6  C   UNL     1       2.297   8.221  17.885  0.00  0.00    +0.000 A 
ATOM      7  C   UNL     1       1.804   9.512  17.728  0.00  0.00    +0.000 A 
ATOM      8  N   UNL     1       1.216  10.254  18.695  0.00  0.00    +0.000 NA
ATOM      9  C   UNL     1       1.135   9.589  19.861  0.00  0.00    +0.000 A 
ENDROOT
BRANCH   1  12
ATOM     10  C4* UNL     1      -1.623  12.513  19.788  0.00  0.00    +0.000 C 
ATOM     11  O4* UNL     1      -1.437  11.306  20.566  0.00  0.00    +0.000 OA
ATOM     12  C1* UNL     1      -0.113  11.325  21.153  0.00  0.00    +0.000 C 
ATOM     13  C2* UNL     1       0.647  12.485  20.529  0.00  0.00    +0.000 C 
ATOM     14  C3* UNL     1      -0.457  13.436  20.135  0.00  0.00    +0.000 C 
BRANCH  14  15
ATOM     15  O3* UNL     1      -0.787  14.271  21.248  0.00  0.00    +0.000 OA
ATOM     16  H3* UNL     1      -1.216  15.082  20.921  0.00  0.00    +0.000 HD
ENDBRANCH  14  15
BRANCH  10  17
ATOM     17  C5* UNL     1      -1.693  12.173  18.295  0.00  0.00    +0.000 C 
BRANCH  17  18
ATOM     18  O5* UNL     1      -0.910  13.076  17.523  0.00  0.00    +0.000 OA
ATOM     19  H5* UNL     1      -0.347  13.578  18.139  0.00  0.00    +0.000 HD
ENDBRANCH  17  18
ENDBRANCH  10  17
ENDBRANCH   1  12
BRANCH   5  20
ATOM     20  N   UNL     1       2.787   6.295  19.346  0.00  0.00    +0.000 N 
ATOM     21  H   UNL     1       3.604   6.341  19.958  0.00  0.00    +0.000 HD
BRANCH  20  22
ATOM     22  C   UNL     1       2.852   5.302  18.256  0.00  0.00    +0.000 C 
ATOM     23  C   UNL     1       4.161   4.506  18.339  0.00  0.00    +0.000 C 
ATOM     24  C   UNL     1       4.344   3.366  17.340  0.00  0.00    +0.000 C 
ATOM     25  C   UNL     1       3.476   2.122  17.511  0.00  0.00    +0.000 C 
ATOM     26  C   UNL     1       3.111   1.776  18.952  0.00  0.00    +0.000 C 
ATOM     27  C   UNL     1       1.659   2.086  19.299  0.00  0.00    +0.000 C 
ATOM     28  C   UNL     1       1.185   3.544  19.344  0.00  0.00    +0.000 C 
ATOM     29  C   UNL     1       1.535   4.496  18.197  0.00  0.00    +0.000 C 
ENDBRANCH  20  22
ENDBRANCH   5  20
TORSDOF 6
ENDMDL
MODEL 9
REMARK VINA RESULT:      -7.3      1.334      2.028
REMARK  Name = 
REMARK  6 active torsions:
REMARK  status: ('A' for Active; 'I' for Inactive)
REMARK    1  A    between atoms: O5*_1  and  C5*_2
REMARK    2  A    between atoms: C5*_2  and  C4*_3
REMARK    3  A    between atoms: C1*_5  and  N_6
REMARK    4  A    between atoms: C_10  and  N_11
REMARK    5  A    between atoms: N_11  and  C_12
REMARK    6  A    between atoms: C3*_25  and  O3*_26
REMARK                            x       y       z     vdW  Elec       q    Type
REMARK                         _______ _______ _______ _____ _____    ______ ____
ROOT
ATOM      1  N   UNL     1       0.373   9.823  20.440  0.00  0.00    +0.000 N 
ATOM      2  C   UNL     1       0.511   9.199  21.648  0.00  0.00    +0.000 A 
ATOM      3  N   UNL     1       1.308   8.153  21.588  0.00  0.00    +0.000 NA
ATOM      4  C   UNL     1       1.686   8.068  20.258  0.00  0.00    +0.000 A 
ATOM      5  C   UNL     1       2.509   7.131  19.572  0.00  0.00    +0.000 A 
ATOM      6  C   UNL     1       2.613   7.353  18.190  0.00  0.00    +0.000 A 
ATOM      7  C   UNL     1       2.028   8.466  17.595  0.00  0.00    +0.000 A 
ATOM      8  N   UNL     1       1.280   9.397  18.230  0.00  0.00    +0.000 NA
ATOM      9  C   UNL     1       1.136   9.121  19.539  0.00  0.00    +0.000 A 
ENDROOT
BRANCH   1  12
ATOM     10  C4* UNL     1      -1.947  11.494  18.416  0.00  0.00    +0.000 C 
ATOM     11  O4* UNL     1      -1.680  10.660  19.569  0.00  0.00    +0.000 OA
ATOM     12  C1* UNL     1      -0.387  11.014  20.117  0.00  0.00    +0.000 C 
ATOM     13  C2* UNL     1       0.286  11.954  19.128  0.00  0.00    +0.000 C 
ATOM     14  C3* UNL     1      -0.886  12.592  18.422  0.00  0.00    +0.000 C 
BRANCH  14  15
ATOM     15  O3* UNL     1      -1.333  13.725  19.170  0.00  0.00    +0.000 OA
ATOM     16  H3* UNL     1      -2.215  13.990  18.848  0.00  0.00    +0.000 HD
ENDBRANCH  14  15
BRANCH  10  17
ATOM     17  C5* UNL     1      -1.927  10.648  17.137  0.00  0.00    +0.000 C 
BRANCH  17  18
ATOM     18  O5* UNL     1      -2.297  11.423  16.002  0.00  0.00    +0.000 OA
ATOM     19  H5* UNL     1      -2.586  10.806  15.307  0.00  0.00    +0.000 HD
ENDBRANCH  17  18
ENDBRANCH  10  17
ENDBRANCH   1  12
BRANCH   5  20
ATOM     20  N   UNL     1       3.114   6.044  20.219  0.00  0.00    +0.000 N 
ATOM     21  H   UNL     1       4.102   5.984  19.962  0.00  0.00    +0.000 HD
BRANCH  20  22
ATOM     22  C   UNL     1       2.411   4.757  20.381  0.00  0.00    +0.000 C 
ATOM     23  C   UNL     1       1.312   4.614  19.320  0.00  0.00    +0.000 C 
ATOM     24  C   UNL     1       0.550   3.291  19.284  0.00  0.00    +0.000 C 
ATOM     25  C   UNL     1       1.298   2.051  18.801  0.00  0.00    +0.000 C 
ATOM     26  C   UNL     1       2.364   2.306  17.739  0.00  0.00    +0.000 C 
ATOM     27  C   UNL     1       3.788   2.202  18.274  0.00  0.00    +0.000 C 
ATOM     28  C   UNL     1       4.295   3.239  19.285  0.00  0.00    +0.000 C 
ATOM     29  C   UNL     1       3.436   3.606  20.499  0.00  0.00    +0.000 C 
ENDBRANCH  20  22
ENDBRANCH   5  20
TORSDOF 6
ENDMDL
