MODEL 1
REMARK VINA RESULT:      -6.2      0.000      0.000
REMARK  Name = 
REMARK  9 active torsions:
REMARK  status: ('A' for Active; 'I' for Inactive)
REMARK    1  A    between atoms: C_2  and  C_3
REMARK    2  A    between atoms: C_3  and  C_4
REMARK    3  A    between atoms: C_6  and  N_7
REMARK    4  A    between atoms: N_7  and  C_8
REMARK    5  A    between atoms: C_8  and  C_9
REMARK    6  A    between atoms: C_9  and  N_10
REMARK    7  A    between atoms: N_13  and  C_14
REMARK    8  A    between atoms: C_15  and  C_16
REMARK    9  A    between atoms: C_15  and  C_18
REMARK                            x       y       z     vdW  Elec       q    Type
REMARK                         _______ _______ _______ _____ _____    ______ ____
ROOT
ATOM      1  N   UNL     1       4.601   4.524  17.106  0.00  0.00    +0.000 NA
ATOM      2  C   UNL     1       4.000   5.278  18.219  0.00  0.00    +0.000 C 
ATOM      3  C   UNL     1       2.482   5.468  18.083  0.00  0.00    +0.000 C 
ATOM      4  N   UNL     1       1.862   4.133  18.194  0.00  0.00    +0.000 N 
ATOM      5  C   UNL     1       2.232   3.321  17.009  0.00  0.00    +0.000 C 
ATOM      6  C   UNL     1       3.768   3.364  16.690  0.00  0.00    +0.000 C 
ENDROOT
BRANCH   4   7
ATOM      7  C   UNL     1       1.591   3.636  19.477  0.00  0.00    +0.000 C 
ATOM      8  C   UNL     1       2.269   2.974  20.428  0.00  0.00    +0.000 C 
BRANCH   8   9
ATOM      9  C   UNL     1       3.612   2.554  20.273  0.00  0.00    +0.000 C 
ATOM     10  N   UNL     1       4.719   2.226  20.150  0.00  0.00    +0.000 NA
ENDBRANCH   8   9
BRANCH   8  11
ATOM     11  C   UNL     1       1.595   2.653  21.647  0.00  0.00    +0.000 C 
ATOM     12  N   UNL     1       0.995   2.393  22.606  0.00  0.00    +0.000 NA
ENDBRANCH   8  11
ENDBRANCH   4   7
BRANCH   1  13
ATOM     13  C   UNL     1       5.046   5.396  16.005  0.00  0.00    +0.000 C 
BRANCH  13  14
ATOM     14  C   UNL     1       6.178   4.742  15.162  0.00  0.00    +0.000 C 
BRANCH  14  15
ATOM     15  N   UNL     1       7.459   4.867  15.852  0.00  0.00    +0.000 N 
ATOM     16  H   UNL     1       8.275   4.805  15.235  0.00  0.00    +0.000 HD
BRANCH  15  18
ATOM     17  C   UNL     1       7.719   5.868  18.097  0.00  0.00    +0.000 C 
ATOM     18  C   UNL     1       7.639   4.856  17.214  0.00  0.00    +0.000 C 
BRANCH  17  20
ATOM     19  N   UNL     1       7.556   8.339  17.366  0.00  0.00    +0.000 NA
ATOM     20  C   UNL     1       7.632   7.228  17.695  0.00  0.00    +0.000 C 
ENDBRANCH  17  20
BRANCH  17  21
ATOM     21  C   UNL     1       7.865   5.567  19.481  0.00  0.00    +0.000 C 
ATOM     22  N   UNL     1       7.951   5.303  20.608  0.00  0.00    +0.000 NA
ENDBRANCH  17  21
ENDBRANCH  15  18
ENDBRANCH  14  15
ENDBRANCH  13  14
ENDBRANCH   1  13
TORSDOF 9
ENDMDL
MODEL 2
REMARK VINA RESULT:      -6.1      2.040      6.886
REMARK  Name = 
REMARK  9 active torsions:
REMARK  status: ('A' for Active; 'I' for Inactive)
REMARK    1  A    between atoms: C_2  and  C_3
REMARK    2  A    between atoms: C_3  and  C_4
REMARK    3  A    between atoms: C_6  and  N_7
REMARK    4  A    between atoms: N_7  and  C_8
REMARK    5  A    between atoms: C_8  and  C_9
REMARK    6  A    between atoms: C_9  and  N_10
REMARK    7  A    between atoms: N_13  and  C_14
REMARK    8  A    between atoms: C_15  and  C_16
REMARK    9  A    between atoms: C_15  and  C_18
REMARK                            x       y       z     vdW  Elec       q    Type
REMARK                         _______ _______ _______ _____ _____    ______ ____
ROOT
ATOM      1  N   UNL     1       4.483   4.793  18.370  0.00  0.00    +0.000 NA
ATOM      2  C   UNL     1       4.090   5.354  17.066  0.00  0.00    +0.000 C 
ATOM      3  C   UNL     1       5.225   6.103  16.353  0.00  0.00    +0.000 C 
ATOM      4  N   UNL     1       6.254   5.105  16.004  0.00  0.00    +0.000 N 
ATOM      5  C   UNL     1       6.884   4.595  17.246  0.00  0.00    +0.000 C 
ATOM      6  C   UNL     1       5.837   4.179  18.338  0.00  0.00    +0.000 C 
ENDROOT
BRANCH   4   7
ATOM      7  C   UNL     1       6.100   4.389  14.808  0.00  0.00    +0.000 C 
ATOM      8  C   UNL     1       6.702   4.356  13.608  0.00  0.00    +0.000 C 
BRANCH   8   9
ATOM      9  C   UNL     1       7.776   5.208  13.255  0.00  0.00    +0.000 C 
ATOM     10  N   UNL     1       8.654   5.903  12.950  0.00  0.00    +0.000 NA
ENDBRANCH   8   9
BRANCH   8  11
ATOM     11  C   UNL     1       6.220   3.432  12.630  0.00  0.00    +0.000 C 
ATOM     12  N   UNL     1       5.783   2.721  11.822  0.00  0.00    +0.000 NA
ENDBRANCH   8  11
ENDBRANCH   4   7
BRANCH   1  13
ATOM     13  C   UNL     1       4.251   5.728  19.484  0.00  0.00    +0.000 C 
BRANCH  13  14
ATOM     14  C   UNL     1       3.087   6.717  19.187  0.00  0.00    +0.000 C 
BRANCH  14  15
ATOM     15  N   UNL     1       1.887   6.322  19.918  0.00  0.00    +0.000 N 
ATOM     16  H   UNL     1       1.143   7.026  19.915  0.00  0.00    +0.000 HD
BRANCH  15  18
ATOM     17  C   UNL     1       1.517   3.933  20.439  0.00  0.00    +0.000 C 
ATOM     18  C   UNL     1       1.772   5.222  20.733  0.00  0.00    +0.000 C 
BRANCH  17  20
ATOM     19  N   UNL     1       1.120   3.138  18.015  0.00  0.00    +0.000 NA
ATOM     20  C   UNL     1       1.297   3.494  19.106  0.00  0.00    +0.000 C 
ENDBRANCH  17  20
BRANCH  17  21
ATOM     21  C   UNL     1       1.499   2.975  21.492  0.00  0.00    +0.000 C 
ATOM     22  N   UNL     1       1.453   2.180  22.336  0.00  0.00    +0.000 NA
ENDBRANCH  17  21
ENDBRANCH  15  18
ENDBRANCH  14  15
ENDBRANCH  13  14
ENDBRANCH   1  13
TORSDOF 9
ENDMDL
MODEL 3
REMARK VINA RESULT:      -6.1      1.742      3.338
REMARK  Name = 
REMARK  9 active torsions:
REMARK  status: ('A' for Active; 'I' for Inactive)
REMARK    1  A    between atoms: C_2  and  C_3
REMARK    2  A    between atoms: C_3  and  C_4
REMARK    3  A    between atoms: C_6  and  N_7
REMARK    4  A    between atoms: N_7  and  C_8
REMARK    5  A    between atoms: C_8  and  C_9
REMARK    6  A    between atoms: C_9  and  N_10
REMARK    7  A    between atoms: N_13  and  C_14
REMARK    8  A    between atoms: C_15  and  C_16
REMARK    9  A    between atoms: C_15  and  C_18
REMARK                            x       y       z     vdW  Elec       q    Type
REMARK                         _______ _______ _______ _____ _____    ______ ____
ROOT
ATOM      1  N   UNL     1       4.874   5.082  17.607  0.00  0.00    +0.000 NA
ATOM      2  C   UNL     1       4.045   5.710  18.650  0.00  0.00    +0.000 C 
ATOM      3  C   UNL     1       2.547   5.726  18.315  0.00  0.00    +0.000 C 
ATOM      4  N   UNL     1       2.087   4.323  18.305  0.00  0.00    +0.000 N 
ATOM      5  C   UNL     1       2.704   3.613  17.158  0.00  0.00    +0.000 C 
ATOM      6  C   UNL     1       4.252   3.851  17.051  0.00  0.00    +0.000 C 
ENDROOT
BRANCH   4   7
ATOM      7  C   UNL     1       1.714   3.742  19.525  0.00  0.00    +0.000 C 
ATOM      8  C   UNL     1       2.304   2.986  20.464  0.00  0.00    +0.000 C 
BRANCH   8   9
ATOM      9  C   UNL     1       3.641   2.531  20.366  0.00  0.00    +0.000 C 
ATOM     10  N   UNL     1       4.732   2.145  20.277  0.00  0.00    +0.000 NA
ENDBRANCH   8   9
BRANCH   8  11
ATOM     11  C   UNL     1       1.539   2.601  21.608  0.00  0.00    +0.000 C 
ATOM     12  N   UNL     1       0.961   2.310  22.573  0.00  0.00    +0.000 NA
ENDBRANCH   8  11
ENDBRANCH   4   7
BRANCH   1  13
ATOM     13  C   UNL     1       5.349   6.048  16.601  0.00  0.00    +0.000 C 
BRANCH  13  14
ATOM     14  C   UNL     1       6.899   6.179  16.600  0.00  0.00    +0.000 C 
BRANCH  14  15
ATOM     15  N   UNL     1       7.498   5.101  15.819  0.00  0.00    +0.000 N 
ATOM     16  H   UNL     1       8.508   4.997  15.953  0.00  0.00    +0.000 HD
BRANCH  15  18
ATOM     17  C   UNL     1       6.978   4.486  13.481  0.00  0.00    +0.000 C 
ATOM     18  C   UNL     1       6.874   4.394  14.820  0.00  0.00    +0.000 C 
BRANCH  17  20
ATOM     19  N   UNL     1       8.520   6.217  12.345  0.00  0.00    +0.000 NA
ATOM     20  C   UNL     1       7.828   5.437  12.856  0.00  0.00    +0.000 C 
ENDBRANCH  17  20
BRANCH  17  21
ATOM     21  C   UNL     1       6.238   3.584  12.667  0.00  0.00    +0.000 C 
ATOM     22  N   UNL     1       5.611   2.875  11.994  0.00  0.00    +0.000 NA
ENDBRANCH  17  21
ENDBRANCH  15  18
ENDBRANCH  14  15
ENDBRANCH  13  14
ENDBRANCH   1  13
TORSDOF 9
ENDMDL
MODEL 4
REMARK VINA RESULT:      -6.1      2.088      3.973
REMARK  Name = 
REMARK  9 active torsions:
REMARK  status: ('A' for Active; 'I' for Inactive)
REMARK    1  A    between atoms: C_2  and  C_3
REMARK    2  A    between atoms: C_3  and  C_4
REMARK    3  A    between atoms: C_6  and  N_7
REMARK    4  A    between atoms: N_7  and  C_8
REMARK    5  A    between atoms: C_8  and  C_9
REMARK    6  A    between atoms: C_9  and  N_10
REMARK    7  A    between atoms: N_13  and  C_14
REMARK    8  A    between atoms: C_15  and  C_16
REMARK    9  A    between atoms: C_15  and  C_18
REMARK                            x       y       z     vdW  Elec       q    Type
REMARK                         _______ _______ _______ _____ _____    ______ ____
ROOT
ATOM      1  N   UNL     1       4.544   5.929  17.464  0.00  0.00    +0.000 NA
ATOM      2  C   UNL     1       3.630   4.780  17.341  0.00  0.00    +0.000 C 
ATOM      3  C   UNL     1       4.284   3.436  17.694  0.00  0.00    +0.000 C 
ATOM      4  N   UNL     1       4.605   3.471  19.134  0.00  0.00    +0.000 N 
ATOM      5  C   UNL     1       5.678   4.467  19.373  0.00  0.00    +0.000 C 
ATOM      6  C   UNL     1       5.401   5.846  18.676  0.00  0.00    +0.000 C 
ENDROOT
BRANCH   4   7
ATOM      7  C   UNL     1       3.599   3.114  20.043  0.00  0.00    +0.000 C 
ATOM      8  C   UNL     1       2.569   3.729  20.646  0.00  0.00    +0.000 C 
BRANCH   8   9
ATOM      9  C   UNL     1       2.272   5.102  20.466  0.00  0.00    +0.000 C 
ATOM     10  N   UNL     1       2.031   6.229  20.336  0.00  0.00    +0.000 NA
ENDBRANCH   8   9
BRANCH   8  11
ATOM     11  C   UNL     1       1.745   2.968  21.532  0.00  0.00    +0.000 C 
ATOM     12  N   UNL     1       1.111   2.301  22.241  0.00  0.00    +0.000 NA
ENDBRANCH   8  11
ENDBRANCH   4   7
BRANCH   1  13
ATOM     13  C   UNL     1       5.264   6.218  16.212  0.00  0.00    +0.000 C 
BRANCH  13  14
ATOM     14  C   UNL     1       6.796   5.987  16.351  0.00  0.00    +0.000 C 
BRANCH  14  15
ATOM     15  N   UNL     1       7.162   4.680  15.814  0.00  0.00    +0.000 N 
ATOM     16  H   UNL     1       8.037   4.303  16.188  0.00  0.00    +0.000 HD
BRANCH  15  18
ATOM     17  C   UNL     1       6.719   4.216  13.426  0.00  0.00    +0.000 C 
ATOM     18  C   UNL     1       6.556   4.053  14.752  0.00  0.00    +0.000 C 
BRANCH  17  20
ATOM     19  N   UNL     1       8.366   5.952  12.457  0.00  0.00    +0.000 NA
ATOM     20  C   UNL     1       7.626   5.170  12.891  0.00  0.00    +0.000 C 
ENDBRANCH  17  20
BRANCH  17  21
ATOM     21  C   UNL     1       5.983   3.388  12.532  0.00  0.00    +0.000 C 
ATOM     22  N   UNL     1       5.378   2.742  11.782  0.00  0.00    +0.000 NA
ENDBRANCH  17  21
ENDBRANCH  15  18
ENDBRANCH  14  15
ENDBRANCH  13  14
ENDBRANCH   1  13
TORSDOF 9
ENDMDL
MODEL 5
REMARK VINA RESULT:      -6.0      1.112      2.489
REMARK  Name = 
REMARK  9 active torsions:
REMARK  status: ('A' for Active; 'I' for Inactive)
REMARK    1  A    between atoms: C_2  and  C_3
REMARK    2  A    between atoms: C_3  and  C_4
REMARK    3  A    between atoms: C_6  and  N_7
REMARK    4  A    between atoms: N_7  and  C_8
REMARK    5  A    between atoms: C_8  and  C_9
REMARK    6  A    between atoms: C_9  and  N_10
REMARK    7  A    between atoms: N_13  and  C_14
REMARK    8  A    between atoms: C_15  and  C_16
REMARK    9  A    between atoms: C_15  and  C_18
REMARK                            x       y       z     vdW  Elec       q    Type
REMARK                         _______ _______ _______ _____ _____    ______ ____
ROOT
ATOM      1  N   UNL     1       4.019   4.610  16.736  0.00  0.00    +0.000 NA
ATOM      2  C   UNL     1       4.315   3.450  17.594  0.00  0.00    +0.000 C 
ATOM      3  C   UNL     1       5.078   3.814  18.876  0.00  0.00    +0.000 C 
ATOM      4  N   UNL     1       4.173   4.634  19.704  0.00  0.00    +0.000 N 
ATOM      5  C   UNL     1       3.945   5.940  19.038  0.00  0.00    +0.000 C 
ATOM      6  C   UNL     1       3.579   5.796  17.518  0.00  0.00    +0.000 C 
ENDROOT
BRANCH   4   7
ATOM      7  C   UNL     1       3.264   3.972  20.543  0.00  0.00    +0.000 C 
ATOM      8  C   UNL     1       2.079   3.357  20.402  0.00  0.00    +0.000 C 
BRANCH   8   9
ATOM      9  C   UNL     1       1.391   3.273  19.167  0.00  0.00    +0.000 C 
ATOM     10  N   UNL     1       0.834   3.189  18.153  0.00  0.00    +0.000 NA
ENDBRANCH   8   9
BRANCH   8  11
ATOM     11  C   UNL     1       1.469   2.780  21.559  0.00  0.00    +0.000 C 
ATOM     12  N   UNL     1       0.976   2.257  22.471  0.00  0.00    +0.000 NA
ENDBRANCH   8  11
ENDBRANCH   4   7
BRANCH   1  13
ATOM     13  C   UNL     1       5.080   4.874  15.750  0.00  0.00    +0.000 C 
BRANCH  13  14
ATOM     14  C   UNL     1       6.282   3.899  15.908  0.00  0.00    +0.000 C 
BRANCH  14  15
ATOM     15  N   UNL     1       7.433   4.600  16.469  0.00  0.00    +0.000 N 
ATOM     16  H   UNL     1       8.161   3.982  16.839  0.00  0.00    +0.000 HD
BRANCH  15  18
ATOM     17  C   UNL     1       7.685   6.632  17.855  0.00  0.00    +0.000 C 
ATOM     18  C   UNL     1       7.509   5.951  16.708  0.00  0.00    +0.000 C 
BRANCH  17  20
ATOM     19  N   UNL     1       7.925   5.433  20.130  0.00  0.00    +0.000 NA
ATOM     20  C   UNL     1       7.818   5.974  19.108  0.00  0.00    +0.000 C 
ENDBRANCH  17  20
BRANCH  17  21
ATOM     21  C   UNL     1       7.773   8.051  17.810  0.00  0.00    +0.000 C 
ATOM     22  N   UNL     1       7.809   9.212  17.783  0.00  0.00    +0.000 NA
ENDBRANCH  17  21
ENDBRANCH  15  18
ENDBRANCH  14  15
ENDBRANCH  13  14
ENDBRANCH   1  13
TORSDOF 9
ENDMDL
MODEL 6
REMARK VINA RESULT:      -6.0      2.886      4.979
REMARK  Name = 
REMARK  9 active torsions:
REMARK  status: ('A' for Active; 'I' for Inactive)
REMARK    1  A    between atoms: C_2  and  C_3
REMARK    2  A    between atoms: C_3  and  C_4
REMARK    3  A    between atoms: C_6  and  N_7
REMARK    4  A    between atoms: N_7  and  C_8
REMARK    5  A    between atoms: C_8  and  C_9
REMARK    6  A    between atoms: C_9  and  N_10
REMARK    7  A    between atoms: N_13  and  C_14
REMARK    8  A    between atoms: C_15  and  C_16
REMARK    9  A    between atoms: C_15  and  C_18
REMARK                            x       y       z     vdW  Elec       q    Type
REMARK                         _______ _______ _______ _____ _____    ______ ____
ROOT
ATOM      1  N   UNL     1       5.874   4.556  16.731  0.00  0.00    +0.000 NA
ATOM      2  C   UNL     1       6.119   4.160  18.127  0.00  0.00    +0.000 C 
ATOM      3  C   UNL     1       5.860   5.286  19.139  0.00  0.00    +0.000 C 
ATOM      4  N   UNL     1       4.413   5.574  19.111  0.00  0.00    +0.000 N 
ATOM      5  C   UNL     1       4.058   6.177  17.803  0.00  0.00    +0.000 C 
ATOM      6  C   UNL     1       4.647   5.383  16.582  0.00  0.00    +0.000 C 
ENDROOT
BRANCH   4   7
ATOM      7  C   UNL     1       3.568   4.788  19.908  0.00  0.00    +0.000 C 
ATOM      8  C   UNL     1       2.724   3.763  19.715  0.00  0.00    +0.000 C 
BRANCH   8   9
ATOM      9  C   UNL     1       2.461   3.203  18.442  0.00  0.00    +0.000 C 
ATOM     10  N   UNL     1       2.262   2.742  17.395  0.00  0.00    +0.000 NA
ENDBRANCH   8   9
BRANCH   8  11
ATOM     11  C   UNL     1       2.036   3.224  20.847  0.00  0.00    +0.000 C 
ATOM     12  N   UNL     1       1.464   2.738  21.733  0.00  0.00    +0.000 NA
ENDBRANCH   8  11
ENDBRANCH   4   7
BRANCH   1  13
ATOM     13  C   UNL     1       7.074   5.103  16.075  0.00  0.00    +0.000 C 
BRANCH  13  14
ATOM     14  C   UNL     1       7.040   4.907  14.532  0.00  0.00    +0.000 C 
BRANCH  14  15
ATOM     15  N   UNL     1       6.248   3.730  14.189  0.00  0.00    +0.000 N 
ATOM     16  H   UNL     1       6.560   2.867  14.644  0.00  0.00    +0.000 HD
BRANCH  15  18
ATOM     17  C   UNL     1       5.336   3.091  11.981  0.00  0.00    +0.000 C 
ATOM     18  C   UNL     1       5.298   3.665  13.198  0.00  0.00    +0.000 C 
BRANCH  17  20
ATOM     19  N   UNL     1       7.433   1.863  11.108  0.00  0.00    +0.000 NA
ATOM     20  C   UNL     1       6.492   2.416  11.503  0.00  0.00    +0.000 C 
ENDBRANCH  17  20
BRANCH  17  21
ATOM     21  C   UNL     1       4.175   3.135  11.160  0.00  0.00    +0.000 C 
ATOM     22  N   UNL     1       3.213   3.197  10.512  0.00  0.00    +0.000 NA
ENDBRANCH  17  21
ENDBRANCH  15  18
ENDBRANCH  14  15
ENDBRANCH  13  14
ENDBRANCH   1  13
TORSDOF 9
ENDMDL
MODEL 7
REMARK VINA RESULT:      -5.8      2.721      4.840
REMARK  Name = 
REMARK  9 active torsions:
REMARK  status: ('A' for Active; 'I' for Inactive)
REMARK    1  A    between atoms: C_2  and  C_3
REMARK    2  A    between atoms: C_3  and  C_4
REMARK    3  A    between atoms: C_6  and  N_7
REMARK    4  A    between atoms: N_7  and  C_8
REMARK    5  A    between atoms: C_8  and  C_9
REMARK    6  A    between atoms: C_9  and  N_10
REMARK    7  A    between atoms: N_13  and  C_14
REMARK    8  A    between atoms: C_15  and  C_16
REMARK    9  A    between atoms: C_15  and  C_18
REMARK                            x       y       z     vdW  Elec       q    Type
REMARK                         _______ _______ _______ _____ _____    ______ ____
ROOT
ATOM      1  N   UNL     1       4.277   4.721  16.759  0.00  0.00    +0.000 NA
ATOM      2  C   UNL     1       4.736   3.773  17.787  0.00  0.00    +0.000 C 
ATOM      3  C   UNL     1       5.195   4.451  19.086  0.00  0.00    +0.000 C 
ATOM      4  N   UNL     1       4.006   5.074  19.698  0.00  0.00    +0.000 N 
ATOM      5  C   UNL     1       3.549   6.199  18.846  0.00  0.00    +0.000 C 
ATOM      6  C   UNL     1       3.446   5.816  17.327  0.00  0.00    +0.000 C 
ENDROOT
BRANCH   4   7
ATOM      7  C   UNL     1       3.188   4.277  20.512  0.00  0.00    +0.000 C 
ATOM      8  C   UNL     1       2.118   3.484  20.338  0.00  0.00    +0.000 C 
BRANCH   8   9
ATOM      9  C   UNL     1       1.488   3.294  19.084  0.00  0.00    +0.000 C 
ATOM     10  N   UNL     1       0.974   3.122  18.059  0.00  0.00    +0.000 NA
ENDBRANCH   8   9
BRANCH   8  11
ATOM     11  C   UNL     1       1.572   2.818  21.479  0.00  0.00    +0.000 C 
ATOM     12  N   UNL     1       1.184   2.277  22.430  0.00  0.00    +0.000 NA
ENDBRANCH   8  11
ENDBRANCH   4   7
BRANCH   1  13
ATOM     13  C   UNL     1       5.363   5.164  15.868  0.00  0.00    +0.000 C 
BRANCH  13  14
ATOM     14  C   UNL     1       6.460   4.074  15.696  0.00  0.00    +0.000 C 
BRANCH  14  15
ATOM     15  N   UNL     1       6.603   3.717  14.287  0.00  0.00    +0.000 N 
ATOM     16  H   UNL     1       7.573   3.586  13.984  0.00  0.00    +0.000 HD
BRANCH  15  18
ATOM     17  C   UNL     1       5.520   3.179  12.131  0.00  0.00    +0.000 C 
ATOM     18  C   UNL     1       5.600   3.747  13.348  0.00  0.00    +0.000 C 
BRANCH  17  20
ATOM     19  N   UNL     1       7.443   1.763  11.149  0.00  0.00    +0.000 NA
ATOM     20  C   UNL     1       6.580   2.401  11.591  0.00  0.00    +0.000 C 
ENDBRANCH  17  20
BRANCH  17  21
ATOM     21  C   UNL     1       4.326   3.335  11.373  0.00  0.00    +0.000 C 
ATOM     22  N   UNL     1       3.333   3.471  10.786  0.00  0.00    +0.000 NA
ENDBRANCH  17  21
ENDBRANCH  15  18
ENDBRANCH  14  15
ENDBRANCH  13  14
ENDBRANCH   1  13
TORSDOF 9
ENDMDL
MODEL 8
REMARK VINA RESULT:      -5.7      3.360      6.624
REMARK  Name = 
REMARK  9 active torsions:
REMARK  status: ('A' for Active; 'I' for Inactive)
REMARK    1  A    between atoms: C_2  and  C_3
REMARK    2  A    between atoms: C_3  and  C_4
REMARK    3  A    between atoms: C_6  and  N_7
REMARK    4  A    between atoms: N_7  and  C_8
REMARK    5  A    between atoms: C_8  and  C_9
REMARK    6  A    between atoms: C_9  and  N_10
REMARK    7  A    between atoms: N_13  and  C_14
REMARK    8  A    between atoms: C_15  and  C_16
REMARK    9  A    between atoms: C_15  and  C_18
REMARK                            x       y       z     vdW  Elec       q    Type
REMARK                         _______ _______ _______ _____ _____    ______ ____
ROOT
ATOM      1  N   UNL     1       2.070   3.620  19.066  0.00  0.00    +0.000 NA
ATOM      2  C   UNL     1       1.972   4.398  17.820  0.00  0.00    +0.000 C 
ATOM      3  C   UNL     1       2.992   5.542  17.730  0.00  0.00    +0.000 C 
ATOM      4  N   UNL     1       4.331   4.928  17.649  0.00  0.00    +0.000 N 
ATOM      5  C   UNL     1       4.646   4.266  18.939  0.00  0.00    +0.000 C 
ATOM      6  C   UNL     1       3.479   3.355  19.461  0.00  0.00    +0.000 C 
ENDROOT
BRANCH   4   7
ATOM      7  C   UNL     1       4.801   4.533  16.388  0.00  0.00    +0.000 C 
ATOM      8  C   UNL     1       5.874   4.792  15.623  0.00  0.00    +0.000 C 
BRANCH   8   9
ATOM      9  C   UNL     1       6.898   5.694  16.003  0.00  0.00    +0.000 C 
ATOM     10  N   UNL     1       7.725   6.445  16.316  0.00  0.00    +0.000 NA
ENDBRANCH   8   9
BRANCH   8  11
ATOM     11  C   UNL     1       5.977   4.146  14.353  0.00  0.00    +0.000 C 
ATOM     12  N   UNL     1       6.086   3.573  13.348  0.00  0.00    +0.000 NA
ENDBRANCH   8  11
ENDBRANCH   4   7
BRANCH   1  13
ATOM     13  C   UNL     1       1.214   4.154  20.139  0.00  0.00    +0.000 C 
BRANCH  13  14
ATOM     14  C   UNL     1       1.988   5.125  21.077  0.00  0.00    +0.000 C 
BRANCH  14  15
ATOM     15  N   UNL     1       1.744   6.510  20.685  0.00  0.00    +0.000 N 
ATOM     16  H   UNL     1       2.120   6.757  19.765  0.00  0.00    +0.000 HD
BRANCH  15  18
ATOM     17  C   UNL     1       0.876   8.761  21.226  0.00  0.00    +0.000 C 
ATOM     18  C   UNL     1       1.256   7.500  21.503  0.00  0.00    +0.000 C 
BRANCH  17  20
ATOM     19  N   UNL     1       1.006   9.736  18.839  0.00  0.00    +0.000 NA
ATOM     20  C   UNL     1       0.950   9.298  19.913  0.00  0.00    +0.000 C 
ENDBRANCH  17  20
BRANCH  17  21
ATOM     21  C   UNL     1       0.356   9.571  22.274  0.00  0.00    +0.000 C 
ATOM     22  N   UNL     1      -0.037  10.253  23.128  0.00  0.00    +0.000 NA
ENDBRANCH  17  21
ENDBRANCH  15  18
ENDBRANCH  14  15
ENDBRANCH  13  14
ENDBRANCH   1  13
TORSDOF 9
ENDMDL
MODEL 9
REMARK VINA RESULT:      -5.7      2.654      6.196
REMARK  Name = 
REMARK  9 active torsions:
REMARK  status: ('A' for Active; 'I' for Inactive)
REMARK    1  A    between atoms: C_2  and  C_3
REMARK    2  A    between atoms: C_3  and  C_4
REMARK    3  A    between atoms: C_6  and  N_7
REMARK    4  A    between atoms: N_7  and  C_8
REMARK    5  A    between atoms: C_8  and  C_9
REMARK    6  A    between atoms: C_9  and  N_10
REMARK    7  A    between atoms: N_13  and  C_14
REMARK    8  A    between atoms: C_15  and  C_16
REMARK    9  A    between atoms: C_15  and  C_18
REMARK                            x       y       z     vdW  Elec       q    Type
REMARK                         _______ _______ _______ _____ _____    ______ ____
ROOT
ATOM      1  N   UNL     1       3.050   2.655  19.212  0.00  0.00    +0.000 NA
ATOM      2  C   UNL     1       2.514   2.947  17.872  0.00  0.00    +0.000 C 
ATOM      3  C   UNL     1       2.641   4.423  17.469  0.00  0.00    +0.000 C 
ATOM      4  N   UNL     1       4.081   4.717  17.337  0.00  0.00    +0.000 N 
ATOM      5  C   UNL     1       4.720   4.653  18.674  0.00  0.00    +0.000 C 
ATOM      6  C   UNL     1       4.331   3.361  19.477  0.00  0.00    +0.000 C 
ENDROOT
BRANCH   4   7
ATOM      7  C   UNL     1       4.705   4.425  16.115  0.00  0.00    +0.000 C 
ATOM      8  C   UNL     1       5.864   4.739  15.514  0.00  0.00    +0.000 C 
BRANCH   8   9
ATOM      9  C   UNL     1       6.830   5.596  16.092  0.00  0.00    +0.000 C 
ATOM     10  N   UNL     1       7.613   6.313  16.563  0.00  0.00    +0.000 NA
ENDBRANCH   8   9
BRANCH   8  11
ATOM     11  C   UNL     1       6.125   4.200  14.216  0.00  0.00    +0.000 C 
ATOM     12  N   UNL     1       6.380   3.727  13.186  0.00  0.00    +0.000 NA
ENDBRANCH   8  11
ENDBRANCH   4   7
BRANCH   1  13
ATOM     13  C   UNL     1       2.036   2.788  20.272  0.00  0.00    +0.000 C 
BRANCH  13  14
ATOM     14  C   UNL     1       2.243   4.075  21.122  0.00  0.00    +0.000 C 
BRANCH  14  15
ATOM     15  N   UNL     1       1.554   5.205  20.506  0.00  0.00    +0.000 N 
ATOM     16  H   UNL     1       1.285   5.051  19.530  0.00  0.00    +0.000 HD
BRANCH  15  18
ATOM     17  C   UNL     1       1.649   7.676  20.512  0.00  0.00    +0.000 C 
ATOM     18  C   UNL     1       1.433   6.461  21.050  0.00  0.00    +0.000 C 
BRANCH  17  20
ATOM     19  N   UNL     1       2.458   7.970  18.077  0.00  0.00    +0.000 NA
ATOM     20  C   UNL     1       2.092   7.837  19.171  0.00  0.00    +0.000 C 
ENDBRANCH  17  20
BRANCH  17  21
ATOM     21  C   UNL     1       1.398   8.834  21.298  0.00  0.00    +0.000 C 
ATOM     22  N   UNL     1       1.185   9.799  21.909  0.00  0.00    +0.000 NA
ENDBRANCH  17  21
ENDBRANCH  15  18
ENDBRANCH  14  15
ENDBRANCH  13  14
ENDBRANCH   1  13
TORSDOF 9
ENDMDL
