MODEL 1
REMARK VINA RESULT:      -7.2      0.000      0.000
REMARK  Name = 
REMARK  10 active torsions:
REMARK  status: ('A' for Active; 'I' for Inactive)
REMARK    1  A    between atoms: C_1  and  C_2
REMARK    2  A    between atoms: C_2  and  C_3
REMARK    3  A    between atoms: C_2  and  C_11
REMARK    4  A    between atoms: C_3  and  C_4
REMARK    5  A    between atoms: C_4  and  C_5
REMARK    6  A    between atoms: N_7  and  C_8
REMARK    7  A    between atoms: C_19  and  C_20
REMARK    8  A    between atoms: C_21  and  C_22
REMARK    9  A    between atoms: C_25  and  O_26
REMARK   10  A    between atoms: C_30  and  O_31
REMARK                            x       y       z     vdW  Elec       q    Type
REMARK                         _______ _______ _______ _____ _____    ______ ____
ROOT
ATOM      1  C   UNL     1      -0.069   9.811  20.526  0.00  0.00    +0.000 C 
ATOM      2  C   UNL     1      -0.256   9.175  21.932  0.00  0.00    +0.000 C 
ATOM      3  C   UNL     1      -0.550  10.326  22.891  0.00  0.00    +0.000 C 
ATOM      4  C   UNL     1      -1.254  11.310  21.971  0.00  0.00    +0.000 C 
ATOM      5  C   UNL     1      -1.580  12.702  22.500  0.00  0.00    +0.000 C 
ATOM      6  C   UNL     1      -2.372  13.461  21.387  0.00  0.00    +0.000 C 
ATOM      7  C   UNL     1      -1.708  13.371  19.980  0.00  0.00    +0.000 C 
ATOM      8  C   UNL     1      -1.199  11.968  19.593  0.00  0.00    +0.000 C 
ATOM      9  C   UNL     1      -0.354  11.342  20.716  0.00  0.00    +0.000 C 
ATOM     10  C   UNL     1       0.918  12.196  20.879  0.00  0.00    +0.000 C 
ATOM     11  C   UNL     1      -2.710  14.923  21.852  0.00  0.00    +0.000 C 
ATOM     12  C   UNL     1      -1.417  15.742  22.115  0.00  0.00    +0.000 C 
ATOM     13  C   UNL     1      -3.512  15.706  20.773  0.00  0.00    +0.000 C 
ATOM     14  C   UNL     1      -4.937  15.204  20.573  0.00  0.00    +0.000 C 
ATOM     15  C   UNL     1      -5.706  15.232  21.888  0.00  0.00    +0.000 C 
ATOM     16  C   UNL     1      -4.996  14.375  22.938  0.00  0.00    +0.000 C 
ATOM     17  C   UNL     1      -3.552  14.857  23.173  0.00  0.00    +0.000 C 
ATOM     18  C   UNL     1      -2.865  14.029  24.281  0.00  0.00    +0.000 C 
ATOM     19  C   UNL     1      -2.333  12.663  23.845  0.00  0.00    +0.000 C 
ENDROOT
BRANCH   1  21
ATOM     20  C   UNL     1       0.894   9.379  18.238  0.00  0.00    +0.000 C 
ATOM     21  C   UNL     1       1.206   9.354  19.744  0.00  0.00    +0.000 C 
BRANCH  21  22
ATOM     22  C   UNL     1       1.801   7.977  20.142  0.00  0.00    +0.000 C 
BRANCH  22  23
ATOM     23  C   UNL     1       2.543   7.192  19.061  0.00  0.00    +0.000 C 
BRANCH  23  24
ATOM     24  C   UNL     1       3.174   5.867  19.491  0.00  0.00    +0.000 C 
ATOM     25  O   UNL     1       4.356   5.571  19.387  0.00  0.00    +0.000 OA
ATOM     26  N   UNL     1       2.202   5.031  20.038  0.00  0.00    +0.000 N 
ATOM     27  H   UNL     1       1.240   5.357  20.043  0.00  0.00    +0.000 HD
BRANCH  26  28
ATOM     28  C   UNL     1       2.439   3.679  20.420  0.00  0.00    +0.000 C 
ATOM     29  C   UNL     1       1.963   3.123  21.731  0.00  0.00    +0.000 C 
ATOM     30  C   UNL     1       1.280   2.713  20.461  0.00  0.00    +0.000 C 
ENDBRANCH  26  28
ENDBRANCH  23  24
ENDBRANCH  22  23
ENDBRANCH  21  22
ENDBRANCH   1  21
BRANCH  15  31
ATOM     31  O   UNL     1      -7.027  14.754  21.687  0.00  0.00    +0.000 OA
ATOM     32  H   UNL     1      -7.577  15.496  21.384  0.00  0.00    +0.000 HD
ENDBRANCH  15  31
BRANCH  19  33
ATOM     33  O   UNL     1      -3.397  11.714  23.850  0.00  0.00    +0.000 OA
ATOM     34  H   UNL     1      -3.365  11.200  23.029  0.00  0.00    +0.000 HD
ENDBRANCH  19  33
TORSDOF 7
ENDMDL
MODEL 2
REMARK VINA RESULT:      -7.1      2.188      3.015
REMARK  Name = 
REMARK  10 active torsions:
REMARK  status: ('A' for Active; 'I' for Inactive)
REMARK    1  A    between atoms: C_1  and  C_2
REMARK    2  A    between atoms: C_2  and  C_3
REMARK    3  A    between atoms: C_2  and  C_11
REMARK    4  A    between atoms: C_3  and  C_4
REMARK    5  A    between atoms: C_4  and  C_5
REMARK    6  A    between atoms: N_7  and  C_8
REMARK    7  A    between atoms: C_19  and  C_20
REMARK    8  A    between atoms: C_21  and  C_22
REMARK    9  A    between atoms: C_25  and  O_26
REMARK   10  A    between atoms: C_30  and  O_31
REMARK                            x       y       z     vdW  Elec       q    Type
REMARK                         _______ _______ _______ _____ _____    ______ ____
ROOT
ATOM      1  C   UNL     1       1.055   8.664  19.896  0.00  0.00    +0.000 C 
ATOM      2  C   UNL     1       1.384   8.421  21.395  0.00  0.00    +0.000 C 
ATOM      3  C   UNL     1       1.002   9.701  22.135  0.00  0.00    +0.000 C 
ATOM      4  C   UNL     1      -0.144  10.211  21.278  0.00  0.00    +0.000 C 
ATOM      5  C   UNL     1      -0.724  11.589  21.575  0.00  0.00    +0.000 C 
ATOM      6  C   UNL     1      -1.932  11.816  20.610  0.00  0.00    +0.000 C 
ATOM      7  C   UNL     1      -1.611  11.485  19.121  0.00  0.00    +0.000 C 
ATOM      8  C   UNL     1      -0.826  10.175  18.906  0.00  0.00    +0.000 C 
ATOM      9  C   UNL     1       0.397  10.087  19.836  0.00  0.00    +0.000 C 
ATOM     10  C   UNL     1       1.374  11.208  19.435  0.00  0.00    +0.000 C 
ATOM     11  C   UNL     1      -2.557  13.239  20.837  0.00  0.00    +0.000 C 
ATOM     12  C   UNL     1      -1.526  14.361  20.530  0.00  0.00    +0.000 C 
ATOM     13  C   UNL     1      -3.774  13.496  19.902  0.00  0.00    +0.000 C 
ATOM     14  C   UNL     1      -5.003  12.661  20.239  0.00  0.00    +0.000 C 
ATOM     15  C   UNL     1      -5.425  12.886  21.685  0.00  0.00    +0.000 C 
ATOM     16  C   UNL     1      -4.280  12.532  22.637  0.00  0.00    +0.000 C 
ATOM     17  C   UNL     1      -3.019  13.363  22.330  0.00  0.00    +0.000 C 
ATOM     18  C   UNL     1      -1.889  13.047  23.335  0.00  0.00    +0.000 C 
ATOM     19  C   UNL     1      -1.106  11.764  23.058  0.00  0.00    +0.000 C 
ENDROOT
BRANCH   1  21
ATOM     20  C   UNL     1       1.613   8.322  17.463  0.00  0.00    +0.000 C 
ATOM     21  C   UNL     1       2.193   8.296  18.888  0.00  0.00    +0.000 C 
BRANCH  21  22
ATOM     22  C   UNL     1       2.928   6.954  19.140  0.00  0.00    +0.000 C 
BRANCH  22  23
ATOM     23  C   UNL     1       2.868   5.899  18.035  0.00  0.00    +0.000 C 
BRANCH  23  24
ATOM     24  C   UNL     1       4.196   5.529  17.373  0.00  0.00    +0.000 C 
ATOM     25  O   UNL     1       4.375   4.592  16.607  0.00  0.00    +0.000 OA
ATOM     26  N   UNL     1       5.189   6.426  17.759  0.00  0.00    +0.000 N 
ATOM     27  H   UNL     1       4.946   7.147  18.432  0.00  0.00    +0.000 HD
BRANCH  26  28
ATOM     28  C   UNL     1       6.565   6.285  17.417  0.00  0.00    +0.000 C 
ATOM     29  C   UNL     1       7.540   7.419  17.540  0.00  0.00    +0.000 C 
ATOM     30  C   UNL     1       7.599   6.284  18.517  0.00  0.00    +0.000 C 
ENDBRANCH  26  28
ENDBRANCH  23  24
ENDBRANCH  22  23
ENDBRANCH  21  22
ENDBRANCH   1  21
BRANCH  15  31
ATOM     31  O   UNL     1      -6.564  12.095  21.986  0.00  0.00    +0.000 OA
ATOM     32  H   UNL     1      -6.692  12.098  22.950  0.00  0.00    +0.000 HD
ENDBRANCH  15  31
BRANCH  19  33
ATOM     33  O   UNL     1      -1.823  10.646  23.575  0.00  0.00    +0.000 OA
ATOM     34  H   UNL     1      -1.332   9.835  23.374  0.00  0.00    +0.000 HD
ENDBRANCH  19  33
TORSDOF 7
ENDMDL
MODEL 3
REMARK VINA RESULT:      -7.1      1.724      2.039
REMARK  Name = 
REMARK  10 active torsions:
REMARK  status: ('A' for Active; 'I' for Inactive)
REMARK    1  A    between atoms: C_1  and  C_2
REMARK    2  A    between atoms: C_2  and  C_3
REMARK    3  A    between atoms: C_2  and  C_11
REMARK    4  A    between atoms: C_3  and  C_4
REMARK    5  A    between atoms: C_4  and  C_5
REMARK    6  A    between atoms: N_7  and  C_8
REMARK    7  A    between atoms: C_19  and  C_20
REMARK    8  A    between atoms: C_21  and  C_22
REMARK    9  A    between atoms: C_25  and  O_26
REMARK   10  A    between atoms: C_30  and  O_31
REMARK                            x       y       z     vdW  Elec       q    Type
REMARK                         _______ _______ _______ _____ _____    ______ ____
ROOT
ATOM      1  C   UNL     1       0.965   8.838  19.853  0.00  0.00    +0.000 C 
ATOM      2  C   UNL     1       1.330   8.609  21.346  0.00  0.00    +0.000 C 
ATOM      3  C   UNL     1       0.948   9.889  22.085  0.00  0.00    +0.000 C 
ATOM      4  C   UNL     1      -0.223  10.379  21.250  0.00  0.00    +0.000 C 
ATOM      5  C   UNL     1      -0.814  11.752  21.551  0.00  0.00    +0.000 C 
ATOM      6  C   UNL     1      -2.045  11.957  20.612  0.00  0.00    +0.000 C 
ATOM      7  C   UNL     1      -1.753  11.619  19.118  0.00  0.00    +0.000 C 
ATOM      8  C   UNL     1      -0.956  10.318  18.894  0.00  0.00    +0.000 C 
ATOM      9  C   UNL     1       0.288  10.252  19.798  0.00  0.00    +0.000 C 
ATOM     10  C   UNL     1       1.241  11.383  19.368  0.00  0.00    +0.000 C 
ATOM     11  C   UNL     1      -2.683  13.374  20.843  0.00  0.00    +0.000 C 
ATOM     12  C   UNL     1      -1.674  14.506  20.506  0.00  0.00    +0.000 C 
ATOM     13  C   UNL     1      -3.924  13.609  19.933  0.00  0.00    +0.000 C 
ATOM     14  C   UNL     1      -5.134  12.761  20.303  0.00  0.00    +0.000 C 
ATOM     15  C   UNL     1      -5.527  12.991  21.757  0.00  0.00    +0.000 C 
ATOM     16  C   UNL     1      -4.357  12.658  22.685  0.00  0.00    +0.000 C 
ATOM     17  C   UNL     1      -3.114  13.502  22.345  0.00  0.00    +0.000 C 
ATOM     18  C   UNL     1      -1.958  13.207  23.327  0.00  0.00    +0.000 C 
ATOM     19  C   UNL     1      -1.165  11.932  23.041  0.00  0.00    +0.000 C 
ENDROOT
BRANCH   1  21
ATOM     20  C   UNL     1       1.523   8.662  17.402  0.00  0.00    +0.000 C 
ATOM     21  C   UNL     1       2.085   8.478  18.822  0.00  0.00    +0.000 C 
BRANCH  21  22
ATOM     22  C   UNL     1       2.724   7.071  18.964  0.00  0.00    +0.000 C 
BRANCH  22  23
ATOM     23  C   UNL     1       3.774   6.667  17.929  0.00  0.00    +0.000 C 
BRANCH  23  24
ATOM     24  C   UNL     1       3.717   5.224  17.427  0.00  0.00    +0.000 C 
ATOM     25  O   UNL     1       4.520   4.699  16.668  0.00  0.00    +0.000 OA
ATOM     26  N   UNL     1       2.611   4.573  17.968  0.00  0.00    +0.000 N 
ATOM     27  H   UNL     1       1.982   5.110  18.558  0.00  0.00    +0.000 HD
BRANCH  26  28
ATOM     28  C   UNL     1       2.203   3.258  17.602  0.00  0.00    +0.000 C 
ATOM     29  C   UNL     1       2.875   2.031  18.144  0.00  0.00    +0.000 C 
ATOM     30  C   UNL     1       1.501   2.395  18.622  0.00  0.00    +0.000 C 
ENDBRANCH  26  28
ENDBRANCH  23  24
ENDBRANCH  22  23
ENDBRANCH  21  22
ENDBRANCH   1  21
BRANCH  15  31
ATOM     31  O   UNL     1      -6.650  12.188  22.088  0.00  0.00    +0.000 OA
ATOM     32  H   UNL     1      -6.367  11.258  22.100  0.00  0.00    +0.000 HD
ENDBRANCH  15  31
BRANCH  19  33
ATOM     33  O   UNL     1      -1.857  10.809  23.581  0.00  0.00    +0.000 OA
ATOM     34  H   UNL     1      -1.409   9.997  23.298  0.00  0.00    +0.000 HD
ENDBRANCH  19  33
TORSDOF 7
ENDMDL
MODEL 4
REMARK VINA RESULT:      -7.0      1.467      1.838
REMARK  Name = 
REMARK  10 active torsions:
REMARK  status: ('A' for Active; 'I' for Inactive)
REMARK    1  A    between atoms: C_1  and  C_2
REMARK    2  A    between atoms: C_2  and  C_3
REMARK    3  A    between atoms: C_2  and  C_11
REMARK    4  A    between atoms: C_3  and  C_4
REMARK    5  A    between atoms: C_4  and  C_5
REMARK    6  A    between atoms: N_7  and  C_8
REMARK    7  A    between atoms: C_19  and  C_20
REMARK    8  A    between atoms: C_21  and  C_22
REMARK    9  A    between atoms: C_25  and  O_26
REMARK   10  A    between atoms: C_30  and  O_31
REMARK                            x       y       z     vdW  Elec       q    Type
REMARK                         _______ _______ _______ _____ _____    ______ ____
ROOT
ATOM      1  C   UNL     1       1.064   8.656  19.747  0.00  0.00    +0.000 C 
ATOM      2  C   UNL     1       1.423   8.372  21.232  0.00  0.00    +0.000 C 
ATOM      3  C   UNL     1       1.068   9.636  22.013  0.00  0.00    +0.000 C 
ATOM      4  C   UNL     1      -0.091  10.178  21.193  0.00  0.00    +0.000 C 
ATOM      5  C   UNL     1      -0.651  11.553  21.538  0.00  0.00    +0.000 C 
ATOM      6  C   UNL     1      -1.877  11.816  20.605  0.00  0.00    +0.000 C 
ATOM      7  C   UNL     1      -1.590  11.520  19.102  0.00  0.00    +0.000 C 
ATOM      8  C   UNL     1      -0.823  10.209  18.836  0.00  0.00    +0.000 C 
ATOM      9  C   UNL     1       0.418  10.086  19.737  0.00  0.00    +0.000 C 
ATOM     10  C   UNL     1       1.397  11.209  19.345  0.00  0.00    +0.000 C 
ATOM     11  C   UNL     1      -2.484  13.238  20.881  0.00  0.00    +0.000 C 
ATOM     12  C   UNL     1      -1.449  14.357  20.582  0.00  0.00    +0.000 C 
ATOM     13  C   UNL     1      -3.718  13.530  19.979  0.00  0.00    +0.000 C 
ATOM     14  C   UNL     1      -4.947  12.697  20.321  0.00  0.00    +0.000 C 
ATOM     15  C   UNL     1      -5.336  12.889  21.781  0.00  0.00    +0.000 C 
ATOM     16  C   UNL     1      -4.175  12.500  22.699  0.00  0.00    +0.000 C 
ATOM     17  C   UNL     1      -2.913  13.327  22.387  0.00  0.00    +0.000 C 
ATOM     18  C   UNL     1      -1.765  12.976  23.359  0.00  0.00    +0.000 C 
ATOM     19  C   UNL     1      -1.000  11.693  23.033  0.00  0.00    +0.000 C 
ENDROOT
BRANCH   1  21
ATOM     20  C   UNL     1       1.904   9.090  17.412  0.00  0.00    +0.000 C 
ATOM     21  C   UNL     1       2.177   8.305  18.706  0.00  0.00    +0.000 C 
BRANCH  21  22
ATOM     22  C   UNL     1       2.368   6.799  18.385  0.00  0.00    +0.000 C 
BRANCH  22  23
ATOM     23  C   UNL     1       3.790   6.241  18.441  0.00  0.00    +0.000 C 
BRANCH  23  24
ATOM     24  C   UNL     1       3.972   4.905  19.162  0.00  0.00    +0.000 C 
ATOM     25  O   UNL     1       5.036   4.329  19.342  0.00  0.00    +0.000 OA
ATOM     26  N   UNL     1       2.739   4.428  19.601  0.00  0.00    +0.000 N 
ATOM     27  H   UNL     1       1.908   4.963  19.365  0.00  0.00    +0.000 HD
BRANCH  26  28
ATOM     28  C   UNL     1       2.547   3.149  20.197  0.00  0.00    +0.000 C 
ATOM     29  C   UNL     1       2.354   2.975  21.676  0.00  0.00    +0.000 C 
ATOM     30  C   UNL     1       1.188   2.791  20.751  0.00  0.00    +0.000 C 
ENDBRANCH  26  28
ENDBRANCH  23  24
ENDBRANCH  22  23
ENDBRANCH  21  22
ENDBRANCH   1  21
BRANCH  15  31
ATOM     31  O   UNL     1      -6.477  12.101  22.086  0.00  0.00    +0.000 OA
ATOM     32  H   UNL     1      -6.935  12.506  22.841  0.00  0.00    +0.000 HD
ENDBRANCH  15  31
BRANCH  19  33
ATOM     33  O   UNL     1      -1.717  10.569  23.536  0.00  0.00    +0.000 OA
ATOM     34  H   UNL     1      -2.278  10.211  22.831  0.00  0.00    +0.000 HD
ENDBRANCH  19  33
TORSDOF 7
ENDMDL
MODEL 5
REMARK VINA RESULT:      -7.0      1.897      3.029
REMARK  Name = 
REMARK  10 active torsions:
REMARK  status: ('A' for Active; 'I' for Inactive)
REMARK    1  A    between atoms: C_1  and  C_2
REMARK    2  A    between atoms: C_2  and  C_3
REMARK    3  A    between atoms: C_2  and  C_11
REMARK    4  A    between atoms: C_3  and  C_4
REMARK    5  A    between atoms: C_4  and  C_5
REMARK    6  A    between atoms: N_7  and  C_8
REMARK    7  A    between atoms: C_19  and  C_20
REMARK    8  A    between atoms: C_21  and  C_22
REMARK    9  A    between atoms: C_25  and  O_26
REMARK   10  A    between atoms: C_30  and  O_31
REMARK                            x       y       z     vdW  Elec       q    Type
REMARK                         _______ _______ _______ _____ _____    ______ ____
ROOT
ATOM      1  C   UNL     1      -0.115  11.947  19.047  0.00  0.00    +0.000 C 
ATOM      2  C   UNL     1      -1.257  11.678  18.028  0.00  0.00    +0.000 C 
ATOM      3  C   UNL     1      -2.546  11.578  18.840  0.00  0.00    +0.000 C 
ATOM      4  C   UNL     1      -2.240  12.504  20.004  0.00  0.00    +0.000 C 
ATOM      5  C   UNL     1      -3.223  12.568  21.168  0.00  0.00    +0.000 C 
ATOM      6  C   UNL     1      -2.708  13.652  22.168  0.00  0.00    +0.000 C 
ATOM      7  C   UNL     1      -1.196  13.507  22.520  0.00  0.00    +0.000 C 
ATOM      8  C   UNL     1      -0.276  13.224  21.315  0.00  0.00    +0.000 C 
ATOM      9  C   UNL     1      -0.820  12.080  20.442  0.00  0.00    +0.000 C 
ATOM     10  C   UNL     1      -0.784  10.789  21.283  0.00  0.00    +0.000 C 
ATOM     11  C   UNL     1      -3.657  13.746  23.416  0.00  0.00    +0.000 C 
ATOM     12  C   UNL     1      -3.694  12.402  24.195  0.00  0.00    +0.000 C 
ATOM     13  C   UNL     1      -3.183  14.827  24.429  0.00  0.00    +0.000 C 
ATOM     14  C   UNL     1      -3.338  16.257  23.928  0.00  0.00    +0.000 C 
ATOM     15  C   UNL     1      -4.784  16.536  23.537  0.00  0.00    +0.000 C 
ATOM     16  C   UNL     1      -5.243  15.554  22.456  0.00  0.00    +0.000 C 
ATOM     17  C   UNL     1      -5.107  14.095  22.930  0.00  0.00    +0.000 C 
ATOM     18  C   UNL     1      -5.633  13.113  21.859  0.00  0.00    +0.000 C 
ATOM     19  C   UNL     1      -4.671  12.825  20.706  0.00  0.00    +0.000 C 
ENDROOT
BRANCH   1  21
ATOM     20  C   UNL     1       2.267  11.845  18.231  0.00  0.00    +0.000 C 
ATOM     21  C   UNL     1       1.146  11.033  18.903  0.00  0.00    +0.000 C 
BRANCH  21  22
ATOM     22  C   UNL     1       0.940   9.690  18.156  0.00  0.00    +0.000 C 
BRANCH  22  23
ATOM     23  C   UNL     1       2.174   8.818  17.919  0.00  0.00    +0.000 C 
BRANCH  23  24
ATOM     24  C   UNL     1       2.287   7.551  18.766  0.00  0.00    +0.000 C 
ATOM     25  O   UNL     1       2.232   7.500  19.987  0.00  0.00    +0.000 OA
ATOM     26  N   UNL     1       2.455   6.440  17.942  0.00  0.00    +0.000 N 
ATOM     27  H   UNL     1       2.527   6.594  16.941  0.00  0.00    +0.000 HD
BRANCH  26  28
ATOM     28  C   UNL     1       2.716   5.124  18.424  0.00  0.00    +0.000 C 
ATOM     29  C   UNL     1       1.615   4.167  18.776  0.00  0.00    +0.000 C 
ATOM     30  C   UNL     1       2.420   3.942  17.532  0.00  0.00    +0.000 C 
ENDBRANCH  26  28
ENDBRANCH  23  24
ENDBRANCH  22  23
ENDBRANCH  21  22
ENDBRANCH   1  21
BRANCH  15  31
ATOM     31  O   UNL     1      -4.911  17.868  23.065  0.00  0.00    +0.000 OA
ATOM     32  H   UNL     1      -5.566  18.327  23.617  0.00  0.00    +0.000 HD
ENDBRANCH  15  31
BRANCH  19  33
ATOM     33  O   UNL     1      -4.761  13.867  19.738  0.00  0.00    +0.000 OA
ATOM     34  H   UNL     1      -4.936  13.476  18.868  0.00  0.00    +0.000 HD
ENDBRANCH  19  33
TORSDOF 7
ENDMDL
MODEL 6
REMARK VINA RESULT:      -6.9      1.749      2.068
REMARK  Name = 
REMARK  10 active torsions:
REMARK  status: ('A' for Active; 'I' for Inactive)
REMARK    1  A    between atoms: C_1  and  C_2
REMARK    2  A    between atoms: C_2  and  C_3
REMARK    3  A    between atoms: C_2  and  C_11
REMARK    4  A    between atoms: C_3  and  C_4
REMARK    5  A    between atoms: C_4  and  C_5
REMARK    6  A    between atoms: N_7  and  C_8
REMARK    7  A    between atoms: C_19  and  C_20
REMARK    8  A    between atoms: C_21  and  C_22
REMARK    9  A    between atoms: C_25  and  O_26
REMARK   10  A    between atoms: C_30  and  O_31
REMARK                            x       y       z     vdW  Elec       q    Type
REMARK                         _______ _______ _______ _____ _____    ______ ____
ROOT
ATOM      1  C   UNL     1       0.957   8.816  19.946  0.00  0.00    +0.000 C 
ATOM      2  C   UNL     1       1.272   8.562  21.446  0.00  0.00    +0.000 C 
ATOM      3  C   UNL     1       0.863   9.829  22.195  0.00  0.00    +0.000 C 
ATOM      4  C   UNL     1      -0.280  10.331  21.329  0.00  0.00    +0.000 C 
ATOM      5  C   UNL     1      -0.883  11.699  21.634  0.00  0.00    +0.000 C 
ATOM      6  C   UNL     1      -2.082  11.919  20.657  0.00  0.00    +0.000 C 
ATOM      7  C   UNL     1      -1.739  11.607  19.169  0.00  0.00    +0.000 C 
ATOM      8  C   UNL     1      -0.933  10.311  18.949  0.00  0.00    +0.000 C 
ATOM      9  C   UNL     1       0.280  10.230  19.893  0.00  0.00    +0.000 C 
ATOM     10  C   UNL     1       1.245  11.369  19.515  0.00  0.00    +0.000 C 
ATOM     11  C   UNL     1      -2.730  13.330  20.891  0.00  0.00    +0.000 C 
ATOM     12  C   UNL     1      -1.712  14.469  20.608  0.00  0.00    +0.000 C 
ATOM     13  C   UNL     1      -3.940  13.580  19.944  0.00  0.00    +0.000 C 
ATOM     14  C   UNL     1      -5.160  12.724  20.258  0.00  0.00    +0.000 C 
ATOM     15  C   UNL     1      -5.603  12.928  21.702  0.00  0.00    +0.000 C 
ATOM     16  C   UNL     1      -4.464  12.580  22.663  0.00  0.00    +0.000 C 
ATOM     17  C   UNL     1      -3.212  13.432  22.380  0.00  0.00    +0.000 C 
ATOM     18  C   UNL     1      -2.089  13.121  23.395  0.00  0.00    +0.000 C 
ATOM     19  C   UNL     1      -1.284  11.852  23.114  0.00  0.00    +0.000 C 
ENDROOT
BRANCH   1  21
ATOM     20  C   UNL     1       1.672   8.882  17.531  0.00  0.00    +0.000 C 
ATOM     21  C   UNL     1       2.112   8.475  18.948  0.00  0.00    +0.000 C 
BRANCH  21  22
ATOM     22  C   UNL     1       2.611   7.006  18.949  0.00  0.00    +0.000 C 
BRANCH  22  23
ATOM     23  C   UNL     1       2.269   6.145  17.734  0.00  0.00    +0.000 C 
BRANCH  23  24
ATOM     24  C   UNL     1       2.041   4.655  17.995  0.00  0.00    +0.000 C 
ATOM     25  O   UNL     1       1.150   3.973  17.509  0.00  0.00    +0.000 OA
ATOM     26  N   UNL     1       3.011   4.171  18.870  0.00  0.00    +0.000 N 
ATOM     27  H   UNL     1       3.685   4.830  19.249  0.00  0.00    +0.000 HD
BRANCH  26  28
ATOM     28  C   UNL     1       3.006   2.853  19.413  0.00  0.00    +0.000 C 
ATOM     29  C   UNL     1       3.563   1.677  18.664  0.00  0.00    +0.000 C 
ATOM     30  C   UNL     1       4.313   2.229  19.840  0.00  0.00    +0.000 C 
ENDBRANCH  26  28
ENDBRANCH  23  24
ENDBRANCH  22  23
ENDBRANCH  21  22
ENDBRANCH   1  21
BRANCH  15  31
ATOM     31  O   UNL     1      -6.734  12.118  21.981  0.00  0.00    +0.000 OA
ATOM     32  H   UNL     1      -7.157  12.453  22.789  0.00  0.00    +0.000 HD
ENDBRANCH  15  31
BRANCH  19  33
ATOM     33  O   UNL     1      -1.992  10.719  23.611  0.00  0.00    +0.000 OA
ATOM     34  H   UNL     1      -2.212  10.134  22.869  0.00  0.00    +0.000 HD
ENDBRANCH  19  33
TORSDOF 7
ENDMDL
MODEL 7
REMARK VINA RESULT:      -6.8      2.118      2.888
REMARK  Name = 
REMARK  10 active torsions:
REMARK  status: ('A' for Active; 'I' for Inactive)
REMARK    1  A    between atoms: C_1  and  C_2
REMARK    2  A    between atoms: C_2  and  C_3
REMARK    3  A    between atoms: C_2  and  C_11
REMARK    4  A    between atoms: C_3  and  C_4
REMARK    5  A    between atoms: C_4  and  C_5
REMARK    6  A    between atoms: N_7  and  C_8
REMARK    7  A    between atoms: C_19  and  C_20
REMARK    8  A    between atoms: C_21  and  C_22
REMARK    9  A    between atoms: C_25  and  O_26
REMARK   10  A    between atoms: C_30  and  O_31
REMARK                            x       y       z     vdW  Elec       q    Type
REMARK                         _______ _______ _______ _____ _____    ______ ____
ROOT
ATOM      1  C   UNL     1       1.089   8.540  19.791  0.00  0.00    +0.000 C 
ATOM      2  C   UNL     1       1.431   8.274  21.283  0.00  0.00    +0.000 C 
ATOM      3  C   UNL     1       1.088   9.554  22.041  0.00  0.00    +0.000 C 
ATOM      4  C   UNL     1      -0.056  10.100  21.204  0.00  0.00    +0.000 C 
ATOM      5  C   UNL     1      -0.599  11.489  21.522  0.00  0.00    +0.000 C 
ATOM      6  C   UNL     1      -1.814  11.754  20.575  0.00  0.00    +0.000 C 
ATOM      7  C   UNL     1      -1.519  11.430  19.079  0.00  0.00    +0.000 C 
ATOM      8  C   UNL     1      -0.768  10.105  18.840  0.00  0.00    +0.000 C 
ATOM      9  C   UNL     1       0.464   9.978  19.753  0.00  0.00    +0.000 C 
ATOM     10  C   UNL     1       1.462  11.081  19.352  0.00  0.00    +0.000 C 
ATOM     11  C   UNL     1      -2.402  13.189  20.824  0.00  0.00    +0.000 C 
ATOM     12  C   UNL     1      -1.349  14.288  20.516  0.00  0.00    +0.000 C 
ATOM     13  C   UNL     1      -3.625  13.484  19.907  0.00  0.00    +0.000 C 
ATOM     14  C   UNL     1      -4.868  12.674  20.251  0.00  0.00    +0.000 C 
ATOM     15  C   UNL     1      -5.267  12.894  21.705  0.00  0.00    +0.000 C 
ATOM     16  C   UNL     1      -4.119  12.503  22.638  0.00  0.00    +0.000 C 
ATOM     17  C   UNL     1      -2.843  13.307  22.324  0.00  0.00    +0.000 C 
ATOM     18  C   UNL     1      -1.708  12.955  23.312  0.00  0.00    +0.000 C 
ATOM     19  C   UNL     1      -0.958  11.656  23.012  0.00  0.00    +0.000 C 
ENDROOT
BRANCH   1  21
ATOM     20  C   UNL     1       1.936   8.900  17.446  0.00  0.00    +0.000 C 
ATOM     21  C   UNL     1       2.205   8.156  18.765  0.00  0.00    +0.000 C 
BRANCH  21  22
ATOM     22  C   UNL     1       2.398   6.642  18.492  0.00  0.00    +0.000 C 
BRANCH  22  23
ATOM     23  C   UNL     1       3.390   5.887  19.378  0.00  0.00    +0.000 C 
BRANCH  23  24
ATOM     24  C   UNL     1       4.752   5.568  18.760  0.00  0.00    +0.000 C 
ATOM     25  O   UNL     1       5.783   5.346  19.379  0.00  0.00    +0.000 OA
ATOM     26  N   UNL     1       4.654   5.556  17.370  0.00  0.00    +0.000 N 
ATOM     27  H   UNL     1       3.759   5.793  16.952  0.00  0.00    +0.000 HD
BRANCH  26  28
ATOM     28  C   UNL     1       5.770   5.415  16.496  0.00  0.00    +0.000 C 
ATOM     29  C   UNL     1       6.171   4.090  15.916  0.00  0.00    +0.000 C 
ATOM     30  C   UNL     1       5.527   5.118  15.035  0.00  0.00    +0.000 C 
ENDBRANCH  26  28
ENDBRANCH  23  24
ENDBRANCH  22  23
ENDBRANCH  21  22
ENDBRANCH   1  21
BRANCH  15  31
ATOM     31  O   UNL     1      -6.421  12.126  22.013  0.00  0.00    +0.000 OA
ATOM     32  H   UNL     1      -6.512  12.087  22.980  0.00  0.00    +0.000 HD
ENDBRANCH  15  31
BRANCH  19  33
ATOM     33  O   UNL     1      -1.696  10.550  23.526  0.00  0.00    +0.000 OA
ATOM     34  H   UNL     1      -2.426  10.350  22.922  0.00  0.00    +0.000 HD
ENDBRANCH  19  33
TORSDOF 7
ENDMDL
MODEL 8
REMARK VINA RESULT:      -6.8      1.299      1.899
REMARK  Name = 
REMARK  10 active torsions:
REMARK  status: ('A' for Active; 'I' for Inactive)
REMARK    1  A    between atoms: C_1  and  C_2
REMARK    2  A    between atoms: C_2  and  C_3
REMARK    3  A    between atoms: C_2  and  C_11
REMARK    4  A    between atoms: C_3  and  C_4
REMARK    5  A    between atoms: C_4  and  C_5
REMARK    6  A    between atoms: N_7  and  C_8
REMARK    7  A    between atoms: C_19  and  C_20
REMARK    8  A    between atoms: C_21  and  C_22
REMARK    9  A    between atoms: C_25  and  O_26
REMARK   10  A    between atoms: C_30  and  O_31
REMARK                            x       y       z     vdW  Elec       q    Type
REMARK                         _______ _______ _______ _____ _____    ______ ____
ROOT
ATOM      1  C   UNL     1       0.024   9.669  20.504  0.00  0.00    +0.000 C 
ATOM      2  C   UNL     1      -0.155   9.065  21.924  0.00  0.00    +0.000 C 
ATOM      3  C   UNL     1      -0.438  10.237  22.861  0.00  0.00    +0.000 C 
ATOM      4  C   UNL     1      -1.144  11.204  21.926  0.00  0.00    +0.000 C 
ATOM      5  C   UNL     1      -1.460  12.608  22.428  0.00  0.00    +0.000 C 
ATOM      6  C   UNL     1      -2.256  13.348  21.305  0.00  0.00    +0.000 C 
ATOM      7  C   UNL     1      -1.603  13.225  19.895  0.00  0.00    +0.000 C 
ATOM      8  C   UNL     1      -1.103  11.811  19.534  0.00  0.00    +0.000 C 
ATOM      9  C   UNL     1      -0.252  11.205  20.664  0.00  0.00    +0.000 C 
ATOM     10  C   UNL     1       1.024  12.057  20.800  0.00  0.00    +0.000 C 
ATOM     11  C   UNL     1      -2.584  14.820  21.741  0.00  0.00    +0.000 C 
ATOM     12  C   UNL     1      -1.285  15.638  21.978  0.00  0.00    +0.000 C 
ATOM     13  C   UNL     1      -3.391  15.585  20.651  0.00  0.00    +0.000 C 
ATOM     14  C   UNL     1      -4.819  15.085  20.472  0.00  0.00    +0.000 C 
ATOM     15  C   UNL     1      -5.578  15.144  21.792  0.00  0.00    +0.000 C 
ATOM     16  C   UNL     1      -4.865  14.306  22.855  0.00  0.00    +0.000 C 
ATOM     17  C   UNL     1      -3.417  14.786  23.069  0.00  0.00    +0.000 C 
ATOM     18  C   UNL     1      -2.725  13.978  24.190  0.00  0.00    +0.000 C 
ATOM     19  C   UNL     1      -2.203  12.601  23.778  0.00  0.00    +0.000 C 
ENDROOT
BRANCH   1  21
ATOM     20  C   UNL     1       1.018   9.324  18.215  0.00  0.00    +0.000 C 
ATOM     21  C   UNL     1       1.291   9.190  19.723  0.00  0.00    +0.000 C 
BRANCH  21  22
ATOM     22  C   UNL     1       1.801   7.761  20.047  0.00  0.00    +0.000 C 
BRANCH  22  23
ATOM     23  C   UNL     1       2.548   7.012  18.944  0.00  0.00    +0.000 C 
BRANCH  23  24
ATOM     24  C   UNL     1       3.444   5.857  19.391  0.00  0.00    +0.000 C 
ATOM     25  O   UNL     1       3.156   5.010  20.225  0.00  0.00    +0.000 OA
ATOM     26  N   UNL     1       4.652   5.894  18.698  0.00  0.00    +0.000 N 
ATOM     27  H   UNL     1       4.810   6.663  18.054  0.00  0.00    +0.000 HD
BRANCH  26  28
ATOM     28  C   UNL     1       5.753   5.032  18.971  0.00  0.00    +0.000 C 
ATOM     29  C   UNL     1       6.813   4.739  17.949  0.00  0.00    +0.000 C 
ATOM     30  C   UNL     1       7.134   5.625  19.115  0.00  0.00    +0.000 C 
ENDBRANCH  26  28
ENDBRANCH  23  24
ENDBRANCH  22  23
ENDBRANCH  21  22
ENDBRANCH   1  21
BRANCH  15  31
ATOM     31  O   UNL     1      -6.903  14.668  21.611  0.00  0.00    +0.000 OA
ATOM     32  H   UNL     1      -7.461  15.045  22.311  0.00  0.00    +0.000 HD
ENDBRANCH  15  31
BRANCH  19  33
ATOM     33  O   UNL     1      -3.271  11.657  23.811  0.00  0.00    +0.000 OA
ATOM     34  H   UNL     1      -3.856  11.869  24.554  0.00  0.00    +0.000 HD
ENDBRANCH  19  33
TORSDOF 7
ENDMDL
MODEL 9
REMARK VINA RESULT:      -6.7      1.247      1.446
REMARK  Name = 
REMARK  10 active torsions:
REMARK  status: ('A' for Active; 'I' for Inactive)
REMARK    1  A    between atoms: C_1  and  C_2
REMARK    2  A    between atoms: C_2  and  C_3
REMARK    3  A    between atoms: C_2  and  C_11
REMARK    4  A    between atoms: C_3  and  C_4
REMARK    5  A    between atoms: C_4  and  C_5
REMARK    6  A    between atoms: N_7  and  C_8
REMARK    7  A    between atoms: C_19  and  C_20
REMARK    8  A    between atoms: C_21  and  C_22
REMARK    9  A    between atoms: C_25  and  O_26
REMARK   10  A    between atoms: C_30  and  O_31
REMARK                            x       y       z     vdW  Elec       q    Type
REMARK                         _______ _______ _______ _____ _____    ______ ____
ROOT
ATOM      1  C   UNL     1      -0.193  10.078  20.476  0.00  0.00    +0.000 C 
ATOM      2  C   UNL     1      -0.390   9.398  21.859  0.00  0.00    +0.000 C 
ATOM      3  C   UNL     1      -0.691  10.518  22.852  0.00  0.00    +0.000 C 
ATOM      4  C   UNL     1      -1.388  11.531  21.959  0.00  0.00    +0.000 C 
ATOM      5  C   UNL     1      -1.717  12.906  22.530  0.00  0.00    +0.000 C 
ATOM      6  C   UNL     1      -2.500  13.700  21.436  0.00  0.00    +0.000 C 
ATOM      7  C   UNL     1      -1.826  13.655  20.031  0.00  0.00    +0.000 C 
ATOM      8  C   UNL     1      -1.315  12.265  19.604  0.00  0.00    +0.000 C 
ATOM      9  C   UNL     1      -0.478  11.602  20.712  0.00  0.00    +0.000 C 
ATOM     10  C   UNL     1       0.793  12.450  20.912  0.00  0.00    +0.000 C 
ATOM     11  C   UNL     1      -2.841  15.147  21.945  0.00  0.00    +0.000 C 
ATOM     12  C   UNL     1      -1.549  15.956  22.244  0.00  0.00    +0.000 C 
ATOM     13  C   UNL     1      -3.635  15.965  20.886  0.00  0.00    +0.000 C 
ATOM     14  C   UNL     1      -5.058  15.471  20.659  0.00  0.00    +0.000 C 
ATOM     15  C   UNL     1      -5.837  15.457  21.969  0.00  0.00    +0.000 C 
ATOM     16  C   UNL     1      -5.135  14.566  22.997  0.00  0.00    +0.000 C 
ATOM     17  C   UNL     1      -3.693  15.039  23.257  0.00  0.00    +0.000 C 
ATOM     18  C   UNL     1      -3.014  14.175  24.344  0.00  0.00    +0.000 C 
ATOM     19  C   UNL     1      -2.480  12.824  23.867  0.00  0.00    +0.000 C 
ENDROOT
BRANCH   1  21
ATOM     20  C   UNL     1       0.802   9.764  18.182  0.00  0.00    +0.000 C 
ATOM     21  C   UNL     1       1.088   9.645  19.689  0.00  0.00    +0.000 C 
BRANCH  21  22
ATOM     22  C   UNL     1       1.653   8.238  20.015  0.00  0.00    +0.000 C 
BRANCH  22  23
ATOM     23  C   UNL     1       2.414   7.510  18.906  0.00  0.00    +0.000 C 
BRANCH  23  24
ATOM     24  C   UNL     1       2.825   6.066  19.195  0.00  0.00    +0.000 C 
ATOM     25  O   UNL     1       2.522   5.423  20.191  0.00  0.00    +0.000 OA
ATOM     26  N   UNL     1       3.597   5.570  18.148  0.00  0.00    +0.000 N 
ATOM     27  H   UNL     1       3.826   6.200  17.384  0.00  0.00    +0.000 HD
BRANCH  26  28
ATOM     28  C   UNL     1       4.242   4.300  18.166  0.00  0.00    +0.000 C 
ATOM     29  C   UNL     1       3.556   3.048  17.700  0.00  0.00    +0.000 C 
ATOM     30  C   UNL     1       4.636   3.657  16.858  0.00  0.00    +0.000 C 
ENDBRANCH  26  28
ENDBRANCH  23  24
ENDBRANCH  22  23
ENDBRANCH  21  22
ENDBRANCH   1  21
BRANCH  15  31
ATOM     31  O   UNL     1      -7.157  14.987  21.743  0.00  0.00    +0.000 OA
ATOM     32  H   UNL     1      -7.689  15.182  22.532  0.00  0.00    +0.000 HD
ENDBRANCH  15  31
BRANCH  19  33
ATOM     33  O   UNL     1      -3.544  11.876  23.834  0.00  0.00    +0.000 OA
ATOM     34  H   UNL     1      -4.374  12.325  24.055  0.00  0.00    +0.000 HD
ENDBRANCH  19  33
TORSDOF 7
ENDMDL
