MODEL 1
REMARK VINA RESULT:      -7.9      0.000      0.000
REMARK  Name = 
REMARK  9 active torsions:
REMARK  status: ('A' for Active; 'I' for Inactive)
REMARK    1  A    between atoms: C_2  and  C_15
REMARK    2  A    between atoms: N_3  and  C_4
REMARK    3  A    between atoms: C_7  and  O_8
REMARK    4  A    between atoms: O_8  and  C_9
REMARK    5  A    between atoms: C_19  and  C_20
REMARK    6  A    between atoms: C_23  and  O_24
REMARK    7  A    between atoms: O_24  and  C_25
REMARK    8  A    between atoms: C_25  and  C_26
REMARK    9  A    between atoms: C_26  and  O_27
REMARK                            x       y       z     vdW  Elec       q    Type
REMARK                         _______ _______ _______ _____ _____    ______ ____
ROOT
ATOM      1  C   UNL     1       2.077   6.736  19.997  0.00  0.00    +0.000 A 
ATOM      2  C   UNL     1       1.697   5.642  20.775  0.00  0.00    +0.000 A 
ATOM      3  C   UNL     1       2.294   4.406  20.542  0.00  0.00    +0.000 A 
ATOM      4  C   UNL     1       3.259   4.262  19.537  0.00  0.00    +0.000 A 
ATOM      5  C   UNL     1       3.653   5.349  18.736  0.00  0.00    +0.000 A 
ATOM      6  C   UNL     1       3.038   6.586  18.988  0.00  0.00    +0.000 A 
ENDROOT
BRANCH   5   7
ATOM      7  C   UNL     1       4.674   5.220  17.682  0.00  0.00    +0.000 A 
ATOM      8  C   UNL     1       5.542   6.245  17.336  0.00  0.00    +0.000 A 
ATOM      9  N   UNL     1       6.528   6.145  16.423  0.00  0.00    +0.000 NA
ATOM     10  C   UNL     1       6.640   4.961  15.806  0.00  0.00    +0.000 A 
ATOM     11  N   UNL     1       5.851   3.903  16.015  0.00  0.00    +0.000 NA
ATOM     12  C   UNL     1       4.894   4.058  16.955  0.00  0.00    +0.000 A 
BRANCH  10  13
ATOM     13  O   UNL     1       7.627   4.787  14.859  0.00  0.00    +0.000 OA
BRANCH  13  14
ATOM     14  C   UNL     1       7.072   4.562  13.559  0.00  0.00    +0.000 C 
BRANCH  14  15
ATOM     15  C   UNL     1       7.873   5.374  12.548  0.00  0.00    +0.000 C 
BRANCH  15  16
ATOM     16  O   UNL     1       8.975   6.018  13.186  0.00  0.00    +0.000 OA
ATOM     17  H   UNL     1       8.852   5.882  14.143  0.00  0.00    +0.000 HD
ENDBRANCH  15  16
ENDBRANCH  14  15
ENDBRANCH  13  14
ENDBRANCH  10  13
ENDBRANCH   5   7
BRANCH   1  19
ATOM     18  O   UNL     1       1.785   8.951  19.371  0.00  0.00    +0.000 OA
ATOM     19  C   UNL     1       1.470   8.078  20.170  0.00  0.00    +0.000 C 
ATOM     20  N   UNL     1       0.658   8.217  21.280  0.00  0.00    +0.000 N 
ATOM     21  H   UNL     1       0.653   7.458  21.949  0.00  0.00    +0.000 HD
BRANCH  20  22
ATOM     22  C   UNL     1      -0.025   9.390  21.659  0.00  0.00    +0.000 A 
ATOM     23  C   UNL     1      -0.358   9.688  22.978  0.00  0.00    +0.000 A 
ATOM     24  C   UNL     1      -1.042  10.867  23.287  0.00  0.00    +0.000 A 
ATOM     25  C   UNL     1      -1.393  11.768  22.283  0.00  0.00    +0.000 A 
ATOM     26  C   UNL     1      -1.093  11.460  20.958  0.00  0.00    +0.000 A 
ATOM     27  C   UNL     1      -0.386  10.290  20.651  0.00  0.00    +0.000 A 
BRANCH  25  28
ATOM     28  O   UNL     1      -2.094  12.853  22.707  0.00  0.00    +0.000 OA
BRANCH  28  29
ATOM     29  C   UNL     1      -3.451  12.698  23.095  0.00  0.00    +0.000 C 
ATOM     30  F   UNL     1      -3.650  11.835  24.112  0.00  0.00    +0.000 F 
ATOM     31  F   UNL     1      -3.942  13.904  23.455  0.00  0.00    +0.000 F 
ATOM     32  F   UNL     1      -4.158  12.256  22.031  0.00  0.00    +0.000 F 
ENDBRANCH  28  29
ENDBRANCH  25  28
ENDBRANCH  20  22
ENDBRANCH   1  19
TORSDOF 9
ENDMDL
MODEL 2
REMARK VINA RESULT:      -7.8      1.113      1.590
REMARK  Name = 
REMARK  9 active torsions:
REMARK  status: ('A' for Active; 'I' for Inactive)
REMARK    1  A    between atoms: C_2  and  C_15
REMARK    2  A    between atoms: N_3  and  C_4
REMARK    3  A    between atoms: C_7  and  O_8
REMARK    4  A    between atoms: O_8  and  C_9
REMARK    5  A    between atoms: C_19  and  C_20
REMARK    6  A    between atoms: C_23  and  O_24
REMARK    7  A    between atoms: O_24  and  C_25
REMARK    8  A    between atoms: C_25  and  C_26
REMARK    9  A    between atoms: C_26  and  O_27
REMARK                            x       y       z     vdW  Elec       q    Type
REMARK                         _______ _______ _______ _____ _____    ______ ____
ROOT
ATOM      1  C   UNL     1       2.551   6.425  19.665  0.00  0.00    +0.000 A 
ATOM      2  C   UNL     1       2.296   5.303  20.454  0.00  0.00    +0.000 A 
ATOM      3  C   UNL     1       2.970   4.116  20.182  0.00  0.00    +0.000 A 
ATOM      4  C   UNL     1       3.889   4.049  19.126  0.00  0.00    +0.000 A 
ATOM      5  C   UNL     1       4.158   5.164  18.313  0.00  0.00    +0.000 A 
ATOM      6  C   UNL     1       3.465   6.350  18.605  0.00  0.00    +0.000 A 
ENDROOT
BRANCH   5   7
ATOM      7  C   UNL     1       5.127   5.116  17.206  0.00  0.00    +0.000 A 
ATOM      8  C   UNL     1       4.926   4.373  16.052  0.00  0.00    +0.000 A 
ATOM      9  N   UNL     1       5.759   4.352  14.993  0.00  0.00    +0.000 NA
ATOM     10  C   UNL     1       6.866   5.099  15.102  0.00  0.00    +0.000 A 
ATOM     11  N   UNL     1       7.203   5.832  16.167  0.00  0.00    +0.000 NA
ATOM     12  C   UNL     1       6.319   5.828  17.187  0.00  0.00    +0.000 A 
BRANCH  10  13
ATOM     13  O   UNL     1       7.765   5.124  14.056  0.00  0.00    +0.000 OA
BRANCH  13  14
ATOM     14  C   UNL     1       7.097   5.078  12.791  0.00  0.00    +0.000 C 
BRANCH  14  15
ATOM     15  C   UNL     1       7.287   3.686  12.199  0.00  0.00    +0.000 C 
BRANCH  15  16
ATOM     16  O   UNL     1       6.128   2.885  12.426  0.00  0.00    +0.000 OA
ATOM     17  H   UNL     1       5.810   2.611  11.545  0.00  0.00    +0.000 HD
ENDBRANCH  15  16
ENDBRANCH  14  15
ENDBRANCH  13  14
ENDBRANCH  10  13
ENDBRANCH   5   7
BRANCH   1  19
ATOM     18  O   UNL     1       1.783   8.487  18.929  0.00  0.00    +0.000 OA
ATOM     19  C   UNL     1       1.855   7.716  19.879  0.00  0.00    +0.000 C 
ATOM     20  N   UNL     1       1.421   7.943  21.171  0.00  0.00    +0.000 N 
ATOM     21  H   UNL     1       1.728   7.294  21.885  0.00  0.00    +0.000 HD
BRANCH  20  22
ATOM     22  C   UNL     1       0.740   9.093  21.622  0.00  0.00    +0.000 A 
ATOM     23  C   UNL     1      -0.093   9.098  22.739  0.00  0.00    +0.000 A 
ATOM     24  C   UNL     1      -0.744  10.270  23.130  0.00  0.00    +0.000 A 
ATOM     25  C   UNL     1      -0.563  11.455  22.419  0.00  0.00    +0.000 A 
ATOM     26  C   UNL     1       0.243  11.449  21.282  0.00  0.00    +0.000 A 
ATOM     27  C   UNL     1       0.914  10.279  20.903  0.00  0.00    +0.000 A 
BRANCH  25  28
ATOM     28  O   UNL     1      -1.285  12.513  22.874  0.00  0.00    +0.000 OA
BRANCH  28  29
ATOM     29  C   UNL     1      -2.654  12.628  22.514  0.00  0.00    +0.000 C 
ATOM     30  F   UNL     1      -2.961  12.126  21.300  0.00  0.00    +0.000 F 
ATOM     31  F   UNL     1      -3.402  11.991  23.442  0.00  0.00    +0.000 F 
ATOM     32  F   UNL     1      -2.997  13.935  22.523  0.00  0.00    +0.000 F 
ENDBRANCH  28  29
ENDBRANCH  25  28
ENDBRANCH  20  22
ENDBRANCH   1  19
TORSDOF 9
ENDMDL
MODEL 3
REMARK VINA RESULT:      -7.7      5.646     10.836
REMARK  Name = 
REMARK  9 active torsions:
REMARK  status: ('A' for Active; 'I' for Inactive)
REMARK    1  A    between atoms: C_2  and  C_15
REMARK    2  A    between atoms: N_3  and  C_4
REMARK    3  A    between atoms: C_7  and  O_8
REMARK    4  A    between atoms: O_8  and  C_9
REMARK    5  A    between atoms: C_19  and  C_20
REMARK    6  A    between atoms: C_23  and  O_24
REMARK    7  A    between atoms: O_24  and  C_25
REMARK    8  A    between atoms: C_25  and  C_26
REMARK    9  A    between atoms: C_26  and  O_27
REMARK                            x       y       z     vdW  Elec       q    Type
REMARK                         _______ _______ _______ _____ _____    ______ ____
ROOT
ATOM      1  C   UNL     1       1.336  10.280  18.387  0.00  0.00    +0.000 A 
ATOM      2  C   UNL     1       2.156  11.408  18.441  0.00  0.00    +0.000 A 
ATOM      3  C   UNL     1       1.572  12.662  18.602  0.00  0.00    +0.000 A 
ATOM      4  C   UNL     1       0.180  12.789  18.705  0.00  0.00    +0.000 A 
ATOM      5  C   UNL     1      -0.666  11.667  18.648  0.00  0.00    +0.000 A 
ATOM      6  C   UNL     1      -0.056  10.413  18.484  0.00  0.00    +0.000 A 
ENDROOT
BRANCH   5   7
ATOM      7  C   UNL     1      -2.129  11.780  18.765  0.00  0.00    +0.000 A 
ATOM      8  C   UNL     1      -3.008  11.284  17.814  0.00  0.00    +0.000 A 
ATOM      9  N   UNL     1      -4.351  11.312  17.915  0.00  0.00    +0.000 NA
ATOM     10  C   UNL     1      -4.845  11.887  19.020  0.00  0.00    +0.000 A 
ATOM     11  N   UNL     1      -4.118  12.435  19.997  0.00  0.00    +0.000 NA
ATOM     12  C   UNL     1      -2.778  12.358  19.847  0.00  0.00    +0.000 A 
BRANCH  10  13
ATOM     13  O   UNL     1      -6.212  11.951  19.190  0.00  0.00    +0.000 OA
BRANCH  13  14
ATOM     14  C   UNL     1      -6.870  10.838  18.576  0.00  0.00    +0.000 C 
BRANCH  14  15
ATOM     15  C   UNL     1      -7.091   9.766  19.637  0.00  0.00    +0.000 C 
BRANCH  15  16
ATOM     16  O   UNL     1      -7.212  10.361  20.928  0.00  0.00    +0.000 OA
ATOM     17  H   UNL     1      -8.162  10.545  21.055  0.00  0.00    +0.000 HD
ENDBRANCH  15  16
ENDBRANCH  14  15
ENDBRANCH  13  14
ENDBRANCH  10  13
ENDBRANCH   5   7
BRANCH   1  19
ATOM     18  O   UNL     1       2.178   8.578  17.054  0.00  0.00    +0.000 OA
ATOM     19  C   UNL     1       1.882   8.916  18.194  0.00  0.00    +0.000 C 
ATOM     20  N   UNL     1       1.926   8.133  19.332  0.00  0.00    +0.000 N 
ATOM     21  H   UNL     1       1.464   8.490  20.159  0.00  0.00    +0.000 HD
BRANCH  20  22
ATOM     22  C   UNL     1       2.397   6.806  19.403  0.00  0.00    +0.000 A 
ATOM     23  C   UNL     1       3.545   6.368  18.746  0.00  0.00    +0.000 A 
ATOM     24  C   UNL     1       3.956   5.036  18.852  0.00  0.00    +0.000 A 
ATOM     25  C   UNL     1       3.233   4.129  19.624  0.00  0.00    +0.000 A 
ATOM     26  C   UNL     1       2.066   4.554  20.256  0.00  0.00    +0.000 A 
ATOM     27  C   UNL     1       1.666   5.894  20.169  0.00  0.00    +0.000 A 
BRANCH  25  28
ATOM     28  O   UNL     1       3.710   2.856  19.611  0.00  0.00    +0.000 OA
BRANCH  28  29
ATOM     29  C   UNL     1       3.081   1.885  18.788  0.00  0.00    +0.000 C 
ATOM     30  F   UNL     1       3.802   0.764  18.588  0.00  0.00    +0.000 F 
ATOM     31  F   UNL     1       1.900   1.541  19.348  0.00  0.00    +0.000 F 
ATOM     32  F   UNL     1       2.828   2.438  17.581  0.00  0.00    +0.000 F 
ENDBRANCH  28  29
ENDBRANCH  25  28
ENDBRANCH  20  22
ENDBRANCH   1  19
TORSDOF 9
ENDMDL
MODEL 4
REMARK VINA RESULT:      -7.7      0.804      1.621
REMARK  Name = 
REMARK  9 active torsions:
REMARK  status: ('A' for Active; 'I' for Inactive)
REMARK    1  A    between atoms: C_2  and  C_15
REMARK    2  A    between atoms: N_3  and  C_4
REMARK    3  A    between atoms: C_7  and  O_8
REMARK    4  A    between atoms: O_8  and  C_9
REMARK    5  A    between atoms: C_19  and  C_20
REMARK    6  A    between atoms: C_23  and  O_24
REMARK    7  A    between atoms: O_24  and  C_25
REMARK    8  A    between atoms: C_25  and  C_26
REMARK    9  A    between atoms: C_26  and  O_27
REMARK                            x       y       z     vdW  Elec       q    Type
REMARK                         _______ _______ _______ _____ _____    ______ ____
ROOT
ATOM      1  C   UNL     1       2.050   6.909  20.037  0.00  0.00    +0.000 A 
ATOM      2  C   UNL     1       1.683   5.820  20.827  0.00  0.00    +0.000 A 
ATOM      3  C   UNL     1       2.338   4.604  20.650  0.00  0.00    +0.000 A 
ATOM      4  C   UNL     1       3.348   4.476  19.688  0.00  0.00    +0.000 A 
ATOM      5  C   UNL     1       3.731   5.558  18.876  0.00  0.00    +0.000 A 
ATOM      6  C   UNL     1       3.057   6.774  19.071  0.00  0.00    +0.000 A 
ENDROOT
BRANCH   5   7
ATOM      7  C   UNL     1       4.798   5.445  17.868  0.00  0.00    +0.000 A 
ATOM      8  C   UNL     1       4.956   4.336  17.049  0.00  0.00    +0.000 A 
ATOM      9  N   UNL     1       5.879   4.222  16.075  0.00  0.00    +0.000 NA
ATOM     10  C   UNL     1       6.705   5.266  15.923  0.00  0.00    +0.000 A 
ATOM     11  N   UNL     1       6.690   6.378  16.662  0.00  0.00    +0.000 NA
ATOM     12  C   UNL     1       5.729   6.442  17.609  0.00  0.00    +0.000 A 
BRANCH  10  13
ATOM     13  O   UNL     1       7.676   5.217  14.944  0.00  0.00    +0.000 OA
BRANCH  13  14
ATOM     14  C   UNL     1       7.160   4.682  13.721  0.00  0.00    +0.000 C 
BRANCH  14  15
ATOM     15  C   UNL     1       7.894   5.344  12.560  0.00  0.00    +0.000 C 
BRANCH  15  16
ATOM     16  O   UNL     1       9.022   6.076  13.036  0.00  0.00    +0.000 OA
ATOM     17  H   UNL     1       9.768   5.834  12.456  0.00  0.00    +0.000 HD
ENDBRANCH  15  16
ENDBRANCH  14  15
ENDBRANCH  13  14
ENDBRANCH  10  13
ENDBRANCH   5   7
BRANCH   1  19
ATOM     18  O   UNL     1       1.309   8.917  19.139  0.00  0.00    +0.000 OA
ATOM     19  C   UNL     1       1.383   8.228  20.150  0.00  0.00    +0.000 C 
ATOM     20  N   UNL     1       0.977   8.574  21.425  0.00  0.00    +0.000 N 
ATOM     21  H   UNL     1       1.284   7.982  22.187  0.00  0.00    +0.000 HD
BRANCH  20  22
ATOM     22  C   UNL     1       0.327   9.772  21.787  0.00  0.00    +0.000 A 
ATOM     23  C   UNL     1       0.555  10.988  21.147  0.00  0.00    +0.000 A 
ATOM     24  C   UNL     1      -0.119  12.141  21.558  0.00  0.00    +0.000 A 
ATOM     25  C   UNL     1      -1.037  12.092  22.606  0.00  0.00    +0.000 A 
ATOM     26  C   UNL     1      -1.245  10.885  23.271  0.00  0.00    +0.000 A 
ATOM     27  C   UNL     1      -0.587   9.724  22.844  0.00  0.00    +0.000 A 
BRANCH  25  28
ATOM     28  O   UNL     1      -1.592  13.288  22.939  0.00  0.00    +0.000 OA
BRANCH  28  29
ATOM     29  C   UNL     1      -2.682  13.785  22.178  0.00  0.00    +0.000 C 
ATOM     30  F   UNL     1      -2.330  14.488  21.082  0.00  0.00    +0.000 F 
ATOM     31  F   UNL     1      -3.452  12.744  21.789  0.00  0.00    +0.000 F 
ATOM     32  F   UNL     1      -3.430  14.589  22.965  0.00  0.00    +0.000 F 
ENDBRANCH  28  29
ENDBRANCH  25  28
ENDBRANCH  20  22
ENDBRANCH   1  19
TORSDOF 9
ENDMDL
MODEL 5
REMARK VINA RESULT:      -7.7      0.908      1.359
REMARK  Name = 
REMARK  9 active torsions:
REMARK  status: ('A' for Active; 'I' for Inactive)
REMARK    1  A    between atoms: C_2  and  C_15
REMARK    2  A    between atoms: N_3  and  C_4
REMARK    3  A    between atoms: C_7  and  O_8
REMARK    4  A    between atoms: O_8  and  C_9
REMARK    5  A    between atoms: C_19  and  C_20
REMARK    6  A    between atoms: C_23  and  O_24
REMARK    7  A    between atoms: O_24  and  C_25
REMARK    8  A    between atoms: C_25  and  C_26
REMARK    9  A    between atoms: C_26  and  O_27
REMARK                            x       y       z     vdW  Elec       q    Type
REMARK                         _______ _______ _______ _____ _____    ______ ____
ROOT
ATOM      1  C   UNL     1       2.250   6.748  19.681  0.00  0.00    +0.000 A 
ATOM      2  C   UNL     1       1.932   5.644  20.473  0.00  0.00    +0.000 A 
ATOM      3  C   UNL     1       2.567   4.429  20.228  0.00  0.00    +0.000 A 
ATOM      4  C   UNL     1       3.508   4.316  19.196  0.00  0.00    +0.000 A 
ATOM      5  C   UNL     1       3.840   5.413  18.380  0.00  0.00    +0.000 A 
ATOM      6  C   UNL     1       3.187   6.627  18.645  0.00  0.00    +0.000 A 
ENDROOT
BRANCH   5   7
ATOM      7  C   UNL     1       4.834   5.316  17.299  0.00  0.00    +0.000 A 
ATOM      8  C   UNL     1       4.989   6.286  16.320  0.00  0.00    +0.000 A 
ATOM      9  N   UNL     1       5.926   6.263  15.353  0.00  0.00    +0.000 NA
ATOM     10  C   UNL     1       6.743   5.201  15.351  0.00  0.00    +0.000 A 
ATOM     11  N   UNL     1       6.684   4.179  16.209  0.00  0.00    +0.000 NA
ATOM     12  C   UNL     1       5.736   4.269  17.167  0.00  0.00    +0.000 A 
BRANCH  10  13
ATOM     13  O   UNL     1       7.727   5.112  14.388  0.00  0.00    +0.000 OA
BRANCH  13  14
ATOM     14  C   UNL     1       7.167   4.946  13.081  0.00  0.00    +0.000 C 
BRANCH  14  15
ATOM     15  C   UNL     1       6.262   3.719  13.099  0.00  0.00    +0.000 C 
BRANCH  15  16
ATOM     16  O   UNL     1       6.656   2.794  12.088  0.00  0.00    +0.000 OA
ATOM     17  H   UNL     1       6.424   1.908  12.424  0.00  0.00    +0.000 HD
ENDBRANCH  15  16
ENDBRANCH  14  15
ENDBRANCH  13  14
ENDBRANCH  10  13
ENDBRANCH   5   7
BRANCH   1  19
ATOM     18  O   UNL     1       1.702   8.883  18.958  0.00  0.00    +0.000 OA
ATOM     19  C   UNL     1       1.599   8.067  19.865  0.00  0.00    +0.000 C 
ATOM     20  N   UNL     1       1.002   8.260  21.096  0.00  0.00    +0.000 N 
ATOM     21  H   UNL     1       1.171   7.562  21.810  0.00  0.00    +0.000 HD
BRANCH  20  22
ATOM     22  C   UNL     1       0.325   9.426  21.510  0.00  0.00    +0.000 A 
ATOM     23  C   UNL     1       0.171  10.548  20.699  0.00  0.00    +0.000 A 
ATOM     24  C   UNL     1      -0.506  11.675  21.173  0.00  0.00    +0.000 A 
ATOM     25  C   UNL     1      -1.047  11.692  22.457  0.00  0.00    +0.000 A 
ATOM     26  C   UNL     1      -0.867  10.585  23.284  0.00  0.00    +0.000 A 
ATOM     27  C   UNL     1      -0.209   9.446  22.802  0.00  0.00    +0.000 A 
BRANCH  25  28
ATOM     28  O   UNL     1      -1.642  12.862  22.813  0.00  0.00    +0.000 OA
BRANCH  28  29
ATOM     29  C   UNL     1      -3.018  12.865  23.161  0.00  0.00    +0.000 C 
ATOM     30  F   UNL     1      -3.453  11.730  23.746  0.00  0.00    +0.000 F 
ATOM     31  F   UNL     1      -3.252  13.897  24.002  0.00  0.00    +0.000 F 
ATOM     32  F   UNL     1      -3.748  13.062  22.042  0.00  0.00    +0.000 F 
ENDBRANCH  28  29
ENDBRANCH  25  28
ENDBRANCH  20  22
ENDBRANCH   1  19
TORSDOF 9
ENDMDL
MODEL 6
REMARK VINA RESULT:      -7.7      0.572      1.192
REMARK  Name = 
REMARK  9 active torsions:
REMARK  status: ('A' for Active; 'I' for Inactive)
REMARK    1  A    between atoms: C_2  and  C_15
REMARK    2  A    between atoms: N_3  and  C_4
REMARK    3  A    between atoms: C_7  and  O_8
REMARK    4  A    between atoms: O_8  and  C_9
REMARK    5  A    between atoms: C_19  and  C_20
REMARK    6  A    between atoms: C_23  and  O_24
REMARK    7  A    between atoms: O_24  and  C_25
REMARK    8  A    between atoms: C_25  and  C_26
REMARK    9  A    between atoms: C_26  and  O_27
REMARK                            x       y       z     vdW  Elec       q    Type
REMARK                         _______ _______ _______ _____ _____    ______ ____
ROOT
ATOM      1  C   UNL     1       2.112   6.764  20.069  0.00  0.00    +0.000 A 
ATOM      2  C   UNL     1       1.769   5.664  20.856  0.00  0.00    +0.000 A 
ATOM      3  C   UNL     1       2.398   4.444  20.624  0.00  0.00    +0.000 A 
ATOM      4  C   UNL     1       3.358   4.322  19.611  0.00  0.00    +0.000 A 
ATOM      5  C   UNL     1       3.715   5.415  18.801  0.00  0.00    +0.000 A 
ATOM      6  C   UNL     1       3.067   6.635  19.052  0.00  0.00    +0.000 A 
ENDROOT
BRANCH   5   7
ATOM      7  C   UNL     1       4.729   5.309  17.739  0.00  0.00    +0.000 A 
ATOM      8  C   UNL     1       4.985   4.134  17.047  0.00  0.00    +0.000 A 
ATOM      9  N   UNL     1       5.859   4.012  16.030  0.00  0.00    +0.000 NA
ATOM     10  C   UNL     1       6.531   5.122  15.697  0.00  0.00    +0.000 A 
ATOM     11  N   UNL     1       6.411   6.308  16.299  0.00  0.00    +0.000 NA
ATOM     12  C   UNL     1       5.506   6.372  17.299  0.00  0.00    +0.000 A 
BRANCH  10  13
ATOM     13  O   UNL     1       7.443   5.071  14.664  0.00  0.00    +0.000 OA
BRANCH  13  14
ATOM     14  C   UNL     1       6.898   4.412  13.516  0.00  0.00    +0.000 C 
BRANCH  14  15
ATOM     15  C   UNL     1       7.633   4.917  12.279  0.00  0.00    +0.000 C 
BRANCH  15  16
ATOM     16  O   UNL     1       8.374   6.097  12.586  0.00  0.00    +0.000 OA
ATOM     17  H   UNL     1       7.915   6.519  13.335  0.00  0.00    +0.000 HD
ENDBRANCH  15  16
ENDBRANCH  14  15
ENDBRANCH  13  14
ENDBRANCH  10  13
ENDBRANCH   5   7
BRANCH   1  19
ATOM     18  O   UNL     1       1.507   8.866  19.294  0.00  0.00    +0.000 OA
ATOM     19  C   UNL     1       1.469   8.089  20.240  0.00  0.00    +0.000 C 
ATOM     20  N   UNL     1       0.953   8.334  21.499  0.00  0.00    +0.000 N 
ATOM     21  H   UNL     1       1.173   7.667  22.228  0.00  0.00    +0.000 HD
BRANCH  20  22
ATOM     22  C   UNL     1       0.301   9.516  21.907  0.00  0.00    +0.000 A 
ATOM     23  C   UNL     1      -0.639   9.553  22.935  0.00  0.00    +0.000 A 
ATOM     24  C   UNL     1      -1.254  10.757  23.287  0.00  0.00    +0.000 A 
ATOM     25  C   UNL     1      -0.931  11.941  22.625  0.00  0.00    +0.000 A 
ATOM     26  C   UNL     1      -0.017  11.904  21.574  0.00  0.00    +0.000 A 
ATOM     27  C   UNL     1       0.618  10.701  21.236  0.00  0.00    +0.000 A 
BRANCH  25  28
ATOM     28  O   UNL     1      -1.631  13.034  23.030  0.00  0.00    +0.000 OA
BRANCH  28  29
ATOM     29  C   UNL     1      -3.011  13.135  22.711  0.00  0.00    +0.000 C 
ATOM     30  F   UNL     1      -3.383  12.459  21.605  0.00  0.00    +0.000 F 
ATOM     31  F   UNL     1      -3.733  12.677  23.757  0.00  0.00    +0.000 F 
ATOM     32  F   UNL     1      -3.319  14.437  22.526  0.00  0.00    +0.000 F 
ENDBRANCH  28  29
ENDBRANCH  25  28
ENDBRANCH  20  22
ENDBRANCH   1  19
TORSDOF 9
ENDMDL
MODEL 7
REMARK VINA RESULT:      -7.7      2.613      3.140
REMARK  Name = 
REMARK  9 active torsions:
REMARK  status: ('A' for Active; 'I' for Inactive)
REMARK    1  A    between atoms: C_2  and  C_15
REMARK    2  A    between atoms: N_3  and  C_4
REMARK    3  A    between atoms: C_7  and  O_8
REMARK    4  A    between atoms: O_8  and  C_9
REMARK    5  A    between atoms: C_19  and  C_20
REMARK    6  A    between atoms: C_23  and  O_24
REMARK    7  A    between atoms: O_24  and  C_25
REMARK    8  A    between atoms: C_25  and  C_26
REMARK    9  A    between atoms: C_26  and  O_27
REMARK                            x       y       z     vdW  Elec       q    Type
REMARK                         _______ _______ _______ _____ _____    ______ ____
ROOT
ATOM      1  C   UNL     1       1.960   7.285  20.072  0.00  0.00    +0.000 A 
ATOM      2  C   UNL     1       1.512   6.198  20.823  0.00  0.00    +0.000 A 
ATOM      3  C   UNL     1       2.107   4.953  20.632  0.00  0.00    +0.000 A 
ATOM      4  C   UNL     1       3.138   4.795  19.696  0.00  0.00    +0.000 A 
ATOM      5  C   UNL     1       3.601   5.876  18.924  0.00  0.00    +0.000 A 
ATOM      6  C   UNL     1       2.987   7.120  19.132  0.00  0.00    +0.000 A 
ENDROOT
BRANCH   5   7
ATOM      7  C   UNL     1       4.691   5.731  17.945  0.00  0.00    +0.000 A 
ATOM      8  C   UNL     1       5.626   4.708  17.993  0.00  0.00    +0.000 A 
ATOM      9  N   UNL     1       6.597   4.506  17.082  0.00  0.00    +0.000 NA
ATOM     10  C   UNL     1       6.651   5.388  16.076  0.00  0.00    +0.000 A 
ATOM     11  N   UNL     1       5.839   6.439  15.924  0.00  0.00    +0.000 NA
ATOM     12  C   UNL     1       4.874   6.576  16.859  0.00  0.00    +0.000 A 
BRANCH  10  13
ATOM     13  O   UNL     1       7.621   5.243  15.106  0.00  0.00    +0.000 OA
BRANCH  13  14
ATOM     14  C   UNL     1       7.075   4.714  13.894  0.00  0.00    +0.000 C 
BRANCH  14  15
ATOM     15  C   UNL     1       7.855   5.298  12.721  0.00  0.00    +0.000 C 
BRANCH  15  16
ATOM     16  O   UNL     1       9.019   5.980  13.186  0.00  0.00    +0.000 OA
ATOM     17  H   UNL     1       8.700   6.759  13.678  0.00  0.00    +0.000 HD
ENDBRANCH  15  16
ENDBRANCH  14  15
ENDBRANCH  13  14
ENDBRANCH  10  13
ENDBRANCH   5   7
BRANCH   1  19
ATOM     18  O   UNL     1       0.876   8.941  21.284  0.00  0.00    +0.000 OA
ATOM     19  C   UNL     1       1.361   8.635  20.202  0.00  0.00    +0.000 C 
ATOM     20  N   UNL     1       1.349   9.386  19.041  0.00  0.00    +0.000 N 
ATOM     21  H   UNL     1       1.612   8.919  18.183  0.00  0.00    +0.000 HD
BRANCH  20  22
ATOM     22  C   UNL     1       0.833  10.692  18.910  0.00  0.00    +0.000 A 
ATOM     23  C   UNL     1      -0.531  10.977  18.894  0.00  0.00    +0.000 A 
ATOM     24  C   UNL     1      -0.977  12.293  18.755  0.00  0.00    +0.000 A 
ATOM     25  C   UNL     1      -0.068  13.344  18.641  0.00  0.00    +0.000 A 
ATOM     26  C   UNL     1       1.296  13.062  18.623  0.00  0.00    +0.000 A 
ATOM     27  C   UNL     1       1.745  11.744  18.786  0.00  0.00    +0.000 A 
BRANCH  25  28
ATOM     28  O   UNL     1      -0.628  14.570  18.467  0.00  0.00    +0.000 OA
BRANCH  28  29
ATOM     29  C   UNL     1      -0.449  15.565  19.464  0.00  0.00    +0.000 C 
ATOM     30  F   UNL     1      -1.397  16.524  19.480  0.00  0.00    +0.000 F 
ATOM     31  F   UNL     1      -0.425  14.967  20.676  0.00  0.00    +0.000 F 
ATOM     32  F   UNL     1       0.746  16.165  19.269  0.00  0.00    +0.000 F 
ENDBRANCH  28  29
ENDBRANCH  25  28
ENDBRANCH  20  22
ENDBRANCH   1  19
TORSDOF 9
ENDMDL
MODEL 8
REMARK VINA RESULT:      -7.7      2.718      3.283
REMARK  Name = 
REMARK  9 active torsions:
REMARK  status: ('A' for Active; 'I' for Inactive)
REMARK    1  A    between atoms: C_2  and  C_15
REMARK    2  A    between atoms: N_3  and  C_4
REMARK    3  A    between atoms: C_7  and  O_8
REMARK    4  A    between atoms: O_8  and  C_9
REMARK    5  A    between atoms: C_19  and  C_20
REMARK    6  A    between atoms: C_23  and  O_24
REMARK    7  A    between atoms: O_24  and  C_25
REMARK    8  A    between atoms: C_25  and  C_26
REMARK    9  A    between atoms: C_26  and  O_27
REMARK                            x       y       z     vdW  Elec       q    Type
REMARK                         _______ _______ _______ _____ _____    ______ ____
ROOT
ATOM      1  C   UNL     1       2.020   7.220  19.894  0.00  0.00    +0.000 A 
ATOM      2  C   UNL     1       1.658   6.188  20.760  0.00  0.00    +0.000 A 
ATOM      3  C   UNL     1       2.141   4.904  20.524  0.00  0.00    +0.000 A 
ATOM      4  C   UNL     1       2.976   4.651  19.428  0.00  0.00    +0.000 A 
ATOM      5  C   UNL     1       3.350   5.673  18.537  0.00  0.00    +0.000 A 
ATOM      6  C   UNL     1       2.850   6.960  18.794  0.00  0.00    +0.000 A 
ENDROOT
BRANCH   5   7
ATOM      7  C   UNL     1       4.235   5.429  17.386  0.00  0.00    +0.000 A 
ATOM      8  C   UNL     1       4.550   4.158  16.927  0.00  0.00    +0.000 A 
ATOM      9  N   UNL     1       5.304   3.895  15.842  0.00  0.00    +0.000 NA
ATOM     10  C   UNL     1       5.788   4.961  15.191  0.00  0.00    +0.000 A 
ATOM     11  N   UNL     1       5.595   6.236  15.543  0.00  0.00    +0.000 NA
ATOM     12  C   UNL     1       4.815   6.435  16.626  0.00  0.00    +0.000 A 
BRANCH  10  13
ATOM     13  O   UNL     1       6.570   4.767  14.071  0.00  0.00    +0.000 OA
BRANCH  13  14
ATOM     14  C   UNL     1       6.063   3.704  13.257  0.00  0.00    +0.000 C 
BRANCH  14  15
ATOM     15  C   UNL     1       6.904   3.629  11.988  0.00  0.00    +0.000 C 
BRANCH  15  16
ATOM     16  O   UNL     1       7.104   2.270  11.602  0.00  0.00    +0.000 OA
ATOM     17  H   UNL     1       6.864   2.217  10.658  0.00  0.00    +0.000 HD
ENDBRANCH  15  16
ENDBRANCH  14  15
ENDBRANCH  13  14
ENDBRANCH  10  13
ENDBRANCH   5   7
BRANCH   1  19
ATOM     18  O   UNL     1       1.210   8.962  21.195  0.00  0.00    +0.000 OA
ATOM     19  C   UNL     1       1.526   8.607  20.066  0.00  0.00    +0.000 C 
ATOM     20  N   UNL     1       1.405   9.337  18.898  0.00  0.00    +0.000 N 
ATOM     21  H   UNL     1       1.523   8.838  18.025  0.00  0.00    +0.000 HD
BRANCH  20  22
ATOM     22  C   UNL     1       0.957  10.670  18.803  0.00  0.00    +0.000 A 
ATOM     23  C   UNL     1      -0.382  11.036  18.916  0.00  0.00    +0.000 A 
ATOM     24  C   UNL     1      -0.762  12.376  18.805  0.00  0.00    +0.000 A 
ATOM     25  C   UNL     1       0.192  13.369  18.592  0.00  0.00    +0.000 A 
ATOM     26  C   UNL     1       1.529  13.006  18.445  0.00  0.00    +0.000 A 
ATOM     27  C   UNL     1       1.913  11.665  18.579  0.00  0.00    +0.000 A 
BRANCH  25  28
ATOM     28  O   UNL     1      -0.309  14.626  18.458  0.00  0.00    +0.000 OA
BRANCH  28  29
ATOM     29  C   UNL     1      -0.458  15.442  19.611  0.00  0.00    +0.000 C 
ATOM     30  F   UNL     1      -0.189  16.749  19.414  0.00  0.00    +0.000 F 
ATOM     31  F   UNL     1      -1.726  15.328  20.063  0.00  0.00    +0.000 F 
ATOM     32  F   UNL     1       0.374  14.987  20.574  0.00  0.00    +0.000 F 
ENDBRANCH  28  29
ENDBRANCH  25  28
ENDBRANCH  20  22
ENDBRANCH   1  19
TORSDOF 9
ENDMDL
MODEL 9
REMARK VINA RESULT:      -7.7      2.769      3.305
REMARK  Name = 
REMARK  9 active torsions:
REMARK  status: ('A' for Active; 'I' for Inactive)
REMARK    1  A    between atoms: C_2  and  C_15
REMARK    2  A    between atoms: N_3  and  C_4
REMARK    3  A    between atoms: C_7  and  O_8
REMARK    4  A    between atoms: O_8  and  C_9
REMARK    5  A    between atoms: C_19  and  C_20
REMARK    6  A    between atoms: C_23  and  O_24
REMARK    7  A    between atoms: O_24  and  C_25
REMARK    8  A    between atoms: C_25  and  C_26
REMARK    9  A    between atoms: C_26  and  O_27
REMARK                            x       y       z     vdW  Elec       q    Type
REMARK                         _______ _______ _______ _____ _____    ______ ____
ROOT
ATOM      1  C   UNL     1       2.036   7.209  19.917  0.00  0.00    +0.000 A 
ATOM      2  C   UNL     1       1.571   6.128  20.665  0.00  0.00    +0.000 A 
ATOM      3  C   UNL     1       2.147   4.875  20.475  0.00  0.00    +0.000 A 
ATOM      4  C   UNL     1       3.178   4.702  19.541  0.00  0.00    +0.000 A 
ATOM      5  C   UNL     1       3.660   5.777  18.772  0.00  0.00    +0.000 A 
ATOM      6  C   UNL     1       3.063   7.030  18.980  0.00  0.00    +0.000 A 
ENDROOT
BRANCH   5   7
ATOM      7  C   UNL     1       4.749   5.617  17.795  0.00  0.00    +0.000 A 
ATOM      8  C   UNL     1       5.608   4.527  17.786  0.00  0.00    +0.000 A 
ATOM      9  N   UNL     1       6.575   4.315  16.872  0.00  0.00    +0.000 NA
ATOM     10  C   UNL     1       6.706   5.254  15.926  0.00  0.00    +0.000 A 
ATOM     11  N   UNL     1       5.974   6.368  15.836  0.00  0.00    +0.000 NA
ATOM     12  C   UNL     1       5.008   6.514  16.768  0.00  0.00    +0.000 A 
BRANCH  10  13
ATOM     13  O   UNL     1       7.677   5.102  14.958  0.00  0.00    +0.000 OA
BRANCH  13  14
ATOM     14  C   UNL     1       7.105   5.045  13.647  0.00  0.00    +0.000 C 
BRANCH  14  15
ATOM     15  C   UNL     1       6.215   3.810  13.565  0.00  0.00    +0.000 C 
BRANCH  15  16
ATOM     16  O   UNL     1       6.535   3.040  12.407  0.00  0.00    +0.000 OA
ATOM     17  H   UNL     1       6.797   3.680  11.720  0.00  0.00    +0.000 HD
ENDBRANCH  15  16
ENDBRANCH  14  15
ENDBRANCH  13  14
ENDBRANCH  10  13
ENDBRANCH   5   7
BRANCH   1  19
ATOM     18  O   UNL     1       0.997   8.889  21.136  0.00  0.00    +0.000 OA
ATOM     19  C   UNL     1       1.457   8.568  20.046  0.00  0.00    +0.000 C 
ATOM     20  N   UNL     1       1.432   9.309  18.880  0.00  0.00    +0.000 N 
ATOM     21  H   UNL     1       1.672   8.831  18.021  0.00  0.00    +0.000 HD
BRANCH  20  22
ATOM     22  C   UNL     1       0.930  10.620  18.748  0.00  0.00    +0.000 A 
ATOM     23  C   UNL     1      -0.430  10.919  18.729  0.00  0.00    +0.000 A 
ATOM     24  C   UNL     1      -0.863  12.241  18.588  0.00  0.00    +0.000 A 
ATOM     25  C   UNL     1       0.058  13.281  18.477  0.00  0.00    +0.000 A 
ATOM     26  C   UNL     1       1.419  12.985  18.462  0.00  0.00    +0.000 A 
ATOM     27  C   UNL     1       1.854  11.663  18.626  0.00  0.00    +0.000 A 
BRANCH  25  28
ATOM     28  O   UNL     1      -0.488  14.514  18.301  0.00  0.00    +0.000 OA
BRANCH  28  29
ATOM     29  C   UNL     1      -0.266  15.519  19.279  0.00  0.00    +0.000 C 
ATOM     30  F   UNL     1      -0.145  15.060  20.541  0.00  0.00    +0.000 F 
ATOM     31  F   UNL     1       0.859  16.195  18.959  0.00  0.00    +0.000 F 
ATOM     32  F   UNL     1      -1.301  16.388  19.250  0.00  0.00    +0.000 F 
ENDBRANCH  28  29
ENDBRANCH  25  28
ENDBRANCH  20  22
ENDBRANCH   1  19
TORSDOF 9
ENDMDL
