MODEL 1
REMARK VINA RESULT:      -8.0      0.000      0.000
REMARK  Name = 
REMARK  4 active torsions:
REMARK  status: ('A' for Active; 'I' for Inactive)
REMARK    1  A    between atoms: C_1  and  C_2
REMARK    2  A    between atoms: C_5  and  N_6
REMARK    3  A    between atoms: C_7  and  C_9
REMARK    4  A    between atoms: C_9  and  N_10
REMARK                            x       y       z     vdW  Elec       q    Type
REMARK                         _______ _______ _______ _____ _____    ______ ____
ROOT
ATOM      1  N   UNL     1       5.133   3.731  17.282  0.00  0.00    +0.000 N 
ATOM      2  C   UNL     1       5.767   4.150  18.467  0.00  0.00    +0.000 C 
ATOM      3  O   UNL     1       5.591   3.609  19.560  0.00  0.00    +0.000 OA
ATOM      4  C   UNL     1       6.394   5.517  18.319  0.00  0.00    +0.000 C 
ATOM      5  C   UNL     1       7.387   6.013  19.350  0.00  0.00    +0.000 C 
ATOM      6  C   UNL     1       7.803   7.319  18.655  0.00  0.00    +0.000 C 
ATOM      7  C   UNL     1       7.970   6.893  17.175  0.00  0.00    +0.000 C 
ATOM      8  N   UNL     1       7.150   5.692  17.091  0.00  0.00    +0.000 N 
ATOM      9  C   UNL     1       6.693   5.113  15.940  0.00  0.00    +0.000 A 
ATOM     10  N   UNL     1       7.305   5.439  14.781  0.00  0.00    +0.000 NA
ATOM     11  C   UNL     1       6.869   4.830  13.651  0.00  0.00    +0.000 A 
ATOM     12  C   UNL     1       5.805   3.951  13.612  0.00  0.00    +0.000 A 
ATOM     13 CL   UNL     1       5.329   3.204  12.137  0.00  0.00    +0.000 Cl
ATOM     14  C   UNL     1       5.157   3.631  14.799  0.00  0.00    +0.000 A 
ATOM     15  C   UNL     1       5.628   4.170  16.005  0.00  0.00    +0.000 A 
ENDROOT
BRANCH   1  16
ATOM     16  C   UNL     1       3.850   3.063  17.448  0.00  0.00    +0.000 C 
BRANCH  16  18
ATOM     17  N   UNL     1       3.189   5.286  18.289  0.00  0.00    +0.000 N 
ATOM     18  C   UNL     1       2.772   4.161  17.589  0.00  0.00    +0.000 C 
ATOM     19  O   UNL     1       1.673   4.071  17.048  0.00  0.00    +0.000 OA
ATOM     20  H   UNL     1       4.089   5.255  18.766  0.00  0.00    +0.000 HD
BRANCH  17  25
ATOM     21  C   UNL     1       0.802  10.394  19.603  0.00  0.00    +0.000 C 
ATOM     22  C   UNL     1       1.780   9.239  19.385  0.00  0.00    +0.000 C 
ATOM     23  C   UNL     1       1.398   8.035  20.260  0.00  0.00    +0.000 C 
ATOM     24  C   UNL     1       2.306   6.830  20.005  0.00  0.00    +0.000 C 
ATOM     25  C   UNL     1       2.315   6.435  18.523  0.00  0.00    +0.000 C 
ATOM     26  C   UNL     1       2.736   7.633  17.663  0.00  0.00    +0.000 C 
ATOM     27  C   UNL     1       1.833   8.845  17.903  0.00  0.00    +0.000 C 
ENDBRANCH  17  25
ENDBRANCH  16  18
ENDBRANCH   1  16
TORSDOF 3
ENDMDL
MODEL 2
REMARK VINA RESULT:      -7.9      2.833      4.726
REMARK  Name = 
REMARK  4 active torsions:
REMARK  status: ('A' for Active; 'I' for Inactive)
REMARK    1  A    between atoms: C_1  and  C_2
REMARK    2  A    between atoms: C_5  and  N_6
REMARK    3  A    between atoms: C_7  and  C_9
REMARK    4  A    between atoms: C_9  and  N_10
REMARK                            x       y       z     vdW  Elec       q    Type
REMARK                         _______ _______ _______ _____ _____    ______ ____
ROOT
ATOM      1  N   UNL     1       3.065   5.850  17.803  0.00  0.00    +0.000 N 
ATOM      2  C   UNL     1       2.231   4.728  17.969  0.00  0.00    +0.000 C 
ATOM      3  O   UNL     1       1.111   4.634  17.466  0.00  0.00    +0.000 OA
ATOM      4  C   UNL     1       2.705   3.834  19.092  0.00  0.00    +0.000 C 
ATOM      5  C   UNL     1       2.150   2.430  19.230  0.00  0.00    +0.000 C 
ATOM      6  C   UNL     1       3.049   1.944  20.377  0.00  0.00    +0.000 C 
ATOM      7  C   UNL     1       4.449   2.470  19.976  0.00  0.00    +0.000 C 
ATOM      8  N   UNL     1       4.133   3.573  19.078  0.00  0.00    +0.000 N 
ATOM      9  C   UNL     1       4.989   4.572  18.705  0.00  0.00    +0.000 A 
ATOM     10  N   UNL     1       6.313   4.369  18.876  0.00  0.00    +0.000 NA
ATOM     11  C   UNL     1       7.154   5.350  18.467  0.00  0.00    +0.000 A 
ATOM     12  C   UNL     1       6.733   6.557  17.947  0.00  0.00    +0.000 A 
ATOM     13 CL   UNL     1       7.869   7.743  17.432  0.00  0.00    +0.000 Cl
ATOM     14  C   UNL     1       5.370   6.780  17.792  0.00  0.00    +0.000 A 
ATOM     15  C   UNL     1       4.465   5.760  18.121  0.00  0.00    +0.000 A 
ENDROOT
BRANCH   1  16
ATOM     16  C   UNL     1       2.391   7.113  17.543  0.00  0.00    +0.000 C 
BRANCH  16  18
ATOM     17  N   UNL     1       1.422   8.981  18.830  0.00  0.00    +0.000 N 
ATOM     18  C   UNL     1       2.111   7.777  18.909  0.00  0.00    +0.000 C 
ATOM     19  O   UNL     1       2.401   7.233  19.973  0.00  0.00    +0.000 OA
ATOM     20  H   UNL     1       1.281   9.400  17.912  0.00  0.00    +0.000 HD
BRANCH  17  25
ATOM     21  C   UNL     1      -1.170  12.066  22.987  0.00  0.00    +0.000 C 
ATOM     22  C   UNL     1      -0.869  11.260  21.723  0.00  0.00    +0.000 C 
ATOM     23  C   UNL     1       0.179  11.978  20.860  0.00  0.00    +0.000 C 
ATOM     24  C   UNL     1       0.567  11.159  19.628  0.00  0.00    +0.000 C 
ATOM     25  C   UNL     1       1.059   9.758  20.015  0.00  0.00    +0.000 C 
ATOM     26  C   UNL     1      -0.011   9.035  20.842  0.00  0.00    +0.000 C 
ATOM     27  C   UNL     1      -0.405   9.841  22.082  0.00  0.00    +0.000 C 
ENDBRANCH  17  25
ENDBRANCH  16  18
ENDBRANCH   1  16
TORSDOF 3
ENDMDL
MODEL 3
REMARK VINA RESULT:      -7.3      3.086      5.589
REMARK  Name = 
REMARK  4 active torsions:
REMARK  status: ('A' for Active; 'I' for Inactive)
REMARK    1  A    between atoms: C_1  and  C_2
REMARK    2  A    between atoms: C_5  and  N_6
REMARK    3  A    between atoms: C_7  and  C_9
REMARK    4  A    between atoms: C_9  and  N_10
REMARK                            x       y       z     vdW  Elec       q    Type
REMARK                         _______ _______ _______ _____ _____    ______ ____
ROOT
ATOM      1  N   UNL     1       6.768   5.530  17.804  0.00  0.00    +0.000 N 
ATOM      2  C   UNL     1       5.809   5.324  18.814  0.00  0.00    +0.000 C 
ATOM      3  O   UNL     1       5.753   5.996  19.845  0.00  0.00    +0.000 OA
ATOM      4  C   UNL     1       5.102   3.997  18.659  0.00  0.00    +0.000 C 
ATOM      5  C   UNL     1       3.830   3.720  19.435  0.00  0.00    +0.000 C 
ATOM      6  C   UNL     1       3.473   2.364  18.806  0.00  0.00    +0.000 C 
ATOM      7  C   UNL     1       3.738   2.593  17.298  0.00  0.00    +0.000 C 
ATOM      8  N   UNL     1       4.673   3.710  17.302  0.00  0.00    +0.000 N 
ATOM      9  C   UNL     1       5.470   4.090  16.258  0.00  0.00    +0.000 A 
ATOM     10  N   UNL     1       5.146   3.653  15.022  0.00  0.00    +0.000 NA
ATOM     11  C   UNL     1       5.919   4.068  13.989  0.00  0.00    +0.000 A 
ATOM     12  C   UNL     1       7.044   4.856  14.137  0.00  0.00    +0.000 A 
ATOM     13 CL   UNL     1       7.959   5.356  12.769  0.00  0.00    +0.000 Cl
ATOM     14  C   UNL     1       7.394   5.288  15.411  0.00  0.00    +0.000 A 
ATOM     15  C   UNL     1       6.575   4.956  16.499  0.00  0.00    +0.000 A 
ENDROOT
BRANCH   1  16
ATOM     16  C   UNL     1       8.027   6.121  18.231  0.00  0.00    +0.000 C 
BRANCH  16  18
ATOM     17  N   UNL     1       8.732   8.380  18.928  0.00  0.00    +0.000 N 
ATOM     18  C   UNL     1       7.888   7.653  18.097  0.00  0.00    +0.000 C 
ATOM     19  O   UNL     1       7.154   8.172  17.259  0.00  0.00    +0.000 OA
ATOM     20  H   UNL     1       9.258   7.878  19.642  0.00  0.00    +0.000 HD
BRANCH  17  25
ATOM     21  C   UNL     1      10.065  14.009  19.138  0.00  0.00    +0.000 C 
ATOM     22  C   UNL     1      10.127  12.481  19.131  0.00  0.00    +0.000 C 
ATOM     23  C   UNL     1       9.318  11.903  20.302  0.00  0.00    +0.000 C 
ATOM     24  C   UNL     1       9.287  10.374  20.278  0.00  0.00    +0.000 C 
ATOM     25  C   UNL     1       8.752   9.842  18.943  0.00  0.00    +0.000 C 
ATOM     26  C   UNL     1       9.592  10.394  17.784  0.00  0.00    +0.000 C 
ATOM     27  C   UNL     1       9.627  11.924  17.791  0.00  0.00    +0.000 C 
ENDBRANCH  17  25
ENDBRANCH  16  18
ENDBRANCH   1  16
TORSDOF 3
ENDMDL
MODEL 4
REMARK VINA RESULT:      -7.1      3.244      4.929
REMARK  Name = 
REMARK  4 active torsions:
REMARK  status: ('A' for Active; 'I' for Inactive)
REMARK    1  A    between atoms: C_1  and  C_2
REMARK    2  A    between atoms: C_5  and  N_6
REMARK    3  A    between atoms: C_7  and  C_9
REMARK    4  A    between atoms: C_9  and  N_10
REMARK                            x       y       z     vdW  Elec       q    Type
REMARK                         _______ _______ _______ _____ _____    ______ ____
ROOT
ATOM      1  N   UNL     1       3.158   6.224  18.301  0.00  0.00    +0.000 N 
ATOM      2  C   UNL     1       4.224   6.861  17.637  0.00  0.00    +0.000 C 
ATOM      3  O   UNL     1       4.210   8.049  17.312  0.00  0.00    +0.000 OA
ATOM      4  C   UNL     1       5.210   5.866  17.068  0.00  0.00    +0.000 C 
ATOM      5  C   UNL     1       6.575   6.331  16.602  0.00  0.00    +0.000 C 
ATOM      6  C   UNL     1       7.187   4.957  16.288  0.00  0.00    +0.000 C 
ATOM      7  C   UNL     1       6.742   4.089  17.490  0.00  0.00    +0.000 C 
ATOM      8  N   UNL     1       5.573   4.801  17.987  0.00  0.00    +0.000 N 
ATOM      9  C   UNL     1       4.620   4.290  18.823  0.00  0.00    +0.000 A 
ATOM     10  N   UNL     1       4.927   3.183  19.533  0.00  0.00    +0.000 NA
ATOM     11  C   UNL     1       3.989   2.708  20.388  0.00  0.00    +0.000 A 
ATOM     12  C   UNL     1       2.728   3.252  20.527  0.00  0.00    +0.000 A 
ATOM     13 CL   UNL     1       1.602   2.599  21.652  0.00  0.00    +0.000 Cl
ATOM     14  C   UNL     1       2.398   4.377  19.780  0.00  0.00    +0.000 A 
ATOM     15  C   UNL     1       3.366   4.955  18.946  0.00  0.00    +0.000 A 
ENDROOT
BRANCH   1  16
ATOM     16  C   UNL     1       1.838   6.793  18.078  0.00  0.00    +0.000 C 
BRANCH  16  18
ATOM     17  N   UNL     1       1.535   9.240  18.135  0.00  0.00    +0.000 N 
ATOM     18  C   UNL     1       1.752   8.099  18.897  0.00  0.00    +0.000 C 
ATOM     19  O   UNL     1       1.787   8.104  20.126  0.00  0.00    +0.000 OA
ATOM     20  H   UNL     1       1.588   9.163  17.120  0.00  0.00    +0.000 HD
BRANCH  17  25
ATOM     21  C   UNL     1       0.649  14.835  19.330  0.00  0.00    +0.000 C 
ATOM     22  C   UNL     1       0.740  13.474  18.639  0.00  0.00    +0.000 C 
ATOM     23  C   UNL     1       2.195  12.980  18.608  0.00  0.00    +0.000 C 
ATOM     24  C   UNL     1       2.313  11.582  17.999  0.00  0.00    +0.000 C 
ATOM     25  C   UNL     1       1.418  10.571  18.728  0.00  0.00    +0.000 C 
ATOM     26  C   UNL     1      -0.037  11.056  18.717  0.00  0.00    +0.000 C 
ATOM     27  C   UNL     1      -0.172  12.451  19.330  0.00  0.00    +0.000 C 
ENDBRANCH  17  25
ENDBRANCH  16  18
ENDBRANCH   1  16
TORSDOF 3
ENDMDL
MODEL 5
REMARK VINA RESULT:      -7.1      4.691      8.823
REMARK  Name = 
REMARK  4 active torsions:
REMARK  status: ('A' for Active; 'I' for Inactive)
REMARK    1  A    between atoms: C_1  and  C_2
REMARK    2  A    between atoms: C_5  and  N_6
REMARK    3  A    between atoms: C_7  and  C_9
REMARK    4  A    between atoms: C_9  and  N_10
REMARK                            x       y       z     vdW  Elec       q    Type
REMARK                         _______ _______ _______ _____ _____    ______ ____
ROOT
ATOM      1  N   UNL     1       0.582  11.129  18.748  0.00  0.00    +0.000 N 
ATOM      2  C   UNL     1       0.938  11.975  19.815  0.00  0.00    +0.000 C 
ATOM      3  O   UNL     1       2.074  12.423  19.978  0.00  0.00    +0.000 OA
ATOM      4  C   UNL     1      -0.112  11.983  20.903  0.00  0.00    +0.000 C 
ATOM      5  C   UNL     1      -0.085  13.053  21.976  0.00  0.00    +0.000 C 
ATOM      6  C   UNL     1      -1.400  12.696  22.685  0.00  0.00    +0.000 C 
ATOM      7  C   UNL     1      -2.373  12.430  21.511  0.00  0.00    +0.000 C 
ATOM      8  N   UNL     1      -1.472  12.110  20.412  0.00  0.00    +0.000 N 
ATOM      9  C   UNL     1      -1.820  11.484  19.247  0.00  0.00    +0.000 A 
ATOM     10  N   UNL     1      -3.127  11.461  18.907  0.00  0.00    +0.000 NA
ATOM     11  C   UNL     1      -3.457  10.872  17.731  0.00  0.00    +0.000 A 
ATOM     12  C   UNL     1      -2.546  10.248  16.901  0.00  0.00    +0.000 A 
ATOM     13 CL   UNL     1      -3.045   9.542  15.414  0.00  0.00    +0.000 Cl
ATOM     14  C   UNL     1      -1.204  10.249  17.260  0.00  0.00    +0.000 A 
ATOM     15  C   UNL     1      -0.804  10.921  18.424  0.00  0.00    +0.000 A 
ENDROOT
BRANCH   1  16
ATOM     16  C   UNL     1       1.656  10.321  18.190  0.00  0.00    +0.000 C 
BRANCH  16  18
ATOM     17  N   UNL     1       2.258   7.929  18.231  0.00  0.00    +0.000 N 
ATOM     18  C   UNL     1       1.644   8.964  18.927  0.00  0.00    +0.000 C 
ATOM     19  O   UNL     1       1.205   8.844  20.068  0.00  0.00    +0.000 OA
ATOM     20  H   UNL     1       2.533   8.092  17.264  0.00  0.00    +0.000 HD
BRANCH  17  25
ATOM     21  C   UNL     1       3.305   2.334  19.287  0.00  0.00    +0.000 C 
ATOM     22  C   UNL     1       3.251   3.729  18.664  0.00  0.00    +0.000 C 
ATOM     23  C   UNL     1       1.799   4.132  18.365  0.00  0.00    +0.000 C 
ATOM     24  C   UNL     1       1.700   5.557  17.818  0.00  0.00    +0.000 C 
ATOM     25  C   UNL     1       2.353   6.571  18.765  0.00  0.00    +0.000 C 
ATOM     26  C   UNL     1       3.814   6.181  19.024  0.00  0.00    +0.000 C 
ATOM     27  C   UNL     1       3.929   4.759  19.578  0.00  0.00    +0.000 C 
ENDBRANCH  17  25
ENDBRANCH  16  18
ENDBRANCH   1  16
TORSDOF 3
ENDMDL
MODEL 6
REMARK VINA RESULT:      -7.0      2.932      4.935
REMARK  Name = 
REMARK  4 active torsions:
REMARK  status: ('A' for Active; 'I' for Inactive)
REMARK    1  A    between atoms: C_1  and  C_2
REMARK    2  A    between atoms: C_5  and  N_6
REMARK    3  A    between atoms: C_7  and  C_9
REMARK    4  A    between atoms: C_9  and  N_10
REMARK                            x       y       z     vdW  Elec       q    Type
REMARK                         _______ _______ _______ _____ _____    ______ ____
ROOT
ATOM      1  N   UNL     1       2.899   6.529  19.113  0.00  0.00    +0.000 N 
ATOM      2  C   UNL     1       2.016   6.001  20.074  0.00  0.00    +0.000 C 
ATOM      3  O   UNL     1       1.140   6.665  20.630  0.00  0.00    +0.000 OA
ATOM      4  C   UNL     1       2.480   4.658  20.589  0.00  0.00    +0.000 C 
ATOM      5  C   UNL     1       1.531   3.777  21.377  0.00  0.00    +0.000 C 
ATOM      6  C   UNL     1       2.426   2.535  21.503  0.00  0.00    +0.000 C 
ATOM      7  C   UNL     1       3.036   2.395  20.087  0.00  0.00    +0.000 C 
ATOM      8  N   UNL     1       2.916   3.743  19.549  0.00  0.00    +0.000 N 
ATOM      9  C   UNL     1       3.593   4.237  18.469  0.00  0.00    +0.000 A 
ATOM     10  N   UNL     1       4.148   3.355  17.611  0.00  0.00    +0.000 NA
ATOM     11  C   UNL     1       4.784   3.855  16.523  0.00  0.00    +0.000 A 
ATOM     12  C   UNL     1       4.945   5.204  16.279  0.00  0.00    +0.000 A 
ATOM     13 CL   UNL     1       5.747   5.756  14.860  0.00  0.00    +0.000 Cl
ATOM     14  C   UNL     1       4.396   6.116  17.172  0.00  0.00    +0.000 A 
ATOM     15  C   UNL     1       3.655   5.646  18.266  0.00  0.00    +0.000 A 
ENDROOT
BRANCH   1  16
ATOM     16  C   UNL     1       3.168   7.956  19.211  0.00  0.00    +0.000 C 
BRANCH  16  18
ATOM     17  N   UNL     1       1.159   9.385  19.130  0.00  0.00    +0.000 N 
ATOM     18  C   UNL     1       2.094   8.687  18.376  0.00  0.00    +0.000 C 
ATOM     19  O   UNL     1       2.127   8.714  17.148  0.00  0.00    +0.000 OA
ATOM     20  H   UNL     1       1.158   9.256  20.141  0.00  0.00    +0.000 HD
BRANCH  17  25
ATOM     21  C   UNL     1      -3.898  11.570  17.352  0.00  0.00    +0.000 C 
ATOM     22  C   UNL     1      -2.814  10.728  18.025  0.00  0.00    +0.000 C 
ATOM     23  C   UNL     1      -1.933  10.039  16.972  0.00  0.00    +0.000 C 
ATOM     24  C   UNL     1      -0.784   9.255  17.609  0.00  0.00    +0.000 C 
ATOM     25  C   UNL     1       0.068  10.145  18.523  0.00  0.00    +0.000 C 
ATOM     26  C   UNL     1      -0.816  10.796  19.594  0.00  0.00    +0.000 C 
ATOM     27  C   UNL     1      -1.966  11.589  18.971  0.00  0.00    +0.000 C 
ENDBRANCH  17  25
ENDBRANCH  16  18
ENDBRANCH   1  16
TORSDOF 3
ENDMDL
MODEL 7
REMARK VINA RESULT:      -7.0      7.023     11.722
REMARK  Name = 
REMARK  4 active torsions:
REMARK  status: ('A' for Active; 'I' for Inactive)
REMARK    1  A    between atoms: C_1  and  C_2
REMARK    2  A    between atoms: C_5  and  N_6
REMARK    3  A    between atoms: C_7  and  C_9
REMARK    4  A    between atoms: C_9  and  N_10
REMARK                            x       y       z     vdW  Elec       q    Type
REMARK                         _______ _______ _______ _____ _____    ______ ____
ROOT
ATOM      1  N   UNL     1      -2.486  12.455  19.671  0.00  0.00    +0.000 N 
ATOM      2  C   UNL     1      -3.114  11.680  18.677  0.00  0.00    +0.000 C 
ATOM      3  O   UNL     1      -2.500  11.085  17.791  0.00  0.00    +0.000 OA
ATOM      4  C   UNL     1      -4.601  11.944  18.611  0.00  0.00    +0.000 C 
ATOM      5  C   UNL     1      -5.507  11.001  17.846  0.00  0.00    +0.000 C 
ATOM      6  C   UNL     1      -6.858  11.625  18.226  0.00  0.00    +0.000 C 
ATOM      7  C   UNL     1      -6.701  11.911  19.740  0.00  0.00    +0.000 C 
ATOM      8  N   UNL     1      -5.255  11.975  19.907  0.00  0.00    +0.000 N 
ATOM      9  C   UNL     1      -4.596  12.521  20.973  0.00  0.00    +0.000 A 
ATOM     10  N   UNL     1      -5.287  12.707  22.118  0.00  0.00    +0.000 NA
ATOM     11  C   UNL     1      -4.613  13.213  23.180  0.00  0.00    +0.000 A 
ATOM     12  C   UNL     1      -3.289  13.602  23.137  0.00  0.00    +0.000 A 
ATOM     13 CL   UNL     1      -2.502  14.216  24.539  0.00  0.00    +0.000 Cl
ATOM     14  C   UNL     1      -2.581  13.435  21.954  0.00  0.00    +0.000 A 
ATOM     15  C   UNL     1      -3.212  12.835  20.854  0.00  0.00    +0.000 A 
ENDROOT
BRANCH   1  16
ATOM     16  C   UNL     1      -1.198  13.028  19.314  0.00  0.00    +0.000 C 
BRANCH  16  18
ATOM     17  N   UNL     1       0.185  11.040  18.845  0.00  0.00    +0.000 N 
ATOM     18  C   UNL     1      -0.107  12.035  19.770  0.00  0.00    +0.000 C 
ATOM     19  O   UNL     1       0.505  12.176  20.826  0.00  0.00    +0.000 OA
ATOM     20  H   UNL     1      -0.413  10.949  18.026  0.00  0.00    +0.000 HD
BRANCH  17  25
ATOM     21  C   UNL     1       3.271   6.173  19.396  0.00  0.00    +0.000 C 
ATOM     22  C   UNL     1       2.166   7.191  19.113  0.00  0.00    +0.000 C 
ATOM     23  C   UNL     1       1.755   7.916  20.403  0.00  0.00    +0.000 C 
ATOM     24  C   UNL     1       0.710   9.002  20.142  0.00  0.00    +0.000 C 
ATOM     25  C   UNL     1       1.193  10.010  19.091  0.00  0.00    +0.000 C 
ATOM     26  C   UNL     1       1.563   9.278  17.794  0.00  0.00    +0.000 C 
ATOM     27  C   UNL     1       2.613   8.192  18.038  0.00  0.00    +0.000 C 
ENDBRANCH  17  25
ENDBRANCH  16  18
ENDBRANCH   1  16
TORSDOF 3
ENDMDL
MODEL 8
REMARK VINA RESULT:      -7.0      5.502      9.986
REMARK  Name = 
REMARK  4 active torsions:
REMARK  status: ('A' for Active; 'I' for Inactive)
REMARK    1  A    between atoms: C_1  and  C_2
REMARK    2  A    between atoms: C_5  and  N_6
REMARK    3  A    between atoms: C_7  and  C_9
REMARK    4  A    between atoms: C_9  and  N_10
REMARK                            x       y       z     vdW  Elec       q    Type
REMARK                         _______ _______ _______ _____ _____    ______ ____
ROOT
ATOM      1  N   UNL     1      -0.605  10.865  18.789  0.00  0.00    +0.000 N 
ATOM      2  C   UNL     1      -1.248  10.188  17.735  0.00  0.00    +0.000 C 
ATOM      3  O   UNL     1      -0.730   9.267  17.103  0.00  0.00    +0.000 OA
ATOM      4  C   UNL     1      -2.470  10.934  17.248  0.00  0.00    +0.000 C 
ATOM      5  C   UNL     1      -3.477  10.239  16.353  0.00  0.00    +0.000 C 
ATOM      6  C   UNL     1      -4.536  11.350  16.299  0.00  0.00    +0.000 C 
ATOM      7  C   UNL     1      -4.615  11.835  17.768  0.00  0.00    +0.000 C 
ATOM      8  N   UNL     1      -3.328  11.423  18.312  0.00  0.00    +0.000 N 
ATOM      9  C   UNL     1      -2.759  11.892  19.463  0.00  0.00    +0.000 A 
ATOM     10  N   UNL     1      -3.558  12.510  20.359  0.00  0.00    +0.000 NA
ATOM     11  C   UNL     1      -2.991  12.937  21.514  0.00  0.00    +0.000 A 
ATOM     12  C   UNL     1      -1.643  12.829  21.795  0.00  0.00    +0.000 A 
ATOM     13 CL   UNL     1      -1.007  13.377  23.297  0.00  0.00    +0.000 Cl
ATOM     14  C   UNL     1      -0.813  12.215  20.865  0.00  0.00    +0.000 A 
ATOM     15  C   UNL     1      -1.369  11.681  19.694  0.00  0.00    +0.000 A 
ENDROOT
BRANCH   1  16
ATOM     16  C   UNL     1       0.849  10.882  18.742  0.00  0.00    +0.000 C 
BRANCH  16  18
ATOM     17  N   UNL     1       2.070   8.816  18.171  0.00  0.00    +0.000 N 
ATOM     18  C   UNL     1       1.342   9.477  19.153  0.00  0.00    +0.000 C 
ATOM     19  O   UNL     1       1.173   9.030  20.285  0.00  0.00    +0.000 OA
ATOM     20  H   UNL     1       2.106   9.222  17.238  0.00  0.00    +0.000 HD
BRANCH  17  25
ATOM     21  C   UNL     1       4.110   3.418  17.710  0.00  0.00    +0.000 C 
ATOM     22  C   UNL     1       3.523   4.799  17.418  0.00  0.00    +0.000 C 
ATOM     23  C   UNL     1       2.194   4.990  18.165  0.00  0.00    +0.000 C 
ATOM     24  C   UNL     1       1.620   6.394  17.964  0.00  0.00    +0.000 C 
ATOM     25  C   UNL     1       2.626   7.478  18.372  0.00  0.00    +0.000 C 
ATOM     26  C   UNL     1       3.935   7.301  17.592  0.00  0.00    +0.000 C 
ATOM     27  C   UNL     1       4.524   5.903  17.788  0.00  0.00    +0.000 C 
ENDBRANCH  17  25
ENDBRANCH  16  18
ENDBRANCH   1  16
TORSDOF 3
ENDMDL
MODEL 9
REMARK VINA RESULT:      -6.9      4.833      8.834
REMARK  Name = 
REMARK  4 active torsions:
REMARK  status: ('A' for Active; 'I' for Inactive)
REMARK    1  A    between atoms: C_1  and  C_2
REMARK    2  A    between atoms: C_5  and  N_6
REMARK    3  A    between atoms: C_7  and  C_9
REMARK    4  A    between atoms: C_9  and  N_10
REMARK                            x       y       z     vdW  Elec       q    Type
REMARK                         _______ _______ _______ _____ _____    ______ ____
ROOT
ATOM      1  N   UNL     1       0.529  11.206  18.844  0.00  0.00    +0.000 N 
ATOM      2  C   UNL     1       0.868  12.061  19.910  0.00  0.00    +0.000 C 
ATOM      3  O   UNL     1       2.002  12.507  20.090  0.00  0.00    +0.000 OA
ATOM      4  C   UNL     1      -0.201  12.082  20.979  0.00  0.00    +0.000 C 
ATOM      5  C   UNL     1      -0.190  13.161  22.042  0.00  0.00    +0.000 C 
ATOM      6  C   UNL     1      -1.519  12.814  22.730  0.00  0.00    +0.000 C 
ATOM      7  C   UNL     1      -2.472  12.541  21.541  0.00  0.00    +0.000 C 
ATOM      8  N   UNL     1      -1.552  12.209  20.461  0.00  0.00    +0.000 N 
ATOM      9  C   UNL     1      -1.881  11.574  19.296  0.00  0.00    +0.000 A 
ATOM     10  N   UNL     1      -3.181  11.551  18.931  0.00  0.00    +0.000 NA
ATOM     11  C   UNL     1      -3.491  10.953  17.755  0.00  0.00    +0.000 A 
ATOM     12  C   UNL     1      -2.568  10.319  16.948  0.00  0.00    +0.000 A 
ATOM     13 CL   UNL     1      -3.042   9.602  15.457  0.00  0.00    +0.000 Cl
ATOM     14  C   UNL     1      -1.232  10.319  17.331  0.00  0.00    +0.000 A 
ATOM     15  C   UNL     1      -0.851  11.000  18.496  0.00  0.00    +0.000 A 
ENDROOT
BRANCH   1  16
ATOM     16  C   UNL     1       1.610  10.390  18.313  0.00  0.00    +0.000 C 
BRANCH  16  18
ATOM     17  N   UNL     1       2.346   8.041  18.482  0.00  0.00    +0.000 N 
ATOM     18  C   UNL     1       1.594   9.047  19.076  0.00  0.00    +0.000 C 
ATOM     19  O   UNL     1       1.033   8.920  20.162  0.00  0.00    +0.000 OA
ATOM     20  H   UNL     1       2.722   8.204  17.549  0.00  0.00    +0.000 HD
BRANCH  17  25
ATOM     21  C   UNL     1       1.532   2.721  20.614  0.00  0.00    +0.000 C 
ATOM     22  C   UNL     1       1.331   4.111  20.008  0.00  0.00    +0.000 C 
ATOM     23  C   UNL     1       1.797   5.199  20.986  0.00  0.00    +0.000 C 
ATOM     24  C   UNL     1       1.689   6.600  20.379  0.00  0.00    +0.000 C 
ATOM     25  C   UNL     1       2.459   6.701  19.056  0.00  0.00    +0.000 C 
ATOM     26  C   UNL     1       1.958   5.635  18.074  0.00  0.00    +0.000 C 
ATOM     27  C   UNL     1       2.065   4.228  18.665  0.00  0.00    +0.000 C 
ENDBRANCH  17  25
ENDBRANCH  16  18
ENDBRANCH   1  16
TORSDOF 3
ENDMDL
