MODEL 1
REMARK VINA RESULT:      -6.5      0.000      0.000
REMARK  Name = 
REMARK  12 active torsions:
REMARK  status: ('A' for Active; 'I' for Inactive)
REMARK    1  A    between atoms: C_2  and  C_3
REMARK    2  A    between atoms: C_2  and  C_9
REMARK    3  A    between atoms: C_12  and  O_13
REMARK    4  A    between atoms: O_13  and  C_14
REMARK    5  A    between atoms: C_14  and  C_15
REMARK    6  A    between atoms: C_19  and  C_20
REMARK    7  A    between atoms: C_20  and  C_21
REMARK    8  A    between atoms: C_21  and  C_22
REMARK    9  A    between atoms: C_22  and  C_23
REMARK   10  A    between atoms: C_23  and  C_24
REMARK   11  A    between atoms: C_24  and  C_25
REMARK   12  A    between atoms: C_26  and  C_27
REMARK                            x       y       z     vdW  Elec       q    Type
REMARK                         _______ _______ _______ _____ _____    ______ ____
ROOT
ATOM      1  C   UNL     1      -2.108  12.627  19.924  0.00  0.00    +0.000 C 
ATOM      2  C   UNL     1      -0.972  13.070  21.064  0.00  0.00    +0.000 C 
ATOM      3  C   UNL     1      -1.419  12.823  22.457  0.00  0.00    +0.000 C 
ATOM      4  C   UNL     1      -2.820  13.319  22.385  0.00  0.00    +0.000 C 
ATOM      5  C   UNL     1      -3.062  13.587  20.835  0.00  0.00    +0.000 C 
ATOM      6  C   UNL     1      -4.535  13.342  20.602  0.00  0.00    +0.000 C 
ATOM      7  C   UNL     1      -4.586  12.157  19.717  0.00  0.00    +0.000 C 
ATOM      8  C   UNL     1      -3.342  11.774  19.331  0.00  0.00    +0.000 C 
ENDROOT
BRANCH   8   9
ATOM      9  C   UNL     1      -3.292  11.062  17.973  0.00  0.00    +0.000 A 
ATOM     10  C   UNL     1      -3.751  11.695  16.788  0.00  0.00    +0.000 A 
ATOM     11  C   UNL     1      -3.607  11.119  15.516  0.00  0.00    +0.000 A 
ATOM     12  C   UNL     1      -2.907   9.930  15.376  0.00  0.00    +0.000 A 
ATOM     13  C   UNL     1      -2.434   9.287  16.514  0.00  0.00    +0.000 A 
ATOM     14  C   UNL     1      -2.687   9.815  17.793  0.00  0.00    +0.000 A 
ENDBRANCH   8   9
BRANCH   1  16
ATOM     15  C   UNL     1      -0.549  13.209  18.073  0.00  0.00    +0.000 C 
ATOM     16  C   UNL     1      -0.895  12.277  19.012  0.00  0.00    +0.000 C 
BRANCH  16  17
ATOM     17  C   UNL     1      -0.036  11.075  19.177  0.00  0.00    +0.000 A 
ATOM     18  C   UNL     1      -0.165  10.246  20.316  0.00  0.00    +0.000 A 
ATOM     19  C   UNL     1       0.579   9.080  20.482  0.00  0.00    +0.000 A 
ATOM     20  C   UNL     1       1.472   8.702  19.495  0.00  0.00    +0.000 A 
ATOM     21  C   UNL     1       1.604   9.485  18.342  0.00  0.00    +0.000 A 
ATOM     22  C   UNL     1       0.858  10.665  18.188  0.00  0.00    +0.000 A 
ENDBRANCH  16  17
ENDBRANCH   1  16
BRANCH   4  23
ATOM     23  O   UNL     1      -3.632  12.293  22.998  0.00  0.00    +0.000 OA
BRANCH  23  24
ATOM     24  C   UNL     1      -4.202  12.639  24.192  0.00  0.00    +0.000 C 
ATOM     25  C   UNL     1      -4.053  14.106  24.463  0.00  0.00    +0.000 C 
ATOM     26  O   UNL     1      -4.816  11.878  24.929  0.00  0.00    +0.000 OA
ENDBRANCH  23  24
ENDBRANCH   4  23
BRANCH   7  27
ATOM     27  C   UNL     1      -5.990  11.690  19.311  0.00  0.00    +0.000 C 
BRANCH  27  28
ATOM     28  C   UNL     1      -7.008  12.769  19.676  0.00  0.00    +0.000 C 
BRANCH  28  29
ATOM     29  C   UNL     1      -7.846  13.426  18.582  0.00  0.00    +0.000 C 
BRANCH  29  30
ATOM     30  C   UNL     1      -6.823  14.167  17.702  0.00  0.00    +0.000 C 
BRANCH  30  31
ATOM     31  C   UNL     1      -7.290  14.540  16.306  0.00  0.00    +0.000 C 
ATOM     32  C   UNL     1      -7.305  16.059  16.174  0.00  0.00    +0.000 C 
ENDBRANCH  30  31
ENDBRANCH  29  30
ENDBRANCH  28  29
ENDBRANCH  27  28
ENDBRANCH   7  27
TORSDOF 10
ENDMDL
MODEL 2
REMARK VINA RESULT:      -6.3      1.661      2.940
REMARK  Name = 
REMARK  12 active torsions:
REMARK  status: ('A' for Active; 'I' for Inactive)
REMARK    1  A    between atoms: C_2  and  C_3
REMARK    2  A    between atoms: C_2  and  C_9
REMARK    3  A    between atoms: C_12  and  O_13
REMARK    4  A    between atoms: O_13  and  C_14
REMARK    5  A    between atoms: C_14  and  C_15
REMARK    6  A    between atoms: C_19  and  C_20
REMARK    7  A    between atoms: C_20  and  C_21
REMARK    8  A    between atoms: C_21  and  C_22
REMARK    9  A    between atoms: C_22  and  C_23
REMARK   10  A    between atoms: C_23  and  C_24
REMARK   11  A    between atoms: C_24  and  C_25
REMARK   12  A    between atoms: C_26  and  C_27
REMARK                            x       y       z     vdW  Elec       q    Type
REMARK                         _______ _______ _______ _____ _____    ______ ____
ROOT
ATOM      1  C   UNL     1      -1.698  11.993  20.812  0.00  0.00    +0.000 C 
ATOM      2  C   UNL     1      -0.865  11.882  22.255  0.00  0.00    +0.000 C 
ATOM      3  C   UNL     1      -1.759  11.756  23.433  0.00  0.00    +0.000 C 
ATOM      4  C   UNL     1      -2.793  12.773  23.099  0.00  0.00    +0.000 C 
ATOM      5  C   UNL     1      -2.454  13.202  21.605  0.00  0.00    +0.000 C 
ATOM      6  C   UNL     1      -3.776  13.578  20.976  0.00  0.00    +0.000 C 
ATOM      7  C   UNL     1      -3.997  12.564  19.922  0.00  0.00    +0.000 C 
ATOM      8  C   UNL     1      -2.927  11.738  19.799  0.00  0.00    +0.000 C 
ENDROOT
BRANCH   8   9
ATOM      9  C   UNL     1      -2.745  11.142  18.397  0.00  0.00    +0.000 A 
ATOM     10  C   UNL     1      -3.220   9.842  18.078  0.00  0.00    +0.000 A 
ATOM     11  C   UNL     1      -3.177   9.317  16.777  0.00  0.00    +0.000 A 
ATOM     12  C   UNL     1      -2.748  10.116  15.728  0.00  0.00    +0.000 A 
ATOM     13  C   UNL     1      -2.285  11.397  16.001  0.00  0.00    +0.000 A 
ATOM     14  C   UNL     1      -2.223  11.870  17.325  0.00  0.00    +0.000 A 
ENDBRANCH   8   9
BRANCH   1  16
ATOM     15  C   UNL     1      -0.518   9.874  20.252  0.00  0.00    +0.000 C 
ATOM     16  C   UNL     1      -0.488  11.239  20.184  0.00  0.00    +0.000 C 
BRANCH  16  17
ATOM     17  C   UNL     1       0.611  11.892  19.426  0.00  0.00    +0.000 A 
ATOM     18  C   UNL     1       1.505  11.123  18.643  0.00  0.00    +0.000 A 
ATOM     19  C   UNL     1       2.512  11.700  17.873  0.00  0.00    +0.000 A 
ATOM     20  C   UNL     1       2.644  13.077  17.853  0.00  0.00    +0.000 A 
ATOM     21  C   UNL     1       1.759  13.869  18.593  0.00  0.00    +0.000 A 
ATOM     22  C   UNL     1       0.753  13.279  19.377  0.00  0.00    +0.000 A 
ENDBRANCH  16  17
ENDBRANCH   1  16
BRANCH   4  23
ATOM     23  O   UNL     1      -4.066  12.124  23.313  0.00  0.00    +0.000 OA
BRANCH  23  24
ATOM     24  C   UNL     1      -4.793  12.604  24.367  0.00  0.00    +0.000 C 
ATOM     25  C   UNL     1      -5.938  13.452  23.900  0.00  0.00    +0.000 C 
ATOM     26  O   UNL     1      -4.592  12.335  25.545  0.00  0.00    +0.000 OA
ENDBRANCH  23  24
ENDBRANCH   4  23
BRANCH   7  27
ATOM     27  C   UNL     1      -5.289  12.719  19.109  0.00  0.00    +0.000 C 
BRANCH  27  28
ATOM     28  C   UNL     1      -6.474  12.857  20.063  0.00  0.00    +0.000 C 
BRANCH  28  29
ATOM     29  C   UNL     1      -7.010  11.628  20.793  0.00  0.00    +0.000 C 
BRANCH  29  30
ATOM     30  C   UNL     1      -7.424  10.659  19.670  0.00  0.00    +0.000 C 
BRANCH  30  31
ATOM     31  C   UNL     1      -6.865   9.250  19.765  0.00  0.00    +0.000 C 
ATOM     32  C   UNL     1      -7.785   8.408  20.643  0.00  0.00    +0.000 C 
ENDBRANCH  30  31
ENDBRANCH  29  30
ENDBRANCH  28  29
ENDBRANCH  27  28
ENDBRANCH   7  27
TORSDOF 10
ENDMDL
MODEL 3
REMARK VINA RESULT:      -6.2      1.898      4.475
REMARK  Name = 
REMARK  12 active torsions:
REMARK  status: ('A' for Active; 'I' for Inactive)
REMARK    1  A    between atoms: C_2  and  C_3
REMARK    2  A    between atoms: C_2  and  C_9
REMARK    3  A    between atoms: C_12  and  O_13
REMARK    4  A    between atoms: O_13  and  C_14
REMARK    5  A    between atoms: C_14  and  C_15
REMARK    6  A    between atoms: C_19  and  C_20
REMARK    7  A    between atoms: C_20  and  C_21
REMARK    8  A    between atoms: C_21  and  C_22
REMARK    9  A    between atoms: C_22  and  C_23
REMARK   10  A    between atoms: C_23  and  C_24
REMARK   11  A    between atoms: C_24  and  C_25
REMARK   12  A    between atoms: C_26  and  C_27
REMARK                            x       y       z     vdW  Elec       q    Type
REMARK                         _______ _______ _______ _____ _____    ______ ____
ROOT
ATOM      1  C   UNL     1      -2.291  12.484  20.442  0.00  0.00    +0.000 C 
ATOM      2  C   UNL     1      -2.907  13.522  21.595  0.00  0.00    +0.000 C 
ATOM      3  C   UNL     1      -4.299  13.191  21.989  0.00  0.00    +0.000 C 
ATOM      4  C   UNL     1      -4.900  12.913  20.656  0.00  0.00    +0.000 C 
ATOM      5  C   UNL     1      -3.659  12.905  19.661  0.00  0.00    +0.000 C 
ATOM      6  C   UNL     1      -4.026  11.939  18.557  0.00  0.00    +0.000 C 
ATOM      7  C   UNL     1      -3.063  10.824  18.695  0.00  0.00    +0.000 C 
ATOM      8  C   UNL     1      -2.137  11.086  19.653  0.00  0.00    +0.000 C 
ENDROOT
BRANCH   8   9
ATOM      9  C   UNL     1      -0.785  10.393  19.433  0.00  0.00    +0.000 A 
ATOM     10  C   UNL     1       0.067  10.759  18.358  0.00  0.00    +0.000 A 
ATOM     11  C   UNL     1       1.358  10.230  18.201  0.00  0.00    +0.000 A 
ATOM     12  C   UNL     1       1.879   9.389  19.174  0.00  0.00    +0.000 A 
ATOM     13  C   UNL     1       1.076   9.018  20.245  0.00  0.00    +0.000 A 
ATOM     14  C   UNL     1      -0.257   9.461  20.330  0.00  0.00    +0.000 A 
ENDBRANCH   8   9
BRANCH   1  16
ATOM     15  C   UNL     1      -0.752  12.182  22.376  0.00  0.00    +0.000 C 
ATOM     16  C   UNL     1      -0.912  12.719  21.128  0.00  0.00    +0.000 C 
BRANCH  16  17
ATOM     17  C   UNL     1       0.254  13.371  20.476  0.00  0.00    +0.000 A 
ATOM     18  C   UNL     1       1.575  13.025  20.848  0.00  0.00    +0.000 A 
ATOM     19  C   UNL     1       2.695  13.569  20.223  0.00  0.00    +0.000 A 
ATOM     20  C   UNL     1       2.520  14.472  19.189  0.00  0.00    +0.000 A 
ATOM     21  C   UNL     1       1.228  14.814  18.778  0.00  0.00    +0.000 A 
ATOM     22  C   UNL     1       0.103  14.269  19.421  0.00  0.00    +0.000 A 
ENDBRANCH  16  17
ENDBRANCH   1  16
BRANCH   4  23
ATOM     23  O   UNL     1      -5.620  11.669  20.803  0.00  0.00    +0.000 OA
BRANCH  23  24
ATOM     24  C   UNL     1      -6.978  11.793  20.914  0.00  0.00    +0.000 C 
ATOM     25  C   UNL     1      -7.522  12.763  19.908  0.00  0.00    +0.000 C 
ATOM     26  O   UNL     1      -7.685  11.156  21.684  0.00  0.00    +0.000 OA
ENDBRANCH  23  24
ENDBRANCH   4  23
BRANCH   7  27
ATOM     27  C   UNL     1      -3.210   9.688  17.675  0.00  0.00    +0.000 C 
BRANCH  27  28
ATOM     28  C   UNL     1      -2.593  10.119  16.345  0.00  0.00    +0.000 C 
BRANCH  28  29
ATOM     29  C   UNL     1      -3.451  10.832  15.304  0.00  0.00    +0.000 C 
BRANCH  29  30
ATOM     30  C   UNL     1      -3.246  10.022  14.011  0.00  0.00    +0.000 C 
BRANCH  30  31
ATOM     31  C   UNL     1      -4.510   9.610  13.275  0.00  0.00    +0.000 C 
ATOM     32  C   UNL     1      -4.307   9.823  11.780  0.00  0.00    +0.000 C 
ENDBRANCH  30  31
ENDBRANCH  29  30
ENDBRANCH  28  29
ENDBRANCH  27  28
ENDBRANCH   7  27
TORSDOF 10
ENDMDL
MODEL 4
REMARK VINA RESULT:      -6.1      8.386     12.029
REMARK  Name = 
REMARK  12 active torsions:
REMARK  status: ('A' for Active; 'I' for Inactive)
REMARK    1  A    between atoms: C_2  and  C_3
REMARK    2  A    between atoms: C_2  and  C_9
REMARK    3  A    between atoms: C_12  and  O_13
REMARK    4  A    between atoms: O_13  and  C_14
REMARK    5  A    between atoms: C_14  and  C_15
REMARK    6  A    between atoms: C_19  and  C_20
REMARK    7  A    between atoms: C_20  and  C_21
REMARK    8  A    between atoms: C_21  and  C_22
REMARK    9  A    between atoms: C_22  and  C_23
REMARK   10  A    between atoms: C_23  and  C_24
REMARK   11  A    between atoms: C_24  and  C_25
REMARK   12  A    between atoms: C_26  and  C_27
REMARK                            x       y       z     vdW  Elec       q    Type
REMARK                         _______ _______ _______ _____ _____    ______ ____
ROOT
ATOM      1  C   UNL     1       6.159  14.465  22.386  0.00  0.00    +0.000 C 
ATOM      2  C   UNL     1       5.071  14.850  23.592  0.00  0.00    +0.000 C 
ATOM      3  C   UNL     1       5.587  14.562  24.953  0.00  0.00    +0.000 C 
ATOM      4  C   UNL     1       6.207  13.227  24.732  0.00  0.00    +0.000 C 
ATOM      5  C   UNL     1       6.154  13.026  23.155  0.00  0.00    +0.000 C 
ATOM      6  C   UNL     1       7.352  12.172  22.810  0.00  0.00    +0.000 C 
ATOM      7  C   UNL     1       8.220  13.049  21.993  0.00  0.00    +0.000 C 
ATOM      8  C   UNL     1       7.620  14.240  21.739  0.00  0.00    +0.000 C 
ENDROOT
BRANCH   8   9
ATOM      9  C   UNL     1       8.069  14.909  20.433  0.00  0.00    +0.000 A 
ATOM     10  C   UNL     1       7.654  14.415  19.168  0.00  0.00    +0.000 A 
ATOM     11  C   UNL     1       7.948  15.075  17.964  0.00  0.00    +0.000 A 
ATOM     12  C   UNL     1       8.583  16.307  17.993  0.00  0.00    +0.000 A 
ATOM     13  C   UNL     1       8.995  16.826  19.215  0.00  0.00    +0.000 A 
ATOM     14  C   UNL     1       8.799  16.100  20.404  0.00  0.00    +0.000 A 
ENDBRANCH   8   9
BRANCH   1  16
ATOM     15  C   UNL     1       5.844  16.915  22.072  0.00  0.00    +0.000 C 
ATOM     16  C   UNL     1       5.547  15.665  21.603  0.00  0.00    +0.000 C 
BRANCH  16  17
ATOM     17  C   UNL     1       4.778  15.541  20.337  0.00  0.00    +0.000 A 
ATOM     18  C   UNL     1       4.829  16.563  19.359  0.00  0.00    +0.000 A 
ATOM     19  C   UNL     1       4.170  16.462  18.136  0.00  0.00    +0.000 A 
ATOM     20  C   UNL     1       3.448  15.317  17.850  0.00  0.00    +0.000 A 
ATOM     21  C   UNL     1       3.400  14.275  18.783  0.00  0.00    +0.000 A 
ATOM     22  C   UNL     1       4.058  14.390  20.020  0.00  0.00    +0.000 A 
ENDBRANCH  16  17
ENDBRANCH   1  16
BRANCH   4  23
ATOM     23  O   UNL     1       7.520  13.300  25.331  0.00  0.00    +0.000 OA
BRANCH  23  24
ATOM     24  C   UNL     1       7.574  12.964  26.655  0.00  0.00    +0.000 C 
ATOM     25  C   UNL     1       6.909  11.644  26.912  0.00  0.00    +0.000 C 
ATOM     26  O   UNL     1       8.142  13.610  27.526  0.00  0.00    +0.000 OA
ENDBRANCH  23  24
ENDBRANCH   4  23
BRANCH   7  27
ATOM     27  C   UNL     1       9.526  12.416  21.495  0.00  0.00    +0.000 C 
BRANCH  27  28
ATOM     28  C   UNL     1       9.208  11.124  20.746  0.00  0.00    +0.000 C 
BRANCH  28  29
ATOM     29  C   UNL     1       9.913  10.816  19.427  0.00  0.00    +0.000 C 
BRANCH  29  30
ATOM     30  C   UNL     1      10.530  12.158  18.994  0.00  0.00    +0.000 C 
BRANCH  30  31
ATOM     31  C   UNL     1      10.467  12.472  17.509  0.00  0.00    +0.000 C 
ATOM     32  C   UNL     1      11.317  13.706  17.225  0.00  0.00    +0.000 C 
ENDBRANCH  30  31
ENDBRANCH  29  30
ENDBRANCH  28  29
ENDBRANCH  27  28
ENDBRANCH   7  27
TORSDOF 10
ENDMDL
MODEL 5
REMARK VINA RESULT:      -6.1      8.525     12.212
REMARK  Name = 
REMARK  12 active torsions:
REMARK  status: ('A' for Active; 'I' for Inactive)
REMARK    1  A    between atoms: C_2  and  C_3
REMARK    2  A    between atoms: C_2  and  C_9
REMARK    3  A    between atoms: C_12  and  O_13
REMARK    4  A    between atoms: O_13  and  C_14
REMARK    5  A    between atoms: C_14  and  C_15
REMARK    6  A    between atoms: C_19  and  C_20
REMARK    7  A    between atoms: C_20  and  C_21
REMARK    8  A    between atoms: C_21  and  C_22
REMARK    9  A    between atoms: C_22  and  C_23
REMARK   10  A    between atoms: C_23  and  C_24
REMARK   11  A    between atoms: C_24  and  C_25
REMARK   12  A    between atoms: C_26  and  C_27
REMARK                            x       y       z     vdW  Elec       q    Type
REMARK                         _______ _______ _______ _____ _____    ______ ____
ROOT
ATOM      1  C   UNL     1       6.240  14.361  22.407  0.00  0.00    +0.000 C 
ATOM      2  C   UNL     1       5.122  14.723  23.593  0.00  0.00    +0.000 C 
ATOM      3  C   UNL     1       5.602  14.403  24.960  0.00  0.00    +0.000 C 
ATOM      4  C   UNL     1       6.223  13.071  24.725  0.00  0.00    +0.000 C 
ATOM      5  C   UNL     1       6.209  12.905  23.143  0.00  0.00    +0.000 C 
ATOM      6  C   UNL     1       7.412  12.054  22.809  0.00  0.00    +0.000 C 
ATOM      7  C   UNL     1       8.304  12.945  22.034  0.00  0.00    +0.000 C 
ATOM      8  C   UNL     1       7.715  14.144  21.792  0.00  0.00    +0.000 C 
ENDROOT
BRANCH   8   9
ATOM      9  C   UNL     1       8.200  14.841  20.513  0.00  0.00    +0.000 A 
ATOM     10  C   UNL     1       9.129  15.913  20.562  0.00  0.00    +0.000 A 
ATOM     11  C   UNL     1       9.682  16.489  19.407  0.00  0.00    +0.000 A 
ATOM     12  C   UNL     1       9.398  15.944  18.164  0.00  0.00    +0.000 A 
ATOM     13  C   UNL     1       8.500  14.887  18.080  0.00  0.00    +0.000 A 
ATOM     14  C   UNL     1       7.862  14.395  19.233  0.00  0.00    +0.000 A 
ENDBRANCH   8   9
BRANCH   1  16
ATOM     15  C   UNL     1       5.974  16.820  22.117  0.00  0.00    +0.000 C 
ATOM     16  C   UNL     1       5.652  15.581  21.636  0.00  0.00    +0.000 C 
BRANCH  16  17
ATOM     17  C   UNL     1       4.881  15.485  20.369  0.00  0.00    +0.000 A 
ATOM     18  C   UNL     1       4.964  16.508  19.394  0.00  0.00    +0.000 A 
ATOM     19  C   UNL     1       4.303  16.431  18.170  0.00  0.00    +0.000 A 
ATOM     20  C   UNL     1       3.546  15.311  17.880  0.00  0.00    +0.000 A 
ATOM     21  C   UNL     1       3.465  14.268  18.810  0.00  0.00    +0.000 A 
ATOM     22  C   UNL     1       4.125  14.358  20.047  0.00  0.00    +0.000 A 
ENDBRANCH  16  17
ENDBRANCH   1  16
BRANCH   4  23
ATOM     23  O   UNL     1       7.520  13.125  25.358  0.00  0.00    +0.000 OA
BRANCH  23  24
ATOM     24  C   UNL     1       7.542  12.742  26.671  0.00  0.00    +0.000 C 
ATOM     25  C   UNL     1       8.197  13.781  27.532  0.00  0.00    +0.000 C 
ATOM     26  O   UNL     1       7.040  11.719  27.118  0.00  0.00    +0.000 OA
ENDBRANCH  23  24
ENDBRANCH   4  23
BRANCH   7  27
ATOM     27  C   UNL     1       9.619  12.318  21.555  0.00  0.00    +0.000 C 
BRANCH  27  28
ATOM     28  C   UNL     1       9.313  11.154  20.614  0.00  0.00    +0.000 C 
BRANCH  28  29
ATOM     29  C   UNL     1       9.775  11.209  19.160  0.00  0.00    +0.000 C 
BRANCH  29  30
ATOM     30  C   UNL     1      11.260  11.605  19.239  0.00  0.00    +0.000 C 
BRANCH  30  31
ATOM     31  C   UNL     1      11.623  12.955  18.645  0.00  0.00    +0.000 C 
ATOM     32  C   UNL     1      11.430  12.902  17.134  0.00  0.00    +0.000 C 
ENDBRANCH  30  31
ENDBRANCH  29  30
ENDBRANCH  28  29
ENDBRANCH  27  28
ENDBRANCH   7  27
TORSDOF 10
ENDMDL
MODEL 6
REMARK VINA RESULT:      -6.0      8.154     11.868
REMARK  Name = 
REMARK  12 active torsions:
REMARK  status: ('A' for Active; 'I' for Inactive)
REMARK    1  A    between atoms: C_2  and  C_3
REMARK    2  A    between atoms: C_2  and  C_9
REMARK    3  A    between atoms: C_12  and  O_13
REMARK    4  A    between atoms: O_13  and  C_14
REMARK    5  A    between atoms: C_14  and  C_15
REMARK    6  A    between atoms: C_19  and  C_20
REMARK    7  A    between atoms: C_20  and  C_21
REMARK    8  A    between atoms: C_21  and  C_22
REMARK    9  A    between atoms: C_22  and  C_23
REMARK   10  A    between atoms: C_23  and  C_24
REMARK   11  A    between atoms: C_24  and  C_25
REMARK   12  A    between atoms: C_26  and  C_27
REMARK                            x       y       z     vdW  Elec       q    Type
REMARK                         _______ _______ _______ _____ _____    ______ ____
ROOT
ATOM      1  C   UNL     1       6.227  14.311  22.346  0.00  0.00    +0.000 C 
ATOM      2  C   UNL     1       5.074  14.625  23.512  0.00  0.00    +0.000 C 
ATOM      3  C   UNL     1       5.543  14.323  24.888  0.00  0.00    +0.000 C 
ATOM      4  C   UNL     1       6.223  13.018  24.663  0.00  0.00    +0.000 C 
ATOM      5  C   UNL     1       6.244  12.855  23.081  0.00  0.00    +0.000 C 
ATOM      6  C   UNL     1       7.488  12.055  22.768  0.00  0.00    +0.000 C 
ATOM      7  C   UNL     1       8.355  12.984  22.010  0.00  0.00    +0.000 C 
ATOM      8  C   UNL     1       7.721  14.157  21.758  0.00  0.00    +0.000 C 
ENDROOT
BRANCH   8   9
ATOM      9  C   UNL     1       8.198  14.875  20.489  0.00  0.00    +0.000 A 
ATOM     10  C   UNL     1       7.865  14.392  19.195  0.00  0.00    +0.000 A 
ATOM     11  C   UNL     1       8.184  15.091  18.020  0.00  0.00    +0.000 A 
ATOM     12  C   UNL     1       8.760  16.350  18.104  0.00  0.00    +0.000 A 
ATOM     13  C   UNL     1       9.091  16.858  19.354  0.00  0.00    +0.000 A 
ATOM     14  C   UNL     1       8.875  16.098  20.518  0.00  0.00    +0.000 A 
ENDBRANCH   8   9
BRANCH   1  16
ATOM     15  C   UNL     1       5.849  16.756  22.063  0.00  0.00    +0.000 C 
ATOM     16  C   UNL     1       5.602  15.506  21.566  0.00  0.00    +0.000 C 
BRANCH  16  17
ATOM     17  C   UNL     1       4.873  15.382  20.277  0.00  0.00    +0.000 A 
ATOM     18  C   UNL     1       4.019  14.280  20.033  0.00  0.00    +0.000 A 
ATOM     19  C   UNL     1       3.274  14.154  18.863  0.00  0.00    +0.000 A 
ATOM     20  C   UNL     1       3.353  15.146  17.902  0.00  0.00    +0.000 A 
ATOM     21  C   UNL     1       4.166  16.263  18.123  0.00  0.00    +0.000 A 
ATOM     22  C   UNL     1       4.923  16.377  19.301  0.00  0.00    +0.000 A 
ENDBRANCH  16  17
ENDBRANCH   1  16
BRANCH   4  23
ATOM     23  O   UNL     1       7.505  13.126  25.319  0.00  0.00    +0.000 OA
BRANCH  23  24
ATOM     24  C   UNL     1       7.529  12.707  26.621  0.00  0.00    +0.000 C 
ATOM     25  C   UNL     1       8.183  13.723  27.510  0.00  0.00    +0.000 C 
ATOM     26  O   UNL     1       7.028  11.672  27.040  0.00  0.00    +0.000 OA
ENDBRANCH  23  24
ENDBRANCH   4  23
BRANCH   7  27
ATOM     27  C   UNL     1       9.704  12.413  21.554  0.00  0.00    +0.000 C 
BRANCH  27  28
ATOM     28  C   UNL     1       9.467  11.323  20.511  0.00  0.00    +0.000 C 
BRANCH  28  29
ATOM     29  C   UNL     1      10.026  11.484  19.100  0.00  0.00    +0.000 C 
BRANCH  29  30
ATOM     30  C   UNL     1       9.083  10.654  18.211  0.00  0.00    +0.000 C 
BRANCH  30  31
ATOM     31  C   UNL     1       8.718   9.274  18.731  0.00  0.00    +0.000 C 
ATOM     32  C   UNL     1       7.877   8.554  17.683  0.00  0.00    +0.000 C 
ENDBRANCH  30  31
ENDBRANCH  29  30
ENDBRANCH  28  29
ENDBRANCH  27  28
ENDBRANCH   7  27
TORSDOF 10
ENDMDL
MODEL 7
REMARK VINA RESULT:      -5.9      8.104     10.620
REMARK  Name = 
REMARK  12 active torsions:
REMARK  status: ('A' for Active; 'I' for Inactive)
REMARK    1  A    between atoms: C_2  and  C_3
REMARK    2  A    between atoms: C_2  and  C_9
REMARK    3  A    between atoms: C_12  and  O_13
REMARK    4  A    between atoms: O_13  and  C_14
REMARK    5  A    between atoms: C_14  and  C_15
REMARK    6  A    between atoms: C_19  and  C_20
REMARK    7  A    between atoms: C_20  and  C_21
REMARK    8  A    between atoms: C_21  and  C_22
REMARK    9  A    between atoms: C_22  and  C_23
REMARK   10  A    between atoms: C_23  and  C_24
REMARK   11  A    between atoms: C_24  and  C_25
REMARK   12  A    between atoms: C_26  and  C_27
REMARK                            x       y       z     vdW  Elec       q    Type
REMARK                         _______ _______ _______ _____ _____    ______ ____
ROOT
ATOM      1  C   UNL     1       7.793  13.889  23.231  0.00  0.00    +0.000 C 
ATOM      2  C   UNL     1       8.694  12.813  24.136  0.00  0.00    +0.000 C 
ATOM      3  C   UNL     1       7.912  11.632  24.579  0.00  0.00    +0.000 C 
ATOM      4  C   UNL     1       6.648  12.288  25.010  0.00  0.00    +0.000 C 
ATOM      5  C   UNL     1       6.804  13.795  24.525  0.00  0.00    +0.000 C 
ATOM      6  C   UNL     1       5.402  14.277  24.227  0.00  0.00    +0.000 C 
ATOM      7  C   UNL     1       5.386  14.516  22.767  0.00  0.00    +0.000 C 
ATOM      8  C   UNL     1       6.618  14.342  22.224  0.00  0.00    +0.000 C 
ENDROOT
BRANCH   8   9
ATOM      9  C   UNL     1       6.874  15.169  20.957  0.00  0.00    +0.000 A 
ATOM     10  C   UNL     1       6.972  14.555  19.680  0.00  0.00    +0.000 A 
ATOM     11  C   UNL     1       7.085  15.294  18.491  0.00  0.00    +0.000 A 
ATOM     12  C   UNL     1       7.002  16.678  18.532  0.00  0.00    +0.000 A 
ATOM     13  C   UNL     1       6.896  17.311  19.764  0.00  0.00    +0.000 A 
ATOM     14  C   UNL     1       6.903  16.566  20.957  0.00  0.00    +0.000 A 
ENDBRANCH   8   9
BRANCH   1  16
ATOM     15  C   UNL     1       9.815  15.297  22.869  0.00  0.00    +0.000 C 
ATOM     16  C   UNL     1       9.120  14.188  22.471  0.00  0.00    +0.000 C 
BRANCH  16  17
ATOM     17  C   UNL     1       9.723  13.297  21.446  0.00  0.00    +0.000 A 
ATOM     18  C   UNL     1       9.198  12.003  21.215  0.00  0.00    +0.000 A 
ATOM     19  C   UNL     1       9.697  11.158  20.226  0.00  0.00    +0.000 A 
ATOM     20  C   UNL     1      10.735  11.595  19.425  0.00  0.00    +0.000 A 
ATOM     21  C   UNL     1      11.260  12.880  19.608  0.00  0.00    +0.000 A 
ATOM     22  C   UNL     1      10.759  13.722  20.615  0.00  0.00    +0.000 A 
ENDBRANCH  16  17
ENDBRANCH   1  16
BRANCH   4  23
ATOM     23  O   UNL     1       5.582  11.522  24.408  0.00  0.00    +0.000 OA
BRANCH  23  24
ATOM     24  C   UNL     1       4.903  10.699  25.263  0.00  0.00    +0.000 C 
ATOM     25  C   UNL     1       5.123  11.096  26.693  0.00  0.00    +0.000 C 
ATOM     26  O   UNL     1       4.154   9.791  24.926  0.00  0.00    +0.000 OA
ENDBRANCH  23  24
ENDBRANCH   4  23
BRANCH   7  27
ATOM     27  C   UNL     1       4.059  15.027  22.191  0.00  0.00    +0.000 C 
BRANCH  27  28
ATOM     28  C   UNL     1       3.426  13.934  21.331  0.00  0.00    +0.000 C 
BRANCH  28  29
ATOM     29  C   UNL     1       3.337  14.113  19.817  0.00  0.00    +0.000 C 
BRANCH  29  30
ATOM     30  C   UNL     1       3.312  15.638  19.607  0.00  0.00    +0.000 C 
BRANCH  30  31
ATOM     31  C   UNL     1       3.302  16.113  18.164  0.00  0.00    +0.000 C 
ATOM     32  C   UNL     1       2.173  17.120  17.980  0.00  0.00    +0.000 C 
ENDBRANCH  30  31
ENDBRANCH  29  30
ENDBRANCH  28  29
ENDBRANCH  27  28
ENDBRANCH   7  27
TORSDOF 10
ENDMDL
MODEL 8
REMARK VINA RESULT:      -5.9      1.651      2.972
REMARK  Name = 
REMARK  12 active torsions:
REMARK  status: ('A' for Active; 'I' for Inactive)
REMARK    1  A    between atoms: C_2  and  C_3
REMARK    2  A    between atoms: C_2  and  C_9
REMARK    3  A    between atoms: C_12  and  O_13
REMARK    4  A    between atoms: O_13  and  C_14
REMARK    5  A    between atoms: C_14  and  C_15
REMARK    6  A    between atoms: C_19  and  C_20
REMARK    7  A    between atoms: C_20  and  C_21
REMARK    8  A    between atoms: C_21  and  C_22
REMARK    9  A    between atoms: C_22  and  C_23
REMARK   10  A    between atoms: C_23  and  C_24
REMARK   11  A    between atoms: C_24  and  C_25
REMARK   12  A    between atoms: C_26  and  C_27
REMARK                            x       y       z     vdW  Elec       q    Type
REMARK                         _______ _______ _______ _____ _____    ______ ____
ROOT
ATOM      1  C   UNL     1      -1.652  11.883  20.826  0.00  0.00    +0.000 C 
ATOM      2  C   UNL     1      -0.862  11.708  22.286  0.00  0.00    +0.000 C 
ATOM      3  C   UNL     1      -1.789  11.606  23.440  0.00  0.00    +0.000 C 
ATOM      4  C   UNL     1      -2.765  12.677  23.100  0.00  0.00    +0.000 C 
ATOM      5  C   UNL     1      -2.369  13.113  21.622  0.00  0.00    +0.000 C 
ATOM      6  C   UNL     1      -3.656  13.563  20.969  0.00  0.00    +0.000 C 
ATOM      7  C   UNL     1      -3.899  12.578  19.892  0.00  0.00    +0.000 C 
ATOM      8  C   UNL     1      -2.866  11.704  19.780  0.00  0.00    +0.000 C 
ENDROOT
BRANCH   8   9
ATOM      9  C   UNL     1      -2.679  11.123  18.372  0.00  0.00    +0.000 A 
ATOM     10  C   UNL     1      -3.083   9.798  18.058  0.00  0.00    +0.000 A 
ATOM     11  C   UNL     1      -3.037   9.281  16.754  0.00  0.00    +0.000 A 
ATOM     12  C   UNL     1      -2.676  10.106  15.700  0.00  0.00    +0.000 A 
ATOM     13  C   UNL     1      -2.283  11.411  15.969  0.00  0.00    +0.000 A 
ATOM     14  C   UNL     1      -2.222  11.884  17.292  0.00  0.00    +0.000 A 
ENDBRANCH   8   9
BRANCH   1  16
ATOM     15  C   UNL     1      -0.476   9.729  20.408  0.00  0.00    +0.000 C 
ATOM     16  C   UNL     1      -0.464  11.082  20.214  0.00  0.00    +0.000 C 
BRANCH  16  17
ATOM     17  C   UNL     1       0.591  11.670  19.348  0.00  0.00    +0.000 A 
ATOM     18  C   UNL     1       0.821  13.066  19.337  0.00  0.00    +0.000 A 
ATOM     19  C   UNL     1       1.837  13.652  18.584  0.00  0.00    +0.000 A 
ATOM     20  C   UNL     1       2.667  12.846  17.827  0.00  0.00    +0.000 A 
ATOM     21  C   UNL     1       2.486  11.458  17.837  0.00  0.00    +0.000 A 
ATOM     22  C   UNL     1       1.452  10.877  18.590  0.00  0.00    +0.000 A 
ENDBRANCH  16  17
ENDBRANCH   1  16
BRANCH   4  23
ATOM     23  O   UNL     1      -4.072  12.087  23.272  0.00  0.00    +0.000 OA
BRANCH  23  24
ATOM     24  C   UNL     1      -4.916  12.774  24.099  0.00  0.00    +0.000 C 
ATOM     25  C   UNL     1      -4.294  14.055  24.572  0.00  0.00    +0.000 C 
ATOM     26  O   UNL     1      -6.060  12.440  24.379  0.00  0.00    +0.000 OA
ENDBRANCH  23  24
ENDBRANCH   4  23
BRANCH   7  27
ATOM     27  C   UNL     1      -5.161  12.809  19.051  0.00  0.00    +0.000 C 
BRANCH  27  28
ATOM     28  C   UNL     1      -6.199  11.741  19.393  0.00  0.00    +0.000 C 
BRANCH  28  29
ATOM     29  C   UNL     1      -6.745  11.638  20.815  0.00  0.00    +0.000 C 
BRANCH  29  30
ATOM     30  C   UNL     1      -7.917  10.646  20.710  0.00  0.00    +0.000 C 
BRANCH  30  31
ATOM     31  C   UNL     1      -7.646   9.238  21.213  0.00  0.00    +0.000 C 
ATOM     32  C   UNL     1      -7.180   8.374  20.047  0.00  0.00    +0.000 C 
ENDBRANCH  30  31
ENDBRANCH  29  30
ENDBRANCH  28  29
ENDBRANCH  27  28
ENDBRANCH   7  27
TORSDOF 10
ENDMDL
MODEL 9
REMARK VINA RESULT:      -5.8      2.610      5.359
REMARK  Name = 
REMARK  12 active torsions:
REMARK  status: ('A' for Active; 'I' for Inactive)
REMARK    1  A    between atoms: C_2  and  C_3
REMARK    2  A    between atoms: C_2  and  C_9
REMARK    3  A    between atoms: C_12  and  O_13
REMARK    4  A    between atoms: O_13  and  C_14
REMARK    5  A    between atoms: C_14  and  C_15
REMARK    6  A    between atoms: C_19  and  C_20
REMARK    7  A    between atoms: C_20  and  C_21
REMARK    8  A    between atoms: C_21  and  C_22
REMARK    9  A    between atoms: C_22  and  C_23
REMARK   10  A    between atoms: C_23  and  C_24
REMARK   11  A    between atoms: C_24  and  C_25
REMARK   12  A    between atoms: C_26  and  C_27
REMARK                            x       y       z     vdW  Elec       q    Type
REMARK                         _______ _______ _______ _____ _____    ______ ____
ROOT
ATOM      1  C   UNL     1      -2.739  12.366  19.754  0.00  0.00    +0.000 C 
ATOM      2  C   UNL     1      -4.052  11.620  19.042  0.00  0.00    +0.000 C 
ATOM      3  C   UNL     1      -5.235  12.509  18.930  0.00  0.00    +0.000 C 
ATOM      4  C   UNL     1      -5.220  13.152  20.273  0.00  0.00    +0.000 C 
ATOM      5  C   UNL     1      -3.840  12.687  20.914  0.00  0.00    +0.000 C 
ATOM      6  C   UNL     1      -3.415  13.811  21.831  0.00  0.00    +0.000 C 
ATOM      7  C   UNL     1      -2.178  14.349  21.223  0.00  0.00    +0.000 C 
ATOM      8  C   UNL     1      -1.791  13.608  20.153  0.00  0.00    +0.000 C 
ENDROOT
BRANCH   8   9
ATOM      9  C   UNL     1      -0.280  13.627  19.883  0.00  0.00    +0.000 A 
ATOM     10  C   UNL     1       0.649  13.135  20.838  0.00  0.00    +0.000 A 
ATOM     11  C   UNL     1       2.024  13.029  20.572  0.00  0.00    +0.000 A 
ATOM     12  C   UNL     1       2.503  13.319  19.304  0.00  0.00    +0.000 A 
ATOM     13  C   UNL     1       1.620  13.794  18.342  0.00  0.00    +0.000 A 
ATOM     14  C   UNL     1       0.265  14.008  18.654  0.00  0.00    +0.000 A 
ENDBRANCH   8   9
BRANCH   1  16
ATOM     15  C   UNL     1      -2.017  11.654  17.480  0.00  0.00    +0.000 C 
ATOM     16  C   UNL     1      -1.867  11.468  18.826  0.00  0.00    +0.000 C 
BRANCH  16  17
ATOM     17  C   UNL     1      -0.819  10.529  19.305  0.00  0.00    +0.000 A 
ATOM     18  C   UNL     1       0.273  10.181  18.475  0.00  0.00    +0.000 A 
ATOM     19  C   UNL     1       1.306   9.351  18.904  0.00  0.00    +0.000 A 
ATOM     20  C   UNL     1       1.280   8.853  20.194  0.00  0.00    +0.000 A 
ATOM     21  C   UNL     1       0.230   9.199  21.051  0.00  0.00    +0.000 A 
ATOM     22  C   UNL     1      -0.814  10.029  20.607  0.00  0.00    +0.000 A 
ENDBRANCH  16  17
ENDBRANCH   1  16
BRANCH   4  23
ATOM     23  O   UNL     1      -5.376  14.568  20.032  0.00  0.00    +0.000 OA
BRANCH  23  24
ATOM     24  C   UNL     1      -6.650  15.044  20.176  0.00  0.00    +0.000 C 
ATOM     25  C   UNL     1      -7.305  14.491  21.406  0.00  0.00    +0.000 C 
ATOM     26  O   UNL     1      -7.184  15.867  19.443  0.00  0.00    +0.000 OA
ENDBRANCH  23  24
ENDBRANCH   4  23
BRANCH   7  27
ATOM     27  C   UNL     1      -1.521  15.516  21.971  0.00  0.00    +0.000 C 
BRANCH  27  28
ATOM     28  C   UNL     1      -1.635  16.785  21.128  0.00  0.00    +0.000 C 
BRANCH  28  29
ATOM     29  C   UNL     1      -0.390  17.622  20.841  0.00  0.00    +0.000 C 
BRANCH  29  30
ATOM     30  C   UNL     1       0.773  16.800  21.424  0.00  0.00    +0.000 C 
BRANCH  30  31
ATOM     31  C   UNL     1       2.069  16.824  20.632  0.00  0.00    +0.000 C 
ATOM     32  C   UNL     1       1.788  17.363  19.233  0.00  0.00    +0.000 C 
ENDBRANCH  30  31
ENDBRANCH  29  30
ENDBRANCH  28  29
ENDBRANCH  27  28
ENDBRANCH   7  27
TORSDOF 10
ENDMDL
