MODEL 1
REMARK VINA RESULT:      -6.3      0.000      0.000
REMARK  Name = 
REMARK  6 active torsions:
REMARK  status: ('A' for Active; 'I' for Inactive)
REMARK    1  A    between atoms: C_2  and  O_12
REMARK    2  A    between atoms: N_3  and  C_4
REMARK    3  A    between atoms: C_4  and  C_5
REMARK    4  A    between atoms: C_5  and  C_6
REMARK    5  A    between atoms: O_12  and  C_13
REMARK    6  A    between atoms: C_13  and  C_14
REMARK                            x       y       z     vdW  Elec       q    Type
REMARK                         _______ _______ _______ _____ _____    ______ ____
ROOT
ATOM      1  O   UNL     1       7.758   5.451  14.577  0.00  0.00    +0.000 OA
ATOM      2  C   UNL     1       7.023   4.692  15.190  0.00  0.00    +0.000 C 
ATOM      3  N   UNL     1       6.719   4.776  16.511  0.00  0.00    +0.000 N 
ATOM      4  H   UNL     1       6.059   4.100  16.873  0.00  0.00    +0.000 HD
ENDROOT
BRANCH   3   5
ATOM      5  C   UNL     1       7.256   5.814  17.378  0.00  0.00    +0.000 C 
BRANCH   5   6
ATOM      6  C   UNL     1       6.885   5.607  18.843  0.00  0.00    +0.000 C 
BRANCH   6   7
ATOM      7  C   UNL     1       5.518   4.993  18.991  0.00  0.00    +0.000 A 
ATOM      8  N   UNL     1       4.452   5.771  18.721  0.00  0.00    +0.000 NA
ATOM      9  C   UNL     1       3.240   5.190  18.817  0.00  0.00    +0.000 A 
ATOM     10  C   UNL     1       3.054   3.874  19.167  0.00  0.00    +0.000 A 
ATOM     11  C   UNL     1       4.203   3.166  19.421  0.00  0.00    +0.000 A 
ATOM     12  N   UNL     1       5.441   3.694  19.341  0.00  0.00    +0.000 NA
ENDBRANCH   6   7
ENDBRANCH   5   6
ENDBRANCH   3   5
BRANCH   2  13
ATOM     13  O   UNL     1       6.400   3.620  14.638  0.00  0.00    +0.000 OA
BRANCH  13  14
ATOM     14  C   UNL     1       5.399   3.966  13.655  0.00  0.00    +0.000 C 
BRANCH  14  15
ATOM     15  C   UNL     1       5.710   3.446  12.254  0.00  0.00    +0.000 C 
ATOM     16  F   UNL     1       5.910   2.112  12.222  0.00  0.00    +0.000 F 
ATOM     17  F   UNL     1       4.721   3.742  11.382  0.00  0.00    +0.000 F 
ATOM     18  F   UNL     1       6.841   4.027  11.780  0.00  0.00    +0.000 F 
ENDBRANCH  14  15
ENDBRANCH  13  14
ENDBRANCH   2  13
TORSDOF 6
ENDMDL
MODEL 2
REMARK VINA RESULT:      -6.3      4.779      6.442
REMARK  Name = 
REMARK  6 active torsions:
REMARK  status: ('A' for Active; 'I' for Inactive)
REMARK    1  A    between atoms: C_2  and  O_12
REMARK    2  A    between atoms: N_3  and  C_4
REMARK    3  A    between atoms: C_4  and  C_5
REMARK    4  A    between atoms: C_5  and  C_6
REMARK    5  A    between atoms: O_12  and  C_13
REMARK    6  A    between atoms: C_13  and  C_14
REMARK                            x       y       z     vdW  Elec       q    Type
REMARK                         _______ _______ _______ _____ _____    ______ ____
ROOT
ATOM      1  O   UNL     1       3.921   2.244  18.421  0.00  0.00    +0.000 OA
ATOM      2  C   UNL     1       3.926   3.455  18.577  0.00  0.00    +0.000 C 
ATOM      3  N   UNL     1       4.296   4.375  17.648  0.00  0.00    +0.000 N 
ATOM      4  H   UNL     1       4.208   5.348  17.906  0.00  0.00    +0.000 HD
ENDROOT
BRANCH   3   5
ATOM      5  C   UNL     1       4.749   4.006  16.315  0.00  0.00    +0.000 C 
BRANCH   5   6
ATOM      6  C   UNL     1       6.264   4.096  16.164  0.00  0.00    +0.000 C 
BRANCH   6   7
ATOM      7  C   UNL     1       6.856   5.135  17.078  0.00  0.00    +0.000 A 
ATOM      8  N   UNL     1       7.293   4.728  18.286  0.00  0.00    +0.000 NA
ATOM      9  C   UNL     1       7.859   5.665  19.071  0.00  0.00    +0.000 A 
ATOM     10  C   UNL     1       8.005   6.980  18.699  0.00  0.00    +0.000 A 
ATOM     11  C   UNL     1       7.529   7.294  17.451  0.00  0.00    +0.000 A 
ATOM     12  N   UNL     1       6.954   6.400  16.621  0.00  0.00    +0.000 NA
ENDBRANCH   6   7
ENDBRANCH   5   6
ENDBRANCH   3   5
BRANCH   2  13
ATOM     13  O   UNL     1       3.572   4.079  19.729  0.00  0.00    +0.000 OA
BRANCH  13  14
ATOM     14  C   UNL     1       2.854   3.235  20.656  0.00  0.00    +0.000 C 
BRANCH  14  15
ATOM     15  C   UNL     1       1.340   3.428  20.617  0.00  0.00    +0.000 C 
ATOM     16  F   UNL     1       0.799   3.094  19.425  0.00  0.00    +0.000 F 
ATOM     17  F   UNL     1       0.720   2.705  21.575  0.00  0.00    +0.000 F 
ATOM     18  F   UNL     1       1.029   4.729  20.841  0.00  0.00    +0.000 F 
ENDBRANCH  14  15
ENDBRANCH  13  14
ENDBRANCH   2  13
TORSDOF 6
ENDMDL
MODEL 3
REMARK VINA RESULT:      -6.3      4.224      5.737
REMARK  Name = 
REMARK  6 active torsions:
REMARK  status: ('A' for Active; 'I' for Inactive)
REMARK    1  A    between atoms: C_2  and  O_12
REMARK    2  A    between atoms: N_3  and  C_4
REMARK    3  A    between atoms: C_4  and  C_5
REMARK    4  A    between atoms: C_5  and  C_6
REMARK    5  A    between atoms: O_12  and  C_13
REMARK    6  A    between atoms: C_13  and  C_14
REMARK                            x       y       z     vdW  Elec       q    Type
REMARK                         _______ _______ _______ _____ _____    ______ ____
ROOT
ATOM      1  O   UNL     1       4.175   5.611  19.724  0.00  0.00    +0.000 OA
ATOM      2  C   UNL     1       4.713   4.634  19.226  0.00  0.00    +0.000 C 
ATOM      3  N   UNL     1       6.050   4.468  19.048  0.00  0.00    +0.000 N 
ATOM      4  H   UNL     1       6.353   3.585  18.660  0.00  0.00    +0.000 HD
ENDROOT
BRANCH   3   5
ATOM      5  C   UNL     1       7.026   5.472  19.440  0.00  0.00    +0.000 C 
BRANCH   5   6
ATOM      6  C   UNL     1       7.508   6.314  18.262  0.00  0.00    +0.000 C 
BRANCH   6   7
ATOM      7  C   UNL     1       6.922   5.839  16.960  0.00  0.00    +0.000 A 
ATOM      8  N   UNL     1       7.462   4.741  16.395  0.00  0.00    +0.000 NA
ATOM      9  C   UNL     1       6.895   4.307  15.253  0.00  0.00    +0.000 A 
ATOM     10  C   UNL     1       5.818   4.921  14.659  0.00  0.00    +0.000 A 
ATOM     11  C   UNL     1       5.341   6.031  15.312  0.00  0.00    +0.000 A 
ATOM     12  N   UNL     1       5.868   6.511  16.457  0.00  0.00    +0.000 NA
ENDBRANCH   6   7
ENDBRANCH   5   6
ENDBRANCH   3   5
BRANCH   2  13
ATOM     13  O   UNL     1       4.045   3.552  18.751  0.00  0.00    +0.000 OA
BRANCH  13  14
ATOM     14  C   UNL     1       2.686   3.834  18.348  0.00  0.00    +0.000 C 
BRANCH  14  15
ATOM     15  C   UNL     1       1.634   3.127  19.199  0.00  0.00    +0.000 C 
ATOM     16  F   UNL     1       0.986   3.965  20.036  0.00  0.00    +0.000 F 
ATOM     17  F   UNL     1       0.711   2.503  18.434  0.00  0.00    +0.000 F 
ATOM     18  F   UNL     1       2.218   2.174  19.968  0.00  0.00    +0.000 F 
ENDBRANCH  14  15
ENDBRANCH  13  14
ENDBRANCH   2  13
TORSDOF 6
ENDMDL
MODEL 4
REMARK VINA RESULT:      -6.2      4.772      6.391
REMARK  Name = 
REMARK  6 active torsions:
REMARK  status: ('A' for Active; 'I' for Inactive)
REMARK    1  A    between atoms: C_2  and  O_12
REMARK    2  A    between atoms: N_3  and  C_4
REMARK    3  A    between atoms: C_4  and  C_5
REMARK    4  A    between atoms: C_5  and  C_6
REMARK    5  A    between atoms: O_12  and  C_13
REMARK    6  A    between atoms: C_13  and  C_14
REMARK                            x       y       z     vdW  Elec       q    Type
REMARK                         _______ _______ _______ _____ _____    ______ ____
ROOT
ATOM      1  O   UNL     1       2.167   3.663  17.167  0.00  0.00    +0.000 OA
ATOM      2  C   UNL     1       3.031   4.331  17.713  0.00  0.00    +0.000 C 
ATOM      3  N   UNL     1       4.323   4.445  17.307  0.00  0.00    +0.000 N 
ATOM      4  H   UNL     1       4.915   5.070  17.836  0.00  0.00    +0.000 HD
ENDROOT
BRANCH   3   5
ATOM      5  C   UNL     1       4.842   3.755  16.136  0.00  0.00    +0.000 C 
BRANCH   5   6
ATOM      6  C   UNL     1       6.298   4.107  15.844  0.00  0.00    +0.000 C 
BRANCH   6   7
ATOM      7  C   UNL     1       6.847   5.085  16.848  0.00  0.00    +0.000 A 
ATOM      8  N   UNL     1       7.306   4.591  18.015  0.00  0.00    +0.000 NA
ATOM      9  C   UNL     1       7.834   5.477  18.881  0.00  0.00    +0.000 A 
ATOM     10  C   UNL     1       7.922   6.826  18.629  0.00  0.00    +0.000 A 
ATOM     11  C   UNL     1       7.427   7.229  17.413  0.00  0.00    +0.000 A 
ATOM     12  N   UNL     1       6.888   6.388  16.507  0.00  0.00    +0.000 NA
ENDBRANCH   6   7
ENDBRANCH   5   6
ENDBRANCH   3   5
BRANCH   2  13
ATOM     13  O   UNL     1       2.834   5.063  18.839  0.00  0.00    +0.000 OA
BRANCH  13  14
ATOM     14  C   UNL     1       3.091   4.336  20.061  0.00  0.00    +0.000 C 
BRANCH  14  15
ATOM     15  C   UNL     1       1.830   3.799  20.734  0.00  0.00    +0.000 C 
ATOM     16  F   UNL     1       1.975   3.635  22.066  0.00  0.00    +0.000 F 
ATOM     17  F   UNL     1       0.770   4.610  20.525  0.00  0.00    +0.000 F 
ATOM     18  F   UNL     1       1.507   2.586  20.220  0.00  0.00    +0.000 F 
ENDBRANCH  14  15
ENDBRANCH  13  14
ENDBRANCH   2  13
TORSDOF 6
ENDMDL
MODEL 5
REMARK VINA RESULT:      -6.2      4.643      6.200
REMARK  Name = 
REMARK  6 active torsions:
REMARK  status: ('A' for Active; 'I' for Inactive)
REMARK    1  A    between atoms: C_2  and  O_12
REMARK    2  A    between atoms: N_3  and  C_4
REMARK    3  A    between atoms: C_4  and  C_5
REMARK    4  A    between atoms: C_5  and  C_6
REMARK    5  A    between atoms: O_12  and  C_13
REMARK    6  A    between atoms: C_13  and  C_14
REMARK                            x       y       z     vdW  Elec       q    Type
REMARK                         _______ _______ _______ _____ _____    ______ ____
ROOT
ATOM      1  O   UNL     1       3.507   5.459  18.304  0.00  0.00    +0.000 OA
ATOM      2  C   UNL     1       3.937   4.348  18.572  0.00  0.00    +0.000 C 
ATOM      3  N   UNL     1       4.598   3.524  17.717  0.00  0.00    +0.000 N 
ATOM      4  H   UNL     1       4.934   2.648  18.093  0.00  0.00    +0.000 HD
ENDROOT
BRANCH   3   5
ATOM      5  C   UNL     1       4.875   3.885  16.335  0.00  0.00    +0.000 C 
BRANCH   5   6
ATOM      6  C   UNL     1       6.367   4.056  16.060  0.00  0.00    +0.000 C 
BRANCH   6   7
ATOM      7  C   UNL     1       6.988   5.081  16.970  0.00  0.00    +0.000 A 
ATOM      8  N   UNL     1       7.003   6.361  16.551  0.00  0.00    +0.000 NA
ATOM      9  C   UNL     1       7.524   7.269  17.398  0.00  0.00    +0.000 A 
ATOM     10  C   UNL     1       8.025   6.951  18.638  0.00  0.00    +0.000 A 
ATOM     11  C   UNL     1       7.965   5.621  18.973  0.00  0.00    +0.000 A 
ATOM     12  N   UNL     1       7.454   4.668  18.166  0.00  0.00    +0.000 NA
ENDBRANCH   6   7
ENDBRANCH   5   6
ENDBRANCH   3   5
BRANCH   2  13
ATOM     13  O   UNL     1       3.802   3.747  19.781  0.00  0.00    +0.000 OA
BRANCH  13  14
ATOM     14  C   UNL     1       2.579   4.087  20.471  0.00  0.00    +0.000 C 
BRANCH  14  15
ATOM     15  C   UNL     1       1.546   2.963  20.478  0.00  0.00    +0.000 C 
ATOM     16  F   UNL     1       1.208   2.569  21.725  0.00  0.00    +0.000 F 
ATOM     17  F   UNL     1       0.415   3.321  19.832  0.00  0.00    +0.000 F 
ATOM     18  F   UNL     1       2.038   1.872  19.839  0.00  0.00    +0.000 F 
ENDBRANCH  14  15
ENDBRANCH  13  14
ENDBRANCH   2  13
TORSDOF 6
ENDMDL
MODEL 6
REMARK VINA RESULT:      -6.2      4.422      5.996
REMARK  Name = 
REMARK  6 active torsions:
REMARK  status: ('A' for Active; 'I' for Inactive)
REMARK    1  A    between atoms: C_2  and  O_12
REMARK    2  A    between atoms: N_3  and  C_4
REMARK    3  A    between atoms: C_4  and  C_5
REMARK    4  A    between atoms: C_5  and  C_6
REMARK    5  A    between atoms: O_12  and  C_13
REMARK    6  A    between atoms: C_13  and  C_14
REMARK                            x       y       z     vdW  Elec       q    Type
REMARK                         _______ _______ _______ _____ _____    ______ ____
ROOT
ATOM      1  O   UNL     1       4.981   3.184  19.563  0.00  0.00    +0.000 OA
ATOM      2  C   UNL     1       4.562   4.310  19.348  0.00  0.00    +0.000 C 
ATOM      3  N   UNL     1       5.317   5.437  19.265  0.00  0.00    +0.000 N 
ATOM      4  H   UNL     1       4.834   6.296  19.038  0.00  0.00    +0.000 HD
ENDROOT
BRANCH   3   5
ATOM      5  C   UNL     1       6.762   5.429  19.434  0.00  0.00    +0.000 C 
BRANCH   5   6
ATOM      6  C   UNL     1       7.492   6.107  18.279  0.00  0.00    +0.000 C 
BRANCH   6   7
ATOM      7  C   UNL     1       6.902   5.731  16.947  0.00  0.00    +0.000 A 
ATOM      8  N   UNL     1       7.389   4.633  16.336  0.00  0.00    +0.000 NA
ATOM      9  C   UNL     1       6.817   4.288  15.166  0.00  0.00    +0.000 A 
ATOM     10  C   UNL     1       5.786   4.991  14.589  0.00  0.00    +0.000 A 
ATOM     11  C   UNL     1       5.361   6.092  15.289  0.00  0.00    +0.000 A 
ATOM     12  N   UNL     1       5.895   6.485  16.464  0.00  0.00    +0.000 NA
ENDBRANCH   6   7
ENDBRANCH   5   6
ENDBRANCH   3   5
BRANCH   2  13
ATOM     13  O   UNL     1       3.252   4.617  19.171  0.00  0.00    +0.000 OA
BRANCH  13  14
ATOM     14  C   UNL     1       2.461   3.529  18.644  0.00  0.00    +0.000 C 
BRANCH  14  15
ATOM     15  C   UNL     1       1.349   3.067  19.582  0.00  0.00    +0.000 C 
ATOM     16  F   UNL     1       1.794   2.254  20.564  0.00  0.00    +0.000 F 
ATOM     17  F   UNL     1       0.717   4.112  20.159  0.00  0.00    +0.000 F 
ATOM     18  F   UNL     1       0.412   2.372  18.889  0.00  0.00    +0.000 F 
ENDBRANCH  14  15
ENDBRANCH  13  14
ENDBRANCH   2  13
TORSDOF 6
ENDMDL
MODEL 7
REMARK VINA RESULT:      -6.2      5.092      6.665
REMARK  Name = 
REMARK  6 active torsions:
REMARK  status: ('A' for Active; 'I' for Inactive)
REMARK    1  A    between atoms: C_2  and  O_12
REMARK    2  A    between atoms: N_3  and  C_4
REMARK    3  A    between atoms: C_4  and  C_5
REMARK    4  A    between atoms: C_5  and  C_6
REMARK    5  A    between atoms: O_12  and  C_13
REMARK    6  A    between atoms: C_13  and  C_14
REMARK                            x       y       z     vdW  Elec       q    Type
REMARK                         _______ _______ _______ _____ _____    ______ ____
ROOT
ATOM      1  O   UNL     1       2.151   2.591  17.391  0.00  0.00    +0.000 OA
ATOM      2  C   UNL     1       3.073   2.776  18.169  0.00  0.00    +0.000 C 
ATOM      3  N   UNL     1       4.208   3.476  17.904  0.00  0.00    +0.000 N 
ATOM      4  H   UNL     1       4.868   3.582  18.662  0.00  0.00    +0.000 HD
ENDROOT
BRANCH   3   5
ATOM      5  C   UNL     1       4.463   4.102  16.616  0.00  0.00    +0.000 C 
BRANCH   5   6
ATOM      6  C   UNL     1       5.950   4.188  16.288  0.00  0.00    +0.000 C 
BRANCH   6   7
ATOM      7  C   UNL     1       6.658   5.188  17.163  0.00  0.00    +0.000 A 
ATOM      8  N   UNL     1       7.032   4.786  18.394  0.00  0.00    +0.000 NA
ATOM      9  C   UNL     1       7.703   5.682  19.144  0.00  0.00    +0.000 A 
ATOM     10  C   UNL     1       8.012   6.951  18.716  0.00  0.00    +0.000 A 
ATOM     11  C   UNL     1       7.587   7.263  17.449  0.00  0.00    +0.000 A 
ATOM     12  N   UNL     1       6.913   6.409  16.652  0.00  0.00    +0.000 NA
ENDBRANCH   6   7
ENDBRANCH   5   6
ENDBRANCH   3   5
BRANCH   2  13
ATOM     13  O   UNL     1       3.116   2.288  19.434  0.00  0.00    +0.000 OA
BRANCH  13  14
ATOM     14  C   UNL     1       1.823   2.207  20.074  0.00  0.00    +0.000 C 
BRANCH  14  15
ATOM     15  C   UNL     1       1.575   3.309  21.101  0.00  0.00    +0.000 C 
ATOM     16  F   UNL     1       0.994   2.852  22.231  0.00  0.00    +0.000 F 
ATOM     17  F   UNL     1       2.721   3.937  21.445  0.00  0.00    +0.000 F 
ATOM     18  F   UNL     1       0.747   4.252  20.585  0.00  0.00    +0.000 F 
ENDBRANCH  14  15
ENDBRANCH  13  14
ENDBRANCH   2  13
TORSDOF 6
ENDMDL
MODEL 8
REMARK VINA RESULT:      -6.1      1.257      1.952
REMARK  Name = 
REMARK  6 active torsions:
REMARK  status: ('A' for Active; 'I' for Inactive)
REMARK    1  A    between atoms: C_2  and  O_12
REMARK    2  A    between atoms: N_3  and  C_4
REMARK    3  A    between atoms: C_4  and  C_5
REMARK    4  A    between atoms: C_5  and  C_6
REMARK    5  A    between atoms: O_12  and  C_13
REMARK    6  A    between atoms: C_13  and  C_14
REMARK                            x       y       z     vdW  Elec       q    Type
REMARK                         _______ _______ _______ _____ _____    ______ ____
ROOT
ATOM      1  O   UNL     1       7.639   5.638  15.104  0.00  0.00    +0.000 OA
ATOM      2  C   UNL     1       6.651   4.921  15.109  0.00  0.00    +0.000 C 
ATOM      3  N   UNL     1       5.516   5.137  15.825  0.00  0.00    +0.000 N 
ATOM      4  H   UNL     1       4.761   4.477  15.696  0.00  0.00    +0.000 HD
ENDROOT
BRANCH   3   5
ATOM      5  C   UNL     1       5.346   6.287  16.699  0.00  0.00    +0.000 C 
BRANCH   5   6
ATOM      6  C   UNL     1       4.176   6.122  17.665  0.00  0.00    +0.000 C 
BRANCH   6   7
ATOM      7  C   UNL     1       3.895   4.673  17.960  0.00  0.00    +0.000 A 
ATOM      8  N   UNL     1       4.628   4.078  18.920  0.00  0.00    +0.000 NA
ATOM      9  C   UNL     1       4.331   2.794  19.199  0.00  0.00    +0.000 A 
ATOM     10  C   UNL     1       3.338   2.089  18.562  0.00  0.00    +0.000 A 
ATOM     11  C   UNL     1       2.648   2.784  17.600  0.00  0.00    +0.000 A 
ATOM     12  N   UNL     1       2.901   4.069  17.279  0.00  0.00    +0.000 NA
ENDBRANCH   6   7
ENDBRANCH   5   6
ENDBRANCH   3   5
BRANCH   2  13
ATOM     13  O   UNL     1       6.539   3.768  14.402  0.00  0.00    +0.000 OA
BRANCH  13  14
ATOM     14  C   UNL     1       5.352   3.698  13.581  0.00  0.00    +0.000 C 
BRANCH  14  15
ATOM     15  C   UNL     1       5.634   3.356  12.120  0.00  0.00    +0.000 C 
ATOM     16  F   UNL     1       6.708   4.009  11.627  0.00  0.00    +0.000 F 
ATOM     17  F   UNL     1       5.834   2.031  11.948  0.00  0.00    +0.000 F 
ATOM     18  F   UNL     1       4.574   3.700  11.347  0.00  0.00    +0.000 F 
ENDBRANCH  14  15
ENDBRANCH  13  14
ENDBRANCH   2  13
TORSDOF 6
ENDMDL
MODEL 9
REMARK VINA RESULT:      -6.1      1.170      1.569
REMARK  Name = 
REMARK  6 active torsions:
REMARK  status: ('A' for Active; 'I' for Inactive)
REMARK    1  A    between atoms: C_2  and  O_12
REMARK    2  A    between atoms: N_3  and  C_4
REMARK    3  A    between atoms: C_4  and  C_5
REMARK    4  A    between atoms: C_5  and  C_6
REMARK    5  A    between atoms: O_12  and  C_13
REMARK    6  A    between atoms: C_13  and  C_14
REMARK                            x       y       z     vdW  Elec       q    Type
REMARK                         _______ _______ _______ _____ _____    ______ ____
ROOT
ATOM      1  O   UNL     1       7.509   5.610  15.432  0.00  0.00    +0.000 OA
ATOM      2  C   UNL     1       6.439   5.030  15.527  0.00  0.00    +0.000 C 
ATOM      3  N   UNL     1       5.836   4.661  16.688  0.00  0.00    +0.000 N 
ATOM      4  H   UNL     1       4.927   4.225  16.613  0.00  0.00    +0.000 HD
ENDROOT
BRANCH   3   5
ATOM      5  C   UNL     1       6.421   4.922  17.994  0.00  0.00    +0.000 C 
BRANCH   5   6
ATOM      6  C   UNL     1       5.374   4.996  19.102  0.00  0.00    +0.000 C 
BRANCH   6   7
ATOM      7  C   UNL     1       4.121   4.245  18.738  0.00  0.00    +0.000 A 
ATOM      8  N   UNL     1       3.057   4.964  18.333  0.00  0.00    +0.000 NA
ATOM      9  C   UNL     1       1.961   4.270  17.970  0.00  0.00    +0.000 A 
ATOM     10  C   UNL     1       1.889   2.898  17.994  0.00  0.00    +0.000 A 
ATOM     11  C   UNL     1       3.025   2.257  18.422  0.00  0.00    +0.000 A 
ATOM     12  N   UNL     1       4.150   2.898  18.797  0.00  0.00    +0.000 NA
ENDBRANCH   6   7
ENDBRANCH   5   6
ENDBRANCH   3   5
BRANCH   2  13
ATOM     13  O   UNL     1       5.682   4.643  14.470  0.00  0.00    +0.000 OA
BRANCH  13  14
ATOM     14  C   UNL     1       6.141   3.429  13.835  0.00  0.00    +0.000 C 
BRANCH  14  15
ATOM     15  C   UNL     1       5.895   3.392  12.329  0.00  0.00    +0.000 C 
ATOM     16  F   UNL     1       6.762   4.162  11.636  0.00  0.00    +0.000 F 
ATOM     17  F   UNL     1       5.970   2.134  11.842  0.00  0.00    +0.000 F 
ATOM     18  F   UNL     1       4.649   3.851  12.047  0.00  0.00    +0.000 F 
ENDBRANCH  14  15
ENDBRANCH  13  14
ENDBRANCH   2  13
TORSDOF 6
ENDMDL
