MODEL 1
REMARK VINA RESULT:      -7.6      0.000      0.000
REMARK  Name = 
REMARK  3 active torsions:
REMARK  status: ('A' for Active; 'I' for Inactive)
REMARK    1  A    between atoms: C_2  and  C_4
REMARK    2  A    between atoms: C_7  and  N_8
REMARK    3  A    between atoms: C_9  and  C_11
REMARK                            x       y       z     vdW  Elec       q    Type
REMARK                         _______ _______ _______ _____ _____    ______ ____
ROOT
ATOM      1  N   UNL     1       3.250   6.740  18.848  0.00  0.00    +0.000 N 
ATOM      2  C   UNL     1       2.424   7.834  18.589  0.00  0.00    +0.000 C 
ATOM      3  O   UNL     1       2.365   8.346  17.473  0.00  0.00    +0.000 OA
ATOM      4  H   UNL     1       3.074   6.206  19.688  0.00  0.00    +0.000 HD
ENDROOT
BRANCH   2   5
ATOM      5  C   UNL     1       1.576   8.399  19.634  0.00  0.00    +0.000 A 
ATOM      6  C   UNL     1       0.907   9.595  19.444  0.00  0.00    +0.000 A 
ATOM      7  C   UNL     1       0.188  10.061  20.572  0.00  0.00    +0.000 A 
ATOM      8  C   UNL     1      -0.565  11.248  20.731  0.00  0.00    +0.000 A 
ATOM      9  C   UNL     1      -1.144  11.554  21.958  0.00  0.00    +0.000 A 
ATOM     10  C   UNL     1      -0.993  10.684  23.028  0.00  0.00    +0.000 A 
ATOM     11  C   UNL     1      -0.278   9.482  22.888  0.00  0.00    +0.000 A 
ATOM     12  C   UNL     1       0.319   9.179  21.645  0.00  0.00    +0.000 A 
ATOM     13  S   UNL     1       1.276   7.790  21.192  0.00  0.00    +0.000 S 
ENDBRANCH   2   5
BRANCH   1  17
ATOM     14  C   UNL     1       5.860   5.216  15.838  0.00  0.00    +0.000 A 
ATOM     15  C   UNL     1       6.158   6.415  16.477  0.00  0.00    +0.000 A 
ATOM     16  C   UNL     1       5.322   6.887  17.491  0.00  0.00    +0.000 A 
ATOM     17  C   UNL     1       4.151   6.209  17.874  0.00  0.00    +0.000 A 
ATOM     18  C   UNL     1       3.879   4.985  17.248  0.00  0.00    +0.000 A 
ATOM     19  C   UNL     1       4.718   4.502  16.224  0.00  0.00    +0.000 A 
BRANCH  14  21
ATOM     20  N   UNL     1       6.321   3.564  14.107  0.00  0.00    +0.000 N 
ATOM     21  C   UNL     1       6.725   4.711  14.739  0.00  0.00    +0.000 C 
ATOM     22  O   UNL     1       7.738   5.303  14.392  0.00  0.00    +0.000 OA
ATOM     23  H   UNL     1       6.869   3.258  13.316  0.00  0.00    +0.000 HD
ATOM     24  H   UNL     1       5.402   3.166  14.227  0.00  0.00    +0.000 HD
ENDBRANCH  14  21
ENDBRANCH   1  17
TORSDOF 3
ENDMDL
MODEL 2
REMARK VINA RESULT:      -7.5      0.465      1.132
REMARK  Name = 
REMARK  3 active torsions:
REMARK  status: ('A' for Active; 'I' for Inactive)
REMARK    1  A    between atoms: C_2  and  C_4
REMARK    2  A    between atoms: C_7  and  N_8
REMARK    3  A    between atoms: C_9  and  C_11
REMARK                            x       y       z     vdW  Elec       q    Type
REMARK                         _______ _______ _______ _____ _____    ______ ____
ROOT
ATOM      1  N   UNL     1       2.854   6.915  18.780  0.00  0.00    +0.000 N 
ATOM      2  C   UNL     1       2.185   8.118  18.556  0.00  0.00    +0.000 C 
ATOM      3  O   UNL     1       2.249   8.700  17.475  0.00  0.00    +0.000 OA
ATOM      4  H   UNL     1       2.569   6.358  19.574  0.00  0.00    +0.000 HD
ENDROOT
BRANCH   2   5
ATOM      5  C   UNL     1       1.358   8.723  19.597  0.00  0.00    +0.000 A 
ATOM      6  C   UNL     1       0.585   9.840  19.337  0.00  0.00    +0.000 A 
ATOM      7  C   UNL     1      -0.100  10.364  20.461  0.00  0.00    +0.000 A 
ATOM      8  C   UNL     1      -0.936  11.502  20.554  0.00  0.00    +0.000 A 
ATOM      9  C   UNL     1      -1.463  11.888  21.783  0.00  0.00    +0.000 A 
ATOM     10  C   UNL     1      -1.178  11.146  22.919  0.00  0.00    +0.000 A 
ATOM     11  C   UNL     1      -0.378   9.992  22.849  0.00  0.00    +0.000 A 
ATOM     12  C   UNL     1       0.166   9.608  21.604  0.00  0.00    +0.000 A 
ATOM     13  S   UNL     1       1.203   8.255  21.223  0.00  0.00    +0.000 S 
ENDBRANCH   2   5
BRANCH   1  17
ATOM     14  C   UNL     1       5.573   5.152  16.006  0.00  0.00    +0.000 A 
ATOM     15  C   UNL     1       4.549   4.391  16.558  0.00  0.00    +0.000 A 
ATOM     16  C   UNL     1       3.636   4.984  17.433  0.00  0.00    +0.000 A 
ATOM     17  C   UNL     1       3.734   6.333  17.815  0.00  0.00    +0.000 A 
ATOM     18  C   UNL     1       4.749   7.100  17.227  0.00  0.00    +0.000 A 
ATOM     19  C   UNL     1       5.673   6.508  16.343  0.00  0.00    +0.000 A 
BRANCH  14  21
ATOM     20  N   UNL     1       6.117   3.533  14.268  0.00  0.00    +0.000 N 
ATOM     21  C   UNL     1       6.568   4.530  15.093  0.00  0.00    +0.000 C 
ATOM     22  O   UNL     1       7.732   4.905  15.056  0.00  0.00    +0.000 OA
ATOM     23  H   UNL     1       6.774   3.157  13.600  0.00  0.00    +0.000 HD
ATOM     24  H   UNL     1       5.137   3.338  14.128  0.00  0.00    +0.000 HD
ENDBRANCH  14  21
ENDBRANCH   1  17
TORSDOF 3
ENDMDL
MODEL 3
REMARK VINA RESULT:      -7.2      1.196      1.920
REMARK  Name = 
REMARK  3 active torsions:
REMARK  status: ('A' for Active; 'I' for Inactive)
REMARK    1  A    between atoms: C_2  and  C_4
REMARK    2  A    between atoms: C_7  and  N_8
REMARK    3  A    between atoms: C_9  and  C_11
REMARK                            x       y       z     vdW  Elec       q    Type
REMARK                         _______ _______ _______ _____ _____    ______ ____
ROOT
ATOM      1  N   UNL     1       2.583   7.412  18.804  0.00  0.00    +0.000 N 
ATOM      2  C   UNL     1       1.973   8.595  18.387  0.00  0.00    +0.000 C 
ATOM      3  O   UNL     1       2.049   8.984  17.224  0.00  0.00    +0.000 OA
ATOM      4  H   UNL     1       2.282   7.011  19.682  0.00  0.00    +0.000 HD
ENDROOT
BRANCH   2   5
ATOM      5  C   UNL     1       1.194   9.407  19.318  0.00  0.00    +0.000 A 
ATOM      6  C   UNL     1       0.989   9.000  20.624  0.00  0.00    +0.000 A 
ATOM      7  C   UNL     1       0.147   9.847  21.387  0.00  0.00    +0.000 A 
ATOM      8  C   UNL     1      -0.293   9.710  22.724  0.00  0.00    +0.000 A 
ATOM      9  C   UNL     1      -1.184  10.630  23.269  0.00  0.00    +0.000 A 
ATOM     10  C   UNL     1      -1.632  11.694  22.500  0.00  0.00    +0.000 A 
ATOM     11  C   UNL     1      -1.185  11.872  21.179  0.00  0.00    +0.000 A 
ATOM     12  C   UNL     1      -0.290  10.932  20.624  0.00  0.00    +0.000 A 
ATOM     13  S   UNL     1       0.404  10.882  19.022  0.00  0.00    +0.000 S 
ENDBRANCH   2   5
BRANCH   1  17
ATOM     14  C   UNL     1       5.163   5.068  16.346  0.00  0.00    +0.000 A 
ATOM     15  C   UNL     1       4.092   4.470  17.002  0.00  0.00    +0.000 A 
ATOM     16  C   UNL     1       3.226   5.250  17.772  0.00  0.00    +0.000 A 
ATOM     17  C   UNL     1       3.416   6.632  17.944  0.00  0.00    +0.000 A 
ATOM     18  C   UNL     1       4.477   7.230  17.250  0.00  0.00    +0.000 A 
ATOM     19  C   UNL     1       5.355   6.450  16.473  0.00  0.00    +0.000 A 
BRANCH  14  21
ATOM     20  N   UNL     1       5.952   2.887  15.596  0.00  0.00    +0.000 N 
ATOM     21  C   UNL     1       6.109   4.248  15.544  0.00  0.00    +0.000 C 
ATOM     22  O   UNL     1       6.974   4.760  14.846  0.00  0.00    +0.000 OA
ATOM     23  H   UNL     1       6.548   2.333  14.999  0.00  0.00    +0.000 HD
ATOM     24  H   UNL     1       5.137   2.445  15.992  0.00  0.00    +0.000 HD
ENDBRANCH  14  21
ENDBRANCH   1  17
TORSDOF 3
ENDMDL
MODEL 4
REMARK VINA RESULT:      -7.2      1.293      1.701
REMARK  Name = 
REMARK  3 active torsions:
REMARK  status: ('A' for Active; 'I' for Inactive)
REMARK    1  A    between atoms: C_2  and  C_4
REMARK    2  A    between atoms: C_7  and  N_8
REMARK    3  A    between atoms: C_9  and  C_11
REMARK                            x       y       z     vdW  Elec       q    Type
REMARK                         _______ _______ _______ _____ _____    ______ ____
ROOT
ATOM      1  N   UNL     1       2.633   7.349  18.843  0.00  0.00    +0.000 N 
ATOM      2  C   UNL     1       2.019   8.530  18.429  0.00  0.00    +0.000 C 
ATOM      3  O   UNL     1       2.055   8.898  17.256  0.00  0.00    +0.000 OA
ATOM      4  H   UNL     1       2.363   6.966  19.739  0.00  0.00    +0.000 HD
ENDROOT
BRANCH   2   5
ATOM      5  C   UNL     1       1.285   9.367  19.374  0.00  0.00    +0.000 A 
ATOM      6  C   UNL     1       0.952   8.901  20.633  0.00  0.00    +0.000 A 
ATOM      7  C   UNL     1       0.171   9.791  21.410  0.00  0.00    +0.000 A 
ATOM      8  C   UNL     1      -0.365   9.619  22.708  0.00  0.00    +0.000 A 
ATOM      9  C   UNL     1      -1.173  10.602  23.271  0.00  0.00    +0.000 A 
ATOM     10  C   UNL     1      -1.444  11.762  22.561  0.00  0.00    +0.000 A 
ATOM     11  C   UNL     1      -0.897  11.974  21.283  0.00  0.00    +0.000 A 
ATOM     12  C   UNL     1      -0.087  10.970  20.709  0.00  0.00    +0.000 A 
ATOM     13  S   UNL     1       0.695  10.944  19.147  0.00  0.00    +0.000 S 
ENDBRANCH   2   5
BRANCH   1  17
ATOM     14  C   UNL     1       4.901   4.975  16.118  0.00  0.00    +0.000 A 
ATOM     15  C   UNL     1       5.220   6.315  16.309  0.00  0.00    +0.000 A 
ATOM     16  C   UNL     1       4.502   7.076  17.234  0.00  0.00    +0.000 A 
ATOM     17  C   UNL     1       3.425   6.545  17.965  0.00  0.00    +0.000 A 
ATOM     18  C   UNL     1       3.133   5.186  17.791  0.00  0.00    +0.000 A 
ATOM     19  C   UNL     1       3.854   4.412  16.860  0.00  0.00    +0.000 A 
BRANCH  14  21
ATOM     20  N   UNL     1       6.608   3.316  15.601  0.00  0.00    +0.000 N 
ATOM     21  C   UNL     1       5.639   4.158  15.120  0.00  0.00    +0.000 C 
ATOM     22  O   UNL     1       5.380   4.209  13.926  0.00  0.00    +0.000 OA
ATOM     23  H   UNL     1       7.063   2.710  14.932  0.00  0.00    +0.000 HD
ATOM     24  H   UNL     1       6.710   3.100  16.580  0.00  0.00    +0.000 HD
ENDBRANCH  14  21
ENDBRANCH   1  17
TORSDOF 3
ENDMDL
MODEL 5
REMARK VINA RESULT:      -7.0      3.076      8.993
REMARK  Name = 
REMARK  3 active torsions:
REMARK  status: ('A' for Active; 'I' for Inactive)
REMARK    1  A    between atoms: C_2  and  C_4
REMARK    2  A    between atoms: C_7  and  N_8
REMARK    3  A    between atoms: C_9  and  C_11
REMARK                            x       y       z     vdW  Elec       q    Type
REMARK                         _______ _______ _______ _____ _____    ______ ____
ROOT
ATOM      1  N   UNL     1       1.755   8.340  20.733  0.00  0.00    +0.000 N 
ATOM      2  C   UNL     1       1.812   8.228  19.344  0.00  0.00    +0.000 C 
ATOM      3  O   UNL     1       1.199   9.000  18.609  0.00  0.00    +0.000 OA
ATOM      4  H   UNL     1       2.462   7.861  21.273  0.00  0.00    +0.000 HD
ENDROOT
BRANCH   2   5
ATOM      5  C   UNL     1       2.626   7.197  18.706  0.00  0.00    +0.000 A 
ATOM      6  C   UNL     1       3.528   7.514  17.706  0.00  0.00    +0.000 A 
ATOM      7  C   UNL     1       4.187   6.403  17.124  0.00  0.00    +0.000 A 
ATOM      8  C   UNL     1       5.129   6.368  16.070  0.00  0.00    +0.000 A 
ATOM      9  C   UNL     1       5.610   5.151  15.597  0.00  0.00    +0.000 A 
ATOM     10  C   UNL     1       5.174   3.967  16.173  0.00  0.00    +0.000 A 
ATOM     11  C   UNL     1       4.264   3.975  17.245  0.00  0.00    +0.000 A 
ATOM     12  C   UNL     1       3.768   5.210  17.715  0.00  0.00    +0.000 A 
ATOM     13  S   UNL     1       2.622   5.522  18.996  0.00  0.00    +0.000 S 
ENDBRANCH   2   5
BRANCH   1  17
ATOM     14  C   UNL     1      -0.872  11.128  22.610  0.00  0.00    +0.000 A 
ATOM     15  C   UNL     1      -0.774   9.827  23.093  0.00  0.00    +0.000 A 
ATOM     16  C   UNL     1       0.119   8.932  22.501  0.00  0.00    +0.000 A 
ATOM     17  C   UNL     1       0.910   9.285  21.394  0.00  0.00    +0.000 A 
ATOM     18  C   UNL     1       0.829  10.607  20.937  0.00  0.00    +0.000 A 
ATOM     19  C   UNL     1      -0.069  11.516  21.529  0.00  0.00    +0.000 A 
BRANCH  14  21
ATOM     20  N   UNL     1      -1.407  13.379  23.374  0.00  0.00    +0.000 N 
ATOM     21  C   UNL     1      -1.835  12.087  23.212  0.00  0.00    +0.000 C 
ATOM     22  O   UNL     1      -2.968  11.750  23.527  0.00  0.00    +0.000 OA
ATOM     23  H   UNL     1      -2.083  14.047  23.719  0.00  0.00    +0.000 HD
ATOM     24  H   UNL     1      -0.566  13.735  22.948  0.00  0.00    +0.000 HD
ENDBRANCH  14  21
ENDBRANCH   1  17
TORSDOF 3
ENDMDL
MODEL 6
REMARK VINA RESULT:      -6.9      3.049      8.935
REMARK  Name = 
REMARK  3 active torsions:
REMARK  status: ('A' for Active; 'I' for Inactive)
REMARK    1  A    between atoms: C_2  and  C_4
REMARK    2  A    between atoms: C_7  and  N_8
REMARK    3  A    between atoms: C_9  and  C_11
REMARK                            x       y       z     vdW  Elec       q    Type
REMARK                         _______ _______ _______ _____ _____    ______ ____
ROOT
ATOM      1  N   UNL     1       1.584   8.331  20.515  0.00  0.00    +0.000 N 
ATOM      2  C   UNL     1       1.803   8.296  19.139  0.00  0.00    +0.000 C 
ATOM      3  O   UNL     1       1.328   9.147  18.389  0.00  0.00    +0.000 OA
ATOM      4  H   UNL     1       2.192   7.777  21.104  0.00  0.00    +0.000 HD
ENDROOT
BRANCH   2   5
ATOM      5  C   UNL     1       2.632   7.255  18.536  0.00  0.00    +0.000 A 
ATOM      6  C   UNL     1       3.576   7.561  17.573  0.00  0.00    +0.000 A 
ATOM      7  C   UNL     1       4.246   6.442  17.020  0.00  0.00    +0.000 A 
ATOM      8  C   UNL     1       5.230   6.394  16.005  0.00  0.00    +0.000 A 
ATOM      9  C   UNL     1       5.716   5.171  15.553  0.00  0.00    +0.000 A 
ATOM     10  C   UNL     1       5.244   3.993  16.113  0.00  0.00    +0.000 A 
ATOM     11  C   UNL     1       4.291   4.013  17.146  0.00  0.00    +0.000 A 
ATOM     12  C   UNL     1       3.790   5.254  17.594  0.00  0.00    +0.000 A 
ATOM     13  S   UNL     1       2.597   5.581  18.828  0.00  0.00    +0.000 S 
ENDBRANCH   2   5
BRANCH   1  17
ATOM     14  C   UNL     1      -0.891  11.227  22.436  0.00  0.00    +0.000 A 
ATOM     15  C   UNL     1      -0.285  11.523  21.219  0.00  0.00    +0.000 A 
ATOM     16  C   UNL     1       0.489  10.557  20.575  0.00  0.00    +0.000 A 
ATOM     17  C   UNL     1       0.718   9.286  21.132  0.00  0.00    +0.000 A 
ATOM     18  C   UNL     1       0.075   8.986  22.341  0.00  0.00    +0.000 A 
ATOM     19  C   UNL     1      -0.708   9.956  22.996  0.00  0.00    +0.000 A 
BRANCH  14  21
ATOM     20  N   UNL     1      -2.994  11.924  23.449  0.00  0.00    +0.000 N 
ATOM     21  C   UNL     1      -1.698  12.252  23.148  0.00  0.00    +0.000 C 
ATOM     22  O   UNL     1      -1.225  13.331  23.476  0.00  0.00    +0.000 OA
ATOM     23  H   UNL     1      -3.523  12.592  23.993  0.00  0.00    +0.000 HD
ATOM     24  H   UNL     1      -3.353  10.985  23.376  0.00  0.00    +0.000 HD
ENDBRANCH  14  21
ENDBRANCH   1  17
TORSDOF 3
ENDMDL
MODEL 7
REMARK VINA RESULT:      -6.9      3.192      3.789
REMARK  Name = 
REMARK  3 active torsions:
REMARK  status: ('A' for Active; 'I' for Inactive)
REMARK    1  A    between atoms: C_2  and  C_4
REMARK    2  A    between atoms: C_7  and  N_8
REMARK    3  A    between atoms: C_9  and  C_11
REMARK                            x       y       z     vdW  Elec       q    Type
REMARK                         _______ _______ _______ _____ _____    ______ ____
ROOT
ATOM      1  N   UNL     1       1.452   6.912  20.889  0.00  0.00    +0.000 N 
ATOM      2  C   UNL     1       1.510   8.063  20.103  0.00  0.00    +0.000 C 
ATOM      3  O   UNL     1       2.059   8.065  19.003  0.00  0.00    +0.000 OA
ATOM      4  H   UNL     1       0.783   6.892  21.646  0.00  0.00    +0.000 HD
ENDROOT
BRANCH   2   5
ATOM      5  C   UNL     1       0.894   9.310  20.550  0.00  0.00    +0.000 A 
ATOM      6  C   UNL     1       0.182   9.371  21.734  0.00  0.00    +0.000 A 
ATOM      7  C   UNL     1      -0.427  10.623  21.998  0.00  0.00    +0.000 A 
ATOM      8  C   UNL     1      -1.243  11.015  23.085  0.00  0.00    +0.000 A 
ATOM      9  C   UNL     1      -1.805  12.287  23.120  0.00  0.00    +0.000 A 
ATOM     10  C   UNL     1      -1.551  13.181  22.091  0.00  0.00    +0.000 A 
ATOM     11  C   UNL     1      -0.716  12.830  21.015  0.00  0.00    +0.000 A 
ATOM     12  C   UNL     1      -0.157  11.534  20.976  0.00  0.00    +0.000 A 
ATOM     13  S   UNL     1       0.881  10.818  19.767  0.00  0.00    +0.000 S 
ENDBRANCH   2   5
BRANCH   1  17
ATOM     14  C   UNL     1       3.341   3.287  19.669  0.00  0.00    +0.000 A 
ATOM     15  C   UNL     1       3.973   4.508  19.459  0.00  0.00    +0.000 A 
ATOM     16  C   UNL     1       3.370   5.688  19.899  0.00  0.00    +0.000 A 
ATOM     17  C   UNL     1       2.109   5.697  20.522  0.00  0.00    +0.000 A 
ATOM     18  C   UNL     1       1.496   4.459  20.759  0.00  0.00    +0.000 A 
ATOM     19  C   UNL     1       2.099   3.265  20.318  0.00  0.00    +0.000 A 
BRANCH  14  21
ATOM     20  N   UNL     1       5.067   1.578  19.855  0.00  0.00    +0.000 N 
ATOM     21  C   UNL     1       3.958   2.024  19.185  0.00  0.00    +0.000 C 
ATOM     22  O   UNL     1       3.486   1.394  18.249  0.00  0.00    +0.000 OA
ATOM     23  H   UNL     1       5.446   0.685  19.572  0.00  0.00    +0.000 HD
ATOM     24  H   UNL     1       5.361   1.955  20.742  0.00  0.00    +0.000 HD
ENDBRANCH  14  21
ENDBRANCH   1  17
TORSDOF 3
ENDMDL
MODEL 8
REMARK VINA RESULT:      -6.9      3.129      8.859
REMARK  Name = 
REMARK  3 active torsions:
REMARK  status: ('A' for Active; 'I' for Inactive)
REMARK    1  A    between atoms: C_2  and  C_4
REMARK    2  A    between atoms: C_7  and  N_8
REMARK    3  A    between atoms: C_9  and  C_11
REMARK                            x       y       z     vdW  Elec       q    Type
REMARK                         _______ _______ _______ _____ _____    ______ ____
ROOT
ATOM      1  N   UNL     1       1.766   8.414  19.431  0.00  0.00    +0.000 N 
ATOM      2  C   UNL     1       2.072   7.082  19.705  0.00  0.00    +0.000 C 
ATOM      3  O   UNL     1       1.574   6.489  20.660  0.00  0.00    +0.000 OA
ATOM      4  H   UNL     1       1.992   8.770  18.512  0.00  0.00    +0.000 HD
ENDROOT
BRANCH   2   5
ATOM      5  C   UNL     1       2.984   6.329  18.848  0.00  0.00    +0.000 A 
ATOM      6  C   UNL     1       3.647   6.939  17.798  0.00  0.00    +0.000 A 
ATOM      7  C   UNL     1       4.433   6.068  17.004  0.00  0.00    +0.000 A 
ATOM      8  C   UNL     1       5.201   6.350  15.850  0.00  0.00    +0.000 A 
ATOM      9  C   UNL     1       5.852   5.325  15.171  0.00  0.00    +0.000 A 
ATOM     10  C   UNL     1       5.759   4.022  15.636  0.00  0.00    +0.000 A 
ATOM     11  C   UNL     1       5.030   3.718  16.799  0.00  0.00    +0.000 A 
ATOM     12  C   UNL     1       4.360   4.758  17.480  0.00  0.00    +0.000 A 
ATOM     13  S   UNL     1       3.370   4.676  18.917  0.00  0.00    +0.000 S 
ENDBRANCH   2   5
BRANCH   1  17
ATOM     14  C   UNL     1      -0.591  10.877  21.997  0.00  0.00    +0.000 A 
ATOM     15  C   UNL     1      -0.759  10.944  20.618  0.00  0.00    +0.000 A 
ATOM     16  C   UNL     1      -0.015  10.105  19.785  0.00  0.00    +0.000 A 
ATOM     17  C   UNL     1       0.941   9.206  20.289  0.00  0.00    +0.000 A 
ATOM     18  C   UNL     1       1.079   9.122  21.681  0.00  0.00    +0.000 A 
ATOM     19  C   UNL     1       0.331   9.965  22.527  0.00  0.00    +0.000 A 
BRANCH  14  21
ATOM     20  N   UNL     1      -0.904  13.069  23.012  0.00  0.00    +0.000 N 
ATOM     21  C   UNL     1      -1.356  11.780  22.896  0.00  0.00    +0.000 C 
ATOM     22  O   UNL     1      -2.358  11.403  23.487  0.00  0.00    +0.000 OA
ATOM     23  H   UNL     1      -1.462  13.702  23.568  0.00  0.00    +0.000 HD
ATOM     24  H   UNL     1      -0.213  13.466  22.395  0.00  0.00    +0.000 HD
ENDBRANCH  14  21
ENDBRANCH   1  17
TORSDOF 3
ENDMDL
MODEL 9
REMARK VINA RESULT:      -6.9      3.204      3.898
REMARK  Name = 
REMARK  3 active torsions:
REMARK  status: ('A' for Active; 'I' for Inactive)
REMARK    1  A    between atoms: C_2  and  C_4
REMARK    2  A    between atoms: C_7  and  N_8
REMARK    3  A    between atoms: C_9  and  C_11
REMARK                            x       y       z     vdW  Elec       q    Type
REMARK                         _______ _______ _______ _____ _____    ______ ____
ROOT
ATOM      1  N   UNL     1       1.537   6.573  20.808  0.00  0.00    +0.000 N 
ATOM      2  C   UNL     1       1.649   7.739  20.052  0.00  0.00    +0.000 C 
ATOM      3  O   UNL     1       2.272   7.763  18.993  0.00  0.00    +0.000 OA
ATOM      4  H   UNL     1       0.817   6.538  21.517  0.00  0.00    +0.000 HD
ENDROOT
BRANCH   2   5
ATOM      5  C   UNL     1       1.003   8.977  20.480  0.00  0.00    +0.000 A 
ATOM      6  C   UNL     1       0.366   9.065  21.705  0.00  0.00    +0.000 A 
ATOM      7  C   UNL     1      -0.285  10.299  21.950  0.00  0.00    +0.000 A 
ATOM      8  C   UNL     1      -1.048  10.706  23.069  0.00  0.00    +0.000 A 
ATOM      9  C   UNL     1      -1.667  11.952  23.082  0.00  0.00    +0.000 A 
ATOM     10  C   UNL     1      -1.523  12.805  21.998  0.00  0.00    +0.000 A 
ATOM     11  C   UNL     1      -0.742  12.439  20.887  0.00  0.00    +0.000 A 
ATOM     12  C   UNL     1      -0.125  11.169  20.871  0.00  0.00    +0.000 A 
ATOM     13  S   UNL     1       0.868  10.442  19.631  0.00  0.00    +0.000 S 
ENDBRANCH   2   5
BRANCH   1  17
ATOM     14  C   UNL     1       3.644   2.976  19.901  0.00  0.00    +0.000 A 
ATOM     15  C   UNL     1       2.397   2.918  20.515  0.00  0.00    +0.000 A 
ATOM     16  C   UNL     1       1.693   4.097  20.771  0.00  0.00    +0.000 A 
ATOM     17  C   UNL     1       2.218   5.364  20.463  0.00  0.00    +0.000 A 
ATOM     18  C   UNL     1       3.459   5.410  19.814  0.00  0.00    +0.000 A 
ATOM     19  C   UNL     1       4.175   4.225  19.552  0.00  0.00    +0.000 A 
BRANCH  14  21
ATOM     20  N   UNL     1       4.118   1.039  18.500  0.00  0.00    +0.000 N 
ATOM     21  C   UNL     1       4.417   1.733  19.645  0.00  0.00    +0.000 C 
ATOM     22  O   UNL     1       5.300   1.355  20.402  0.00  0.00    +0.000 OA
ATOM     23  H   UNL     1       4.689   0.233  18.289  0.00  0.00    +0.000 HD
ATOM     24  H   UNL     1       3.547   1.420  17.762  0.00  0.00    +0.000 HD
ENDBRANCH  14  21
ENDBRANCH   1  17
TORSDOF 3
ENDMDL
