MODEL 1
REMARK VINA RESULT:      -7.5      0.000      0.000
REMARK  Name = 
REMARK  4 active torsions:
REMARK  status: ('A' for Active; 'I' for Inactive)
REMARK    1  A    between atoms: C_1  and  C_2
REMARK    2  A    between atoms: C_7  and  C_8
REMARK    3  A    between atoms: N_13  and  S_14
REMARK    4  A    between atoms: S_14  and  C_17
REMARK                            x       y       z     vdW  Elec       q    Type
REMARK                         _______ _______ _______ _____ _____    ______ ____
ROOT
ATOM      1  C   UNL     1       2.616   7.343  18.450  0.00  0.00    +0.000 C 
ATOM      2  O   UNL     1       3.087   7.846  17.434  0.00  0.00    +0.000 OA
ATOM      3  N   UNL     1       1.853   8.084  19.351  0.00  0.00    +0.000 N 
ATOM      4  C   UNL     1       1.455   9.463  19.016  0.00  0.00    +0.000 C 
ATOM      5  C   UNL     1       0.026   9.771  19.517  0.00  0.00    +0.000 C 
ATOM      6  N   UNL     1      -0.174   9.414  20.961  0.00  0.00    +0.000 NA
ATOM      7  C   UNL     1       0.233   7.998  21.211  0.00  0.00    +0.000 C 
ATOM      8  C   UNL     1       1.678   7.752  20.772  0.00  0.00    +0.000 C 
ENDROOT
BRANCH   1  15
ATOM      9  C   UNL     1       5.111   5.497  19.253  0.00  0.00    +0.000 C 
ATOM     10  C   UNL     1       3.988   5.143  18.259  0.00  0.00    +0.000 C 
ATOM     11  C   UNL     1       3.872   3.604  18.205  0.00  0.00    +0.000 C 
ATOM     12  C   UNL     1       2.660   3.106  17.430  0.00  0.00    +0.000 C 
ATOM     13  C   UNL     1       1.384   3.728  17.973  0.00  0.00    +0.000 C 
ATOM     14  C   UNL     1       1.456   5.246  17.887  0.00  0.00    +0.000 C 
ATOM     15  C   UNL     1       2.653   5.813  18.674  0.00  0.00    +0.000 C 
ENDBRANCH   1  15
BRANCH   6  16
ATOM     16  S   UNL     1       0.387  10.534  22.122  0.00  0.00    +0.000 S 
ATOM     17  O   UNL     1       0.518   9.845  23.387  0.00  0.00    +0.000 OA
ATOM     18  O   UNL     1       1.518  11.228  21.545  0.00  0.00    +0.000 OA
BRANCH  16  19
ATOM     19  C   UNL     1      -0.961  11.688  22.280  0.00  0.00    +0.000 A 
ATOM     20  C   UNL     1      -1.967  11.377  23.211  0.00  0.00    +0.000 A 
ATOM     21  C   UNL     1      -3.068  12.213  23.351  0.00  0.00    +0.000 A 
ATOM     22  C   UNL     1      -3.163  13.363  22.572  0.00  0.00    +0.000 A 
ATOM     23  C   UNL     1      -2.154  13.697  21.652  0.00  0.00    +0.000 A 
ATOM     24  C   UNL     1      -2.233  14.867  20.891  0.00  0.00    +0.000 A 
ATOM     25  N   UNL     1      -1.307  15.269  19.994  0.00  0.00    +0.000 NA
ATOM     26  C   UNL     1      -0.250  14.457  19.826  0.00  0.00    +0.000 A 
ATOM     27  C   UNL     1      -0.074  13.268  20.517  0.00  0.00    +0.000 A 
ATOM     28  C   UNL     1      -1.030  12.861  21.476  0.00  0.00    +0.000 A 
ENDBRANCH  16  19
ENDBRANCH   6  16
TORSDOF 3
ENDMDL
MODEL 2
REMARK VINA RESULT:      -7.5      1.645      1.768
REMARK  Name = 
REMARK  4 active torsions:
REMARK  status: ('A' for Active; 'I' for Inactive)
REMARK    1  A    between atoms: C_1  and  C_2
REMARK    2  A    between atoms: C_7  and  C_8
REMARK    3  A    between atoms: N_13  and  S_14
REMARK    4  A    between atoms: S_14  and  C_17
REMARK                            x       y       z     vdW  Elec       q    Type
REMARK                         _______ _______ _______ _____ _____    ______ ____
ROOT
ATOM      1  C   UNL     1       3.113   7.041  18.091  0.00  0.00    +0.000 C 
ATOM      2  O   UNL     1       3.759   7.281  17.075  0.00  0.00    +0.000 OA
ATOM      3  N   UNL     1       2.310   8.005  18.696  0.00  0.00    +0.000 N 
ATOM      4  C   UNL     1       2.089   9.301  18.030  0.00  0.00    +0.000 C 
ATOM      5  C   UNL     1       0.642   9.800  18.238  0.00  0.00    +0.000 C 
ATOM      6  N   UNL     1       0.220   9.777  19.679  0.00  0.00    +0.000 NA
ATOM      7  C   UNL     1       0.457   8.426  20.272  0.00  0.00    +0.000 C 
ATOM      8  C   UNL     1       1.918   8.000  20.113  0.00  0.00    +0.000 C 
ENDROOT
BRANCH   1  15
ATOM      9  C   UNL     1       5.377   5.152  19.348  0.00  0.00    +0.000 C 
ATOM     10  C   UNL     1       4.236   4.717  18.409  0.00  0.00    +0.000 C 
ATOM     11  C   UNL     1       3.951   3.222  18.669  0.00  0.00    +0.000 C 
ATOM     12  C   UNL     1       2.703   2.703  17.970  0.00  0.00    +0.000 C 
ATOM     13  C   UNL     1       1.496   3.556  18.325  0.00  0.00    +0.000 C 
ATOM     14  C   UNL     1       1.736   5.006  17.931  0.00  0.00    +0.000 C 
ATOM     15  C   UNL     1       2.978   5.596  18.628  0.00  0.00    +0.000 C 
ENDBRANCH   1  15
BRANCH   6  16
ATOM     16  S   UNL     1       0.724  11.084  20.655  0.00  0.00    +0.000 S 
ATOM     17  O   UNL     1       1.438  10.547  21.794  0.00  0.00    +0.000 OA
ATOM     18  O   UNL     1       1.353  12.057  19.789  0.00  0.00    +0.000 OA
BRANCH  16  19
ATOM     19  C   UNL     1      -0.803  11.771  21.260  0.00  0.00    +0.000 A 
ATOM     20  C   UNL     1      -0.846  12.153  22.612  0.00  0.00    +0.000 A 
ATOM     21  C   UNL     1      -2.022  12.655  23.157  0.00  0.00    +0.000 A 
ATOM     22  C   UNL     1      -3.152  12.786  22.355  0.00  0.00    +0.000 A 
ATOM     23  C   UNL     1      -3.117  12.429  20.995  0.00  0.00    +0.000 A 
ATOM     24  C   UNL     1      -4.242  12.589  20.181  0.00  0.00    +0.000 A 
ATOM     25  N   UNL     1      -4.294  12.281  18.867  0.00  0.00    +0.000 NA
ATOM     26  C   UNL     1      -3.174  11.768  18.331  0.00  0.00    +0.000 A 
ATOM     27  C   UNL     1      -2.005  11.555  19.046  0.00  0.00    +0.000 A 
ATOM     28  C   UNL     1      -1.943  11.902  20.416  0.00  0.00    +0.000 A 
ENDBRANCH  16  19
ENDBRANCH   6  16
TORSDOF 3
ENDMDL
MODEL 3
REMARK VINA RESULT:      -7.1      1.418      1.578
REMARK  Name = 
REMARK  4 active torsions:
REMARK  status: ('A' for Active; 'I' for Inactive)
REMARK    1  A    between atoms: C_1  and  C_2
REMARK    2  A    between atoms: C_7  and  C_8
REMARK    3  A    between atoms: N_13  and  S_14
REMARK    4  A    between atoms: S_14  and  C_17
REMARK                            x       y       z     vdW  Elec       q    Type
REMARK                         _______ _______ _______ _____ _____    ______ ____
ROOT
ATOM      1  C   UNL     1       3.024   7.155  18.062  0.00  0.00    +0.000 C 
ATOM      2  O   UNL     1       3.635   7.361  17.018  0.00  0.00    +0.000 OA
ATOM      3  N   UNL     1       2.245   8.140  18.665  0.00  0.00    +0.000 N 
ATOM      4  C   UNL     1       2.004   9.416  17.966  0.00  0.00    +0.000 C 
ATOM      5  C   UNL     1       0.566   9.926  18.208  0.00  0.00    +0.000 C 
ATOM      6  N   UNL     1       0.195   9.950  19.663  0.00  0.00    +0.000 NA
ATOM      7  C   UNL     1       0.449   8.617  20.290  0.00  0.00    +0.000 C 
ATOM      8  C   UNL     1       1.903   8.182  20.094  0.00  0.00    +0.000 C 
ENDROOT
BRANCH   1  15
ATOM      9  C   UNL     1       5.322   5.309  19.323  0.00  0.00    +0.000 C 
ATOM     10  C   UNL     1       4.158   4.844  18.428  0.00  0.00    +0.000 C 
ATOM     11  C   UNL     1       3.882   3.358  18.743  0.00  0.00    +0.000 C 
ATOM     12  C   UNL     1       2.617   2.816  18.094  0.00  0.00    +0.000 C 
ATOM     13  C   UNL     1       1.419   3.679  18.451  0.00  0.00    +0.000 C 
ATOM     14  C   UNL     1       1.647   5.115  18.004  0.00  0.00    +0.000 C 
ATOM     15  C   UNL     1       2.905   5.729  18.649  0.00  0.00    +0.000 C 
ENDBRANCH   1  15
BRANCH   6  16
ATOM     16  S   UNL     1       0.736  11.285  20.579  0.00  0.00    +0.000 S 
ATOM     17  O   UNL     1       1.046  10.821  21.914  0.00  0.00    +0.000 OA
ATOM     18  O   UNL     1       1.734  11.976  19.793  0.00  0.00    +0.000 OA
BRANCH  16  19
ATOM     19  C   UNL     1      -0.705  12.326  20.698  0.00  0.00    +0.000 A 
ATOM     20  C   UNL     1      -1.901  11.834  20.147  0.00  0.00    +0.000 A 
ATOM     21  C   UNL     1      -3.050  12.615  20.168  0.00  0.00    +0.000 A 
ATOM     22  C   UNL     1      -3.012  13.880  20.746  0.00  0.00    +0.000 A 
ATOM     23  C   UNL     1      -1.829  14.376  21.321  0.00  0.00    +0.000 A 
ATOM     24  C   UNL     1      -1.798  15.634  21.930  0.00  0.00    +0.000 A 
ATOM     25  N   UNL     1      -0.710  16.183  22.513  0.00  0.00    +0.000 NA
ATOM     26  C   UNL     1       0.417  15.452  22.476  0.00  0.00    +0.000 A 
ATOM     27  C   UNL     1       0.504  14.199  21.890  0.00  0.00    +0.000 A 
ATOM     28  C   UNL     1      -0.641  13.614  21.303  0.00  0.00    +0.000 A 
ENDBRANCH  16  19
ENDBRANCH   6  16
TORSDOF 3
ENDMDL
MODEL 4
REMARK VINA RESULT:      -7.1      1.050      2.078
REMARK  Name = 
REMARK  4 active torsions:
REMARK  status: ('A' for Active; 'I' for Inactive)
REMARK    1  A    between atoms: C_1  and  C_2
REMARK    2  A    between atoms: C_7  and  C_8
REMARK    3  A    between atoms: N_13  and  S_14
REMARK    4  A    between atoms: S_14  and  C_17
REMARK                            x       y       z     vdW  Elec       q    Type
REMARK                         _______ _______ _______ _____ _____    ______ ____
ROOT
ATOM      1  C   UNL     1       2.653   7.402  18.393  0.00  0.00    +0.000 C 
ATOM      2  O   UNL     1       3.162   7.828  17.360  0.00  0.00    +0.000 OA
ATOM      3  N   UNL     1       1.867   8.209  19.212  0.00  0.00    +0.000 N 
ATOM      4  C   UNL     1       1.491   9.563  18.767  0.00  0.00    +0.000 C 
ATOM      5  C   UNL     1       0.049   9.916  19.195  0.00  0.00    +0.000 C 
ATOM      6  N   UNL     1      -0.202   9.664  20.654  0.00  0.00    +0.000 NA
ATOM      7  C   UNL     1       0.185   8.266  21.018  0.00  0.00    +0.000 C 
ATOM      8  C   UNL     1       1.641   7.981  20.647  0.00  0.00    +0.000 C 
ENDROOT
BRANCH   1  15
ATOM      9  C   UNL     1       5.127   5.581  19.309  0.00  0.00    +0.000 C 
ATOM     10  C   UNL     1       3.991   5.173  18.352  0.00  0.00    +0.000 C 
ATOM     11  C   UNL     1       3.852   3.636  18.409  0.00  0.00    +0.000 C 
ATOM     12  C   UNL     1       2.627   3.102  17.681  0.00  0.00    +0.000 C 
ATOM     13  C   UNL     1       1.365   3.781  18.186  0.00  0.00    +0.000 C 
ATOM     14  C   UNL     1       1.458   5.287  17.991  0.00  0.00    +0.000 C 
ATOM     15  C   UNL     1       2.670   5.892  18.727  0.00  0.00    +0.000 C 
ENDBRANCH   1  15
BRANCH   6  16
ATOM     16  S   UNL     1       0.330  10.860  21.750  0.00  0.00    +0.000 S 
ATOM     17  O   UNL     1      -0.018  10.433  23.088  0.00  0.00    +0.000 OA
ATOM     18  O   UNL     1       1.701  11.178  21.416  0.00  0.00    +0.000 OA
BRANCH  16  19
ATOM     19  C   UNL     1      -0.686  12.270  21.360  0.00  0.00    +0.000 A 
ATOM     20  C   UNL     1      -0.274  13.084  20.291  0.00  0.00    +0.000 A 
ATOM     21  C   UNL     1      -0.998  14.224  19.965  0.00  0.00    +0.000 A 
ATOM     22  C   UNL     1      -2.138  14.549  20.695  0.00  0.00    +0.000 A 
ATOM     23  C   UNL     1      -2.574  13.731  21.752  0.00  0.00    +0.000 A 
ATOM     24  C   UNL     1      -3.736  14.040  22.466  0.00  0.00    +0.000 A 
ATOM     25  N   UNL     1      -4.232  13.307  23.488  0.00  0.00    +0.000 NA
ATOM     26  C   UNL     1      -3.527  12.217  23.835  0.00  0.00    +0.000 A 
ATOM     27  C   UNL     1      -2.356  11.823  23.205  0.00  0.00    +0.000 A 
ATOM     28  C   UNL     1      -1.853  12.575  22.118  0.00  0.00    +0.000 A 
ENDBRANCH  16  19
ENDBRANCH   6  16
TORSDOF 3
ENDMDL
MODEL 5
REMARK VINA RESULT:      -6.9      1.603      1.938
REMARK  Name = 
REMARK  4 active torsions:
REMARK  status: ('A' for Active; 'I' for Inactive)
REMARK    1  A    between atoms: C_1  and  C_2
REMARK    2  A    between atoms: C_7  and  C_8
REMARK    3  A    between atoms: N_13  and  S_14
REMARK    4  A    between atoms: S_14  and  C_17
REMARK                            x       y       z     vdW  Elec       q    Type
REMARK                         _______ _______ _______ _____ _____    ______ ____
ROOT
ATOM      1  C   UNL     1       2.531   7.298  19.257  0.00  0.00    +0.000 C 
ATOM      2  O   UNL     1       3.085   7.553  18.192  0.00  0.00    +0.000 OA
ATOM      3  N   UNL     1       1.652   8.193  19.862  0.00  0.00    +0.000 N 
ATOM      4  C   UNL     1       1.238   9.413  19.145  0.00  0.00    +0.000 C 
ATOM      5  C   UNL     1      -0.246   9.748  19.417  0.00  0.00    +0.000 C 
ATOM      6  N   UNL     1      -0.580   9.760  20.881  0.00  0.00    +0.000 NA
ATOM      7  C   UNL     1      -0.147   8.483  21.527  0.00  0.00    +0.000 C 
ATOM      8  C   UNL     1       1.343   8.225  21.299  0.00  0.00    +0.000 C 
ENDROOT
BRANCH   1  15
ATOM      9  C   UNL     1       5.020   5.279  19.352  0.00  0.00    +0.000 C 
ATOM     10  C   UNL     1       3.543   4.906  19.119  0.00  0.00    +0.000 C 
ATOM     11  C   UNL     1       3.346   3.443  19.572  0.00  0.00    +0.000 C 
ATOM     12  C   UNL     1       1.891   3.001  19.607  0.00  0.00    +0.000 C 
ATOM     13  C   UNL     1       1.062   3.949  20.457  0.00  0.00    +0.000 C 
ATOM     14  C   UNL     1       1.151   5.367  19.912  0.00  0.00    +0.000 C 
ATOM     15  C   UNL     1       2.603   5.882  19.875  0.00  0.00    +0.000 C 
ENDBRANCH   1  15
BRANCH   6  16
ATOM     16  S   UNL     1      -0.185  11.172  21.756  0.00  0.00    +0.000 S 
ATOM     17  O   UNL     1      -0.168  10.841  23.164  0.00  0.00    +0.000 OA
ATOM     18  O   UNL     1       0.977  11.761  21.128  0.00  0.00    +0.000 OA
BRANCH  16  19
ATOM     19  C   UNL     1      -1.581  12.243  21.478  0.00  0.00    +0.000 A 
ATOM     20  C   UNL     1      -2.418  11.940  20.391  0.00  0.00    +0.000 A 
ATOM     21  C   UNL     1      -3.497  12.762  20.093  0.00  0.00    +0.000 A 
ATOM     22  C   UNL     1      -3.751  13.880  20.883  0.00  0.00    +0.000 A 
ATOM     23  C   UNL     1      -2.934  14.183  21.987  0.00  0.00    +0.000 A 
ATOM     24  C   UNL     1      -3.205  15.289  22.798  0.00  0.00    +0.000 A 
ATOM     25  N   UNL     1      -2.481  15.647  23.881  0.00  0.00    +0.000 NA
ATOM     26  C   UNL     1      -1.416  14.879  24.166  0.00  0.00    +0.000 A 
ATOM     27  C   UNL     1      -1.047  13.768  23.423  0.00  0.00    +0.000 A 
ATOM     28  C   UNL     1      -1.821  13.377  22.306  0.00  0.00    +0.000 A 
ENDBRANCH  16  19
ENDBRANCH   6  16
TORSDOF 3
ENDMDL
MODEL 6
REMARK VINA RESULT:      -6.7      0.908      1.946
REMARK  Name = 
REMARK  4 active torsions:
REMARK  status: ('A' for Active; 'I' for Inactive)
REMARK    1  A    between atoms: C_1  and  C_2
REMARK    2  A    between atoms: C_7  and  C_8
REMARK    3  A    between atoms: N_13  and  S_14
REMARK    4  A    between atoms: S_14  and  C_17
REMARK                            x       y       z     vdW  Elec       q    Type
REMARK                         _______ _______ _______ _____ _____    ______ ____
ROOT
ATOM      1  C   UNL     1       2.690   7.229  18.489  0.00  0.00    +0.000 C 
ATOM      2  O   UNL     1       3.198   7.749  17.501  0.00  0.00    +0.000 OA
ATOM      3  N   UNL     1       1.890   7.953  19.372  0.00  0.00    +0.000 N 
ATOM      4  C   UNL     1       1.499   9.336  19.043  0.00  0.00    +0.000 C 
ATOM      5  C   UNL     1       0.051   9.632  19.493  0.00  0.00    +0.000 C 
ATOM      6  N   UNL     1      -0.203   9.251  20.923  0.00  0.00    +0.000 NA
ATOM      7  C   UNL     1       0.199   7.832  21.166  0.00  0.00    +0.000 C 
ATOM      8  C   UNL     1       1.661   7.598  20.780  0.00  0.00    +0.000 C 
ENDROOT
BRANCH   1  15
ATOM      9  C   UNL     1       5.198   5.356  19.180  0.00  0.00    +0.000 C 
ATOM     10  C   UNL     1       4.039   5.023  18.221  0.00  0.00    +0.000 C 
ATOM     11  C   UNL     1       3.911   3.486  18.149  0.00  0.00    +0.000 C 
ATOM     12  C   UNL     1       2.670   3.007  17.410  0.00  0.00    +0.000 C 
ATOM     13  C   UNL     1       1.418   3.630  18.004  0.00  0.00    +0.000 C 
ATOM     14  C   UNL     1       1.497   5.148  17.937  0.00  0.00    +0.000 C 
ATOM     15  C   UNL     1       2.724   5.696  18.691  0.00  0.00    +0.000 C 
ENDBRANCH   1  15
BRANCH   6  16
ATOM     16  S   UNL     1       0.309  10.354  22.122  0.00  0.00    +0.000 S 
ATOM     17  O   UNL     1      -0.588  10.240  23.252  0.00  0.00    +0.000 OA
ATOM     18  O   UNL     1       1.733  10.177  22.297  0.00  0.00    +0.000 OA
BRANCH  16  19
ATOM     19  C   UNL     1       0.026  11.947  21.377  0.00  0.00    +0.000 A 
ATOM     20  C   UNL     1       1.117  12.559  20.735  0.00  0.00    +0.000 A 
ATOM     21  C   UNL     1       0.974  13.821  20.172  0.00  0.00    +0.000 A 
ATOM     22  C   UNL     1      -0.255  14.470  20.239  0.00  0.00    +0.000 A 
ATOM     23  C   UNL     1      -1.360  13.861  20.859  0.00  0.00    +0.000 A 
ATOM     24  C   UNL     1      -2.603  14.499  20.900  0.00  0.00    +0.000 A 
ATOM     25  N   UNL     1      -3.717  13.984  21.465  0.00  0.00    +0.000 NA
ATOM     26  C   UNL     1      -3.589  12.776  22.039  0.00  0.00    +0.000 A 
ATOM     27  C   UNL     1      -2.403  12.058  22.068  0.00  0.00    +0.000 A 
ATOM     28  C   UNL     1      -1.244  12.586  21.453  0.00  0.00    +0.000 A 
ENDBRANCH  16  19
ENDBRANCH   6  16
TORSDOF 3
ENDMDL
MODEL 7
REMARK VINA RESULT:      -6.7      2.046      3.373
REMARK  Name = 
REMARK  4 active torsions:
REMARK  status: ('A' for Active; 'I' for Inactive)
REMARK    1  A    between atoms: C_1  and  C_2
REMARK    2  A    between atoms: C_7  and  C_8
REMARK    3  A    between atoms: N_13  and  S_14
REMARK    4  A    between atoms: S_14  and  C_17
REMARK                            x       y       z     vdW  Elec       q    Type
REMARK                         _______ _______ _______ _____ _____    ______ ____
ROOT
ATOM      1  C   UNL     1       2.827   6.081  18.999  0.00  0.00    +0.000 C 
ATOM      2  O   UNL     1       2.910   5.382  20.005  0.00  0.00    +0.000 OA
ATOM      3  N   UNL     1       2.175   7.312  19.012  0.00  0.00    +0.000 N 
ATOM      4  C   UNL     1       1.707   7.883  20.288  0.00  0.00    +0.000 C 
ATOM      5  C   UNL     1       1.892   9.417  20.318  0.00  0.00    +0.000 C 
ATOM      6  N   UNL     1       1.324  10.094  19.104  0.00  0.00    +0.000 NA
ATOM      7  C   UNL     1       1.863   9.471  17.857  0.00  0.00    +0.000 C 
ATOM      8  C   UNL     1       1.594   7.965  17.830  0.00  0.00    +0.000 C 
ENDROOT
BRANCH   1  15
ATOM      9  C   UNL     1       2.648   3.460  17.162  0.00  0.00    +0.000 C 
ATOM     10  C   UNL     1       3.928   4.229  17.544  0.00  0.00    +0.000 C 
ATOM     11  C   UNL     1       4.981   3.971  16.445  0.00  0.00    +0.000 C 
ATOM     12  C   UNL     1       6.226   4.838  16.571  0.00  0.00    +0.000 C 
ATOM     13  C   UNL     1       5.850   6.309  16.630  0.00  0.00    +0.000 C 
ATOM     14  C   UNL     1       4.923   6.574  17.806  0.00  0.00    +0.000 C 
ATOM     15  C   UNL     1       3.630   5.740  17.722  0.00  0.00    +0.000 C 
ENDBRANCH   1  15
BRANCH   6  16
ATOM     16  S   UNL     1      -0.360  10.378  19.090  0.00  0.00    +0.000 S 
ATOM     17  O   UNL     1      -0.836  10.201  17.736  0.00  0.00    +0.000 OA
ATOM     18  O   UNL     1      -0.938   9.616  20.175  0.00  0.00    +0.000 OA
BRANCH  16  19
ATOM     19  C   UNL     1      -0.498  12.110  19.482  0.00  0.00    +0.000 A 
ATOM     20  C   UNL     1      -0.278  13.025  18.438  0.00  0.00    +0.000 A 
ATOM     21  C   UNL     1      -0.327  14.391  18.687  0.00  0.00    +0.000 A 
ATOM     22  C   UNL     1      -0.605  14.847  19.972  0.00  0.00    +0.000 A 
ATOM     23  C   UNL     1      -0.848  13.943  21.022  0.00  0.00    +0.000 A 
ATOM     24  C   UNL     1      -1.157  14.400  22.306  0.00  0.00    +0.000 A 
ATOM     25  N   UNL     1      -1.414  13.604  23.368  0.00  0.00    +0.000 NA
ATOM     26  C   UNL     1      -1.342  12.280  23.150  0.00  0.00    +0.000 A 
ATOM     27  C   UNL     1      -1.033  11.717  21.921  0.00  0.00    +0.000 A 
ATOM     28  C   UNL     1      -0.791  12.550  20.804  0.00  0.00    +0.000 A 
ENDBRANCH  16  19
ENDBRANCH   6  16
TORSDOF 3
ENDMDL
MODEL 8
REMARK VINA RESULT:      -6.6      3.672      9.155
REMARK  Name = 
REMARK  4 active torsions:
REMARK  status: ('A' for Active; 'I' for Inactive)
REMARK    1  A    between atoms: C_1  and  C_2
REMARK    2  A    between atoms: C_7  and  C_8
REMARK    3  A    between atoms: N_13  and  S_14
REMARK    4  A    between atoms: S_14  and  C_17
REMARK                            x       y       z     vdW  Elec       q    Type
REMARK                         _______ _______ _______ _____ _____    ______ ____
ROOT
ATOM      1  C   UNL     1       1.239   7.394  20.762  0.00  0.00    +0.000 C 
ATOM      2  O   UNL     1       0.447   7.161  21.670  0.00  0.00    +0.000 OA
ATOM      3  N   UNL     1       1.841   6.372  20.031  0.00  0.00    +0.000 N 
ATOM      4  C   UNL     1       1.409   4.976  20.227  0.00  0.00    +0.000 C 
ATOM      5  C   UNL     1       1.405   4.197  18.893  0.00  0.00    +0.000 C 
ATOM      6  N   UNL     1       2.695   4.334  18.136  0.00  0.00    +0.000 NA
ATOM      7  C   UNL     1       3.049   5.776  17.963  0.00  0.00    +0.000 C 
ATOM      8  C   UNL     1       3.117   6.494  19.312  0.00  0.00    +0.000 C 
ENDROOT
BRANCH   1  15
ATOM      9  C   UNL     1       0.779  10.176  22.287  0.00  0.00    +0.000 C 
ATOM     10  C   UNL     1       0.452   9.872  20.813  0.00  0.00    +0.000 C 
ATOM     11  C   UNL     1       0.487  11.205  20.035  0.00  0.00    +0.000 C 
ATOM     12  C   UNL     1       0.397  11.038  18.525  0.00  0.00    +0.000 C 
ATOM     13  C   UNL     1       1.474  10.089  18.025  0.00  0.00    +0.000 C 
ATOM     14  C   UNL     1       1.338   8.731  18.697  0.00  0.00    +0.000 C 
ATOM     15  C   UNL     1       1.445   8.832  20.232  0.00  0.00    +0.000 C 
ENDBRANCH   1  15
BRANCH   6  16
ATOM     16  S   UNL     1       3.990   3.333  18.623  0.00  0.00    +0.000 S 
ATOM     17  O   UNL     1       3.930   3.185  20.061  0.00  0.00    +0.000 OA
ATOM     18  O   UNL     1       3.985   2.168  17.766  0.00  0.00    +0.000 OA
BRANCH  16  19
ATOM     19  C   UNL     1       5.435   4.304  18.247  0.00  0.00    +0.000 A 
ATOM     20  C   UNL     1       6.117   4.888  19.329  0.00  0.00    +0.000 A 
ATOM     21  C   UNL     1       7.226   5.693  19.100  0.00  0.00    +0.000 A 
ATOM     22  C   UNL     1       7.663   5.909  17.796  0.00  0.00    +0.000 A 
ATOM     23  C   UNL     1       7.004   5.314  16.706  0.00  0.00    +0.000 A 
ATOM     24  C   UNL     1       7.459   5.505  15.399  0.00  0.00    +0.000 A 
ATOM     25  N   UNL     1       6.894   4.965  14.297  0.00  0.00    +0.000 NA
ATOM     26  C   UNL     1       5.803   4.207  14.499  0.00  0.00    +0.000 A 
ATOM     27  C   UNL     1       5.257   3.960  15.749  0.00  0.00    +0.000 A 
ATOM     28  C   UNL     1       5.866   4.503  16.904  0.00  0.00    +0.000 A 
ENDBRANCH  16  19
ENDBRANCH   6  16
TORSDOF 3
ENDMDL
MODEL 9
REMARK VINA RESULT:      -6.5      2.063      3.245
REMARK  Name = 
REMARK  4 active torsions:
REMARK  status: ('A' for Active; 'I' for Inactive)
REMARK    1  A    between atoms: C_1  and  C_2
REMARK    2  A    between atoms: C_7  and  C_8
REMARK    3  A    between atoms: N_13  and  S_14
REMARK    4  A    between atoms: S_14  and  C_17
REMARK                            x       y       z     vdW  Elec       q    Type
REMARK                         _______ _______ _______ _____ _____    ______ ____
ROOT
ATOM      1  C   UNL     1       2.656   6.203  19.034  0.00  0.00    +0.000 C 
ATOM      2  O   UNL     1       2.750   5.496  20.033  0.00  0.00    +0.000 OA
ATOM      3  N   UNL     1       2.050   7.457  19.076  0.00  0.00    +0.000 N 
ATOM      4  C   UNL     1       1.651   8.037  20.371  0.00  0.00    +0.000 C 
ATOM      5  C   UNL     1       1.892   9.564  20.400  0.00  0.00    +0.000 C 
ATOM      6  N   UNL     1       1.305  10.268  19.211  0.00  0.00    +0.000 NA
ATOM      7  C   UNL     1       1.775   9.632  17.942  0.00  0.00    +0.000 C 
ATOM      8  C   UNL     1       1.450   8.137  17.919  0.00  0.00    +0.000 C 
ENDROOT
BRANCH   1  15
ATOM      9  C   UNL     1       2.475   3.506  17.311  0.00  0.00    +0.000 C 
ATOM     10  C   UNL     1       3.744   4.335  17.589  0.00  0.00    +0.000 C 
ATOM     11  C   UNL     1       4.743   4.071  16.442  0.00  0.00    +0.000 C 
ATOM     12  C   UNL     1       5.958   4.987  16.463  0.00  0.00    +0.000 C 
ATOM     13  C   UNL     1       5.530   6.445  16.487  0.00  0.00    +0.000 C 
ATOM     14  C   UNL     1       4.661   6.724  17.705  0.00  0.00    +0.000 C 
ATOM     15  C   UNL     1       3.398   5.840  17.727  0.00  0.00    +0.000 C 
ENDBRANCH   1  15
BRANCH   6  16
ATOM     16  S   UNL     1      -0.367  10.612  19.260  0.00  0.00    +0.000 S 
ATOM     17  O   UNL     1      -0.894  10.486  17.919  0.00  0.00    +0.000 OA
ATOM     18  O   UNL     1      -0.937   9.846  20.347  0.00  0.00    +0.000 OA
BRANCH  16  19
ATOM     19  C   UNL     1      -0.428  12.339  19.696  0.00  0.00    +0.000 A 
ATOM     20  C   UNL     1       0.782  13.053  19.665  0.00  0.00    +0.000 A 
ATOM     21  C   UNL     1       0.810  14.391  20.036  0.00  0.00    +0.000 A 
ATOM     22  C   UNL     1      -0.367  15.022  20.429  0.00  0.00    +0.000 A 
ATOM     23  C   UNL     1      -1.589  14.325  20.444  0.00  0.00    +0.000 A 
ATOM     24  C   UNL     1      -2.777  14.966  20.808  0.00  0.00    +0.000 A 
ATOM     25  N   UNL     1      -3.992  14.377  20.841  0.00  0.00    +0.000 NA
ATOM     26  C   UNL     1      -4.032  13.075  20.513  0.00  0.00    +0.000 A 
ATOM     27  C   UNL     1      -2.916  12.338  20.147  0.00  0.00    +0.000 A 
ATOM     28  C   UNL     1      -1.648  12.962  20.086  0.00  0.00    +0.000 A 
ENDBRANCH  16  19
ENDBRANCH   6  16
TORSDOF 3
ENDMDL
