MODEL 1
REMARK VINA RESULT:      -7.6      0.000      0.000
REMARK  Name = 
REMARK  13 active torsions:
REMARK  status: ('A' for Active; 'I' for Inactive)
REMARK    1  A    between atoms: C_1  and  S_2
REMARK    2  A    between atoms: S_2  and  C_4
REMARK    3  A    between atoms: C_4  and  C_5
REMARK    4  A    between atoms: C_5  and  N_6
REMARK    5  A    between atoms: C_5  and  C_7
REMARK    6  A    between atoms: C_7  and  O_9
REMARK    7  A    between atoms: N_10  and  S_11
REMARK    8  A    between atoms: S_11  and  N_14
REMARK    9  A    between atoms: N_14  and  C_15
REMARK   10  A    between atoms: C_15  and  C_16
REMARK   11  A    between atoms: C_18  and  N_19
REMARK   12  A    between atoms: C_29  and  O_30
REMARK   13  A    between atoms: C_31  and  O_32
REMARK                            x       y       z     vdW  Elec       q    Type
REMARK                         _______ _______ _______ _____ _____    ______ ____
ROOT
ATOM      1  C   UNK     1       2.525   5.281  18.919  0.00  0.00    +0.000 C 
ATOM      2  O   UNK     1       3.126   5.163  17.607  0.00  0.00    +0.000 OA
ATOM      3  C   UNK     1       4.320   4.360  17.717  0.00  0.00    +0.000 C 
ATOM      4  C   UNK     1       4.695   4.297  19.192  0.00  0.00    +0.000 C 
ATOM      5  C   UNK     1       3.333   4.393  19.863  0.00  0.00    +0.000 C 
ENDROOT
BRANCH   3   6
ATOM      6  N   UNK     1       5.374   4.885  16.872  0.00  0.00    +0.000 N 
ATOM      7  C   UNK     1       6.278   5.835  17.286  0.00  0.00    +0.000 A 
ATOM      8  N   UNK     1       7.179   6.094  16.364  0.00  0.00    +0.000 NA
ATOM      9  C   UNK     1       6.821   5.304  15.293  0.00  0.00    +0.000 A 
ATOM     10  C   UNK     1       7.391   5.130  14.021  0.00  0.00    +0.000 A 
ATOM     11  N   UNK     1       8.556   5.762  13.611  0.00  0.00    +0.000 N 
ATOM     12  N   UNK     1       6.774   4.306  13.144  0.00  0.00    +0.000 NA
ATOM     13  C   UNK     1       5.655   3.671  13.547  0.00  0.00    +0.000 A 
ATOM     14  N   UNK     1       5.018   3.746  14.736  0.00  0.00    +0.000 NA
ATOM     15  C   UNK     1       5.671   4.576  15.572  0.00  0.00    +0.000 A 
ATOM     16  H   UNK     1       8.789   6.594  14.144  0.00  0.00    +0.000 HD
ATOM     17  H   UNK     1       8.659   5.791  12.607  0.00  0.00    +0.000 HD
ENDBRANCH   3   6
BRANCH   4  18
ATOM     18  O   UNK     1       5.351   3.074  19.529  0.00  0.00    +0.000 OA
ATOM     19  H   UNK     1       6.104   2.990  18.905  0.00  0.00    +0.000 HD
ENDBRANCH   4  18
BRANCH   5  20
ATOM     20  O   UNK     1       2.790   3.063  19.945  0.00  0.00    +0.000 OA
ATOM     21  H   UNK     1       1.980   3.076  20.489  0.00  0.00    +0.000 HD
ENDBRANCH   5  20
BRANCH   1  22
ATOM     22  C   UNK     1       2.548   6.741  19.370  0.00  0.00    +0.000 C 
BRANCH  22  23
ATOM     23  N   UNK     1       1.867   6.865  20.673  0.00  0.00    +0.000 NA
ATOM     24  H   UNK     1       1.236   6.094  20.898  0.00  0.00    +0.000 HD
BRANCH  23  25
ATOM     25  S   UNK     1       1.207   8.366  21.004  0.00  0.00    +0.000 S 
ATOM     26  O   UNK     1       1.859   8.863  22.189  0.00  0.00    +0.000 OA
ATOM     27  O   UNK     1      -0.230   8.206  20.952  0.00  0.00    +0.000 OA
BRANCH  25  31
ATOM     28  C   UNK     1       2.096  11.340  17.986  0.00  0.00    +0.000 C 
ATOM     29  S   UNK     1       0.954  10.661  19.171  0.00  0.00    +0.000 S 
ATOM     30  O   UNK     1       0.726  11.598  20.242  0.00  0.00    +0.000 OA
ATOM     31  N   UNK     1       1.668   9.250  19.642  0.00  0.00    +0.000 NA
BRANCH  29  32
ATOM     32  C   UNK     1      -0.522  10.225  18.263  0.00  0.00    +0.000 C 
BRANCH  32  33
ATOM     33  C   UNK     1      -1.612  11.290  18.294  0.00  0.00    +0.000 C 
BRANCH  33  34
ATOM     34  N   UNK     1      -1.217  12.610  17.731  0.00  0.00    +0.000 NA
ATOM     35  H   UNK     1      -1.657  12.733  16.812  0.00  0.00    +0.000 HD
ATOM     36  H   UNK     1      -0.211  12.547  17.495  0.00  0.00    +0.000 HD
ENDBRANCH  33  34
BRANCH  33  37
ATOM     37  C   UNK     1      -2.844  10.813  17.519  0.00  0.00    +0.000 C 
ATOM     38  O   UNK     1      -3.199   9.653  17.404  0.00  0.00    +0.000 OA
BRANCH  37  39
ATOM     39  O   UNK     1      -3.527  11.870  17.005  0.00  0.00    +0.000 OA
ATOM     40  H   UNK     1      -2.869  12.612  16.957  0.00  0.00    +0.000 HD
ENDBRANCH  37  39
ENDBRANCH  33  37
ENDBRANCH  32  33
ENDBRANCH  29  32
ENDBRANCH  25  31
ENDBRANCH  23  25
ENDBRANCH  22  23
ENDBRANCH   1  22
TORSDOF 12
ENDMDL
MODEL 2
REMARK VINA RESULT:      -7.4      1.272      2.036
REMARK  Name = 
REMARK  13 active torsions:
REMARK  status: ('A' for Active; 'I' for Inactive)
REMARK    1  A    between atoms: C_1  and  S_2
REMARK    2  A    between atoms: S_2  and  C_4
REMARK    3  A    between atoms: C_4  and  C_5
REMARK    4  A    between atoms: C_5  and  N_6
REMARK    5  A    between atoms: C_5  and  C_7
REMARK    6  A    between atoms: C_7  and  O_9
REMARK    7  A    between atoms: N_10  and  S_11
REMARK    8  A    between atoms: S_11  and  N_14
REMARK    9  A    between atoms: N_14  and  C_15
REMARK   10  A    between atoms: C_15  and  C_16
REMARK   11  A    between atoms: C_18  and  N_19
REMARK   12  A    between atoms: C_29  and  O_30
REMARK   13  A    between atoms: C_31  and  O_32
REMARK                            x       y       z     vdW  Elec       q    Type
REMARK                         _______ _______ _______ _____ _____    ______ ____
ROOT
ATOM      1  C   UNK     1       1.621   5.721  19.606  0.00  0.00    +0.000 C 
ATOM      2  O   UNK     1       2.080   5.295  18.300  0.00  0.00    +0.000 OA
ATOM      3  C   UNK     1       2.920   4.132  18.463  0.00  0.00    +0.000 C 
ATOM      4  C   UNK     1       3.316   4.056  19.932  0.00  0.00    +0.000 C 
ATOM      5  C   UNK     1       2.108   4.681  20.613  0.00  0.00    +0.000 C 
ENDROOT
BRANCH   3   6
ATOM      6  N   UNK     1       4.050   4.181  17.558  0.00  0.00    +0.000 N 
ATOM      7  C   UNK     1       4.375   3.164  16.692  0.00  0.00    +0.000 A 
ATOM      8  N   UNK     1       5.397   3.475  15.925  0.00  0.00    +0.000 NA
ATOM      9  C   UNK     1       5.773   4.735  16.337  0.00  0.00    +0.000 A 
ATOM     10  C   UNK     1       6.789   5.603  15.904  0.00  0.00    +0.000 A 
ATOM     11  N   UNK     1       7.642   5.315  14.847  0.00  0.00    +0.000 N 
ATOM     12  N   UNK     1       6.952   6.780  16.548  0.00  0.00    +0.000 NA
ATOM     13  C   UNK     1       6.110   7.075  17.559  0.00  0.00    +0.000 A 
ATOM     14  N   UNK     1       5.096   6.336  18.061  0.00  0.00    +0.000 NA
ATOM     15  C   UNK     1       4.974   5.176  17.386  0.00  0.00    +0.000 A 
ATOM     16  H   UNK     1       7.709   4.328  14.623  0.00  0.00    +0.000 HD
ATOM     17  H   UNK     1       8.489   5.863  14.862  0.00  0.00    +0.000 HD
ENDBRANCH   3   6
BRANCH   4  18
ATOM     18  O   UNK     1       3.515   2.710  20.366  0.00  0.00    +0.000 OA
ATOM     19  H   UNK     1       4.466   2.515  20.218  0.00  0.00    +0.000 HD
ENDBRANCH   4  18
BRANCH   5  20
ATOM     20  O   UNK     1       1.136   3.641  20.822  0.00  0.00    +0.000 OA
ATOM     21  H   UNK     1       1.363   2.869  20.271  0.00  0.00    +0.000 HD
ENDBRANCH   5  20
BRANCH   1  22
ATOM     22  C   UNK     1       2.178   7.108  19.924  0.00  0.00    +0.000 C 
BRANCH  22  23
ATOM     23  N   UNK     1       1.793   7.491  21.296  0.00  0.00    +0.000 NA
ATOM     24  H   UNK     1       1.391   6.734  21.851  0.00  0.00    +0.000 HD
BRANCH  23  25
ATOM     25  S   UNK     1       0.943   8.925  21.435  0.00  0.00    +0.000 S 
ATOM     26  O   UNK     1       1.413   9.581  22.629  0.00  0.00    +0.000 OA
ATOM     27  O   UNK     1      -0.455   8.596  21.264  0.00  0.00    +0.000 OA
BRANCH  25  31
ATOM     28  C   UNK     1       1.928  11.778  18.331  0.00  0.00    +0.000 C 
ATOM     29  S   UNK     1       0.754  11.155  19.515  0.00  0.00    +0.000 S 
ATOM     30  O   UNK     1       0.515  12.132  20.547  0.00  0.00    +0.000 OA
ATOM     31  N   UNK     1       1.442   9.753  20.052  0.00  0.00    +0.000 NA
BRANCH  29  32
ATOM     32  C   UNK     1      -0.708  10.702  18.594  0.00  0.00    +0.000 C 
BRANCH  32  33
ATOM     33  C   UNK     1      -1.845  11.712  18.691  0.00  0.00    +0.000 C 
BRANCH  33  34
ATOM     34  N   UNK     1      -1.420  13.139  18.689  0.00  0.00    +0.000 NA
ATOM     35  H   UNK     1      -0.406  13.190  18.545  0.00  0.00    +0.000 HD
ATOM     36  H   UNK     1      -1.531  13.486  19.657  0.00  0.00    +0.000 HD
ENDBRANCH  33  34
BRANCH  33  37
ATOM     37  C   UNK     1      -2.824  11.525  17.528  0.00  0.00    +0.000 C 
ATOM     38  O   UNK     1      -4.031  11.396  17.636  0.00  0.00    +0.000 OA
BRANCH  37  39
ATOM     39  O   UNK     1      -2.169  11.566  16.337  0.00  0.00    +0.000 OA
ATOM     40  H   UNK     1      -2.785  11.144  15.682  0.00  0.00    +0.000 HD
ENDBRANCH  37  39
ENDBRANCH  33  37
ENDBRANCH  32  33
ENDBRANCH  29  32
ENDBRANCH  25  31
ENDBRANCH  23  25
ENDBRANCH  22  23
ENDBRANCH   1  22
TORSDOF 12
ENDMDL
MODEL 3
REMARK VINA RESULT:      -7.3      1.869      2.422
REMARK  Name = 
REMARK  13 active torsions:
REMARK  status: ('A' for Active; 'I' for Inactive)
REMARK    1  A    between atoms: C_1  and  S_2
REMARK    2  A    between atoms: S_2  and  C_4
REMARK    3  A    between atoms: C_4  and  C_5
REMARK    4  A    between atoms: C_5  and  N_6
REMARK    5  A    between atoms: C_5  and  C_7
REMARK    6  A    between atoms: C_7  and  O_9
REMARK    7  A    between atoms: N_10  and  S_11
REMARK    8  A    between atoms: S_11  and  N_14
REMARK    9  A    between atoms: N_14  and  C_15
REMARK   10  A    between atoms: C_15  and  C_16
REMARK   11  A    between atoms: C_18  and  N_19
REMARK   12  A    between atoms: C_29  and  O_30
REMARK   13  A    between atoms: C_31  and  O_32
REMARK                            x       y       z     vdW  Elec       q    Type
REMARK                         _______ _______ _______ _____ _____    ______ ____
ROOT
ATOM      1  C   UNK     1       2.630   5.305  18.760  0.00  0.00    +0.000 C 
ATOM      2  O   UNK     1       3.239   5.200  17.450  0.00  0.00    +0.000 OA
ATOM      3  C   UNK     1       4.427   4.388  17.557  0.00  0.00    +0.000 C 
ATOM      4  C   UNK     1       4.791   4.301  19.033  0.00  0.00    +0.000 C 
ATOM      5  C   UNK     1       3.425   4.397  19.697  0.00  0.00    +0.000 C 
ENDROOT
BRANCH   3   6
ATOM      6  N   UNK     1       5.490   4.916  16.727  0.00  0.00    +0.000 N 
ATOM      7  C   UNK     1       6.393   5.859  17.158  0.00  0.00    +0.000 A 
ATOM      8  N   UNK     1       7.304   6.124  16.247  0.00  0.00    +0.000 NA
ATOM      9  C   UNK     1       6.954   5.345  15.165  0.00  0.00    +0.000 A 
ATOM     10  C   UNK     1       7.534   5.181  13.897  0.00  0.00    +0.000 A 
ATOM     11  N   UNK     1       8.706   5.813  13.503  0.00  0.00    +0.000 N 
ATOM     12  N   UNK     1       6.922   4.367  13.006  0.00  0.00    +0.000 NA
ATOM     13  C   UNK     1       5.798   3.732  13.393  0.00  0.00    +0.000 A 
ATOM     14  N   UNK     1       5.150   3.799  14.576  0.00  0.00    +0.000 NA
ATOM     15  C   UNK     1       5.798   4.618  15.427  0.00  0.00    +0.000 A 
ATOM     16  H   UNK     1       8.937   6.638  14.047  0.00  0.00    +0.000 HD
ATOM     17  H   UNK     1       8.818   5.851  12.501  0.00  0.00    +0.000 HD
ENDBRANCH   3   6
BRANCH   4  18
ATOM     18  O   UNK     1       5.435   3.067  19.357  0.00  0.00    +0.000 OA
ATOM     19  H   UNK     1       5.264   2.466  18.599  0.00  0.00    +0.000 HD
ENDBRANCH   4  18
BRANCH   5  20
ATOM     20  O   UNK     1       2.872   3.070  19.756  0.00  0.00    +0.000 OA
ATOM     21  H   UNK     1       1.924   3.103  19.526  0.00  0.00    +0.000 HD
ENDBRANCH   5  20
BRANCH   1  22
ATOM     22  C   UNK     1       2.661   6.757  19.232  0.00  0.00    +0.000 C 
BRANCH  22  23
ATOM     23  N   UNK     1       2.745   7.653  18.063  0.00  0.00    +0.000 NA
ATOM     24  H   UNK     1       3.695   7.913  17.793  0.00  0.00    +0.000 HD
BRANCH  23  25
ATOM     25  S   UNK     1       1.690   8.952  18.069  0.00  0.00    +0.000 S 
ATOM     26  O   UNK     1       0.523   8.554  17.322  0.00  0.00    +0.000 OA
ATOM     27  O   UNK     1       2.462  10.113  17.687  0.00  0.00    +0.000 OA
BRANCH  25  31
ATOM     28  C   UNK     1      -0.019   9.607  21.993  0.00  0.00    +0.000 C 
ATOM     29  S   UNK     1       0.272  10.192  20.337  0.00  0.00    +0.000 S 
ATOM     30  O   UNK     1      -0.971  10.291  19.614  0.00  0.00    +0.000 OA
ATOM     31  N   UNK     1       1.337   9.096  19.714  0.00  0.00    +0.000 NA
BRANCH  29  32
ATOM     32  C   UNK     1       1.145  11.744  20.491  0.00  0.00    +0.000 C 
BRANCH  32  33
ATOM     33  C   UNK     1       0.639  12.841  19.562  0.00  0.00    +0.000 C 
BRANCH  33  34
ATOM     34  N   UNK     1       0.292  12.389  18.186  0.00  0.00    +0.000 NA
ATOM     35  H   UNK     1       1.056  12.634  17.546  0.00  0.00    +0.000 HD
ATOM     36  H   UNK     1      -0.482  12.992  17.859  0.00  0.00    +0.000 HD
ENDBRANCH  33  34
BRANCH  33  37
ATOM     37  C   UNK     1      -0.608  13.505  20.153  0.00  0.00    +0.000 C 
ATOM     38  O   UNK     1      -0.736  13.858  21.312  0.00  0.00    +0.000 OA
BRANCH  37  39
ATOM     39  O   UNK     1      -1.553  13.693  19.194  0.00  0.00    +0.000 OA
ATOM     40  H   UNK     1      -1.350  13.024  18.489  0.00  0.00    +0.000 HD
ENDBRANCH  37  39
ENDBRANCH  33  37
ENDBRANCH  32  33
ENDBRANCH  29  32
ENDBRANCH  25  31
ENDBRANCH  23  25
ENDBRANCH  22  23
ENDBRANCH   1  22
TORSDOF 12
ENDMDL
MODEL 4
REMARK VINA RESULT:      -7.3      2.055      2.570
REMARK  Name = 
REMARK  13 active torsions:
REMARK  status: ('A' for Active; 'I' for Inactive)
REMARK    1  A    between atoms: C_1  and  S_2
REMARK    2  A    between atoms: S_2  and  C_4
REMARK    3  A    between atoms: C_4  and  C_5
REMARK    4  A    between atoms: C_5  and  N_6
REMARK    5  A    between atoms: C_5  and  C_7
REMARK    6  A    between atoms: C_7  and  O_9
REMARK    7  A    between atoms: N_10  and  S_11
REMARK    8  A    between atoms: S_11  and  N_14
REMARK    9  A    between atoms: N_14  and  C_15
REMARK   10  A    between atoms: C_15  and  C_16
REMARK   11  A    between atoms: C_18  and  N_19
REMARK   12  A    between atoms: C_29  and  O_30
REMARK   13  A    between atoms: C_31  and  O_32
REMARK                            x       y       z     vdW  Elec       q    Type
REMARK                         _______ _______ _______ _____ _____    ______ ____
ROOT
ATOM      1  C   UNK     1       1.783   4.633  19.909  0.00  0.00    +0.000 C 
ATOM      2  O   UNK     1       2.347   5.152  18.680  0.00  0.00    +0.000 OA
ATOM      3  C   UNK     1       3.596   4.477  18.424  0.00  0.00    +0.000 C 
ATOM      4  C   UNK     1       4.022   3.796  19.718  0.00  0.00    +0.000 C 
ATOM      5  C   UNK     1       2.680   3.482  20.361  0.00  0.00    +0.000 C 
ENDROOT
BRANCH   3   6
ATOM      6  N   UNK     1       4.583   5.399  17.899  0.00  0.00    +0.000 N 
ATOM      7  C   UNK     1       4.391   6.154  16.767  0.00  0.00    +0.000 A 
ATOM      8  N   UNK     1       5.400   6.966  16.537  0.00  0.00    +0.000 NA
ATOM      9  C   UNK     1       6.301   6.697  17.545  0.00  0.00    +0.000 A 
ATOM     10  C   UNK     1       7.562   7.237  17.848  0.00  0.00    +0.000 A 
ATOM     11  N   UNK     1       8.146   8.269  17.127  0.00  0.00    +0.000 N 
ATOM     12  N   UNK     1       8.249   6.726  18.894  0.00  0.00    +0.000 NA
ATOM     13  C   UNK     1       7.675   5.740  19.612  0.00  0.00    +0.000 A 
ATOM     14  N   UNK     1       6.475   5.146  19.431  0.00  0.00    +0.000 NA
ATOM     15  C   UNK     1       5.831   5.690  18.380  0.00  0.00    +0.000 A 
ATOM     16  H   UNK     1       7.773   8.387  16.191  0.00  0.00    +0.000 HD
ATOM     17  H   UNK     1       9.146   8.327  17.256  0.00  0.00    +0.000 HD
ENDBRANCH   3   6
BRANCH   4  18
ATOM     18  O   UNK     1       4.770   2.603  19.477  0.00  0.00    +0.000 OA
ATOM     19  H   UNK     1       5.336   2.473  20.269  0.00  0.00    +0.000 HD
ENDBRANCH   4  18
BRANCH   5  20
ATOM     20  O   UNK     1       2.231   2.216  19.845  0.00  0.00    +0.000 OA
ATOM     21  H   UNK     1       1.310   2.061  20.123  0.00  0.00    +0.000 HD
ENDBRANCH   5  20
BRANCH   1  22
ATOM     22  C   UNK     1       1.723   5.739  20.960  0.00  0.00    +0.000 C 
BRANCH  22  23
ATOM     23  N   UNK     1       1.869   7.052  20.303  0.00  0.00    +0.000 NA
ATOM     24  H   UNK     1       2.823   7.280  20.016  0.00  0.00    +0.000 HD
BRANCH  23  25
ATOM     25  S   UNK     1       1.091   8.328  21.054  0.00  0.00    +0.000 S 
ATOM     26  O   UNK     1       1.839   8.637  22.247  0.00  0.00    +0.000 OA
ATOM     27  O   UNK     1      -0.310   7.977  21.120  0.00  0.00    +0.000 OA
BRANCH  25  31
ATOM     28  C   UNK     1       1.530  12.011  18.820  0.00  0.00    +0.000 C 
ATOM     29  S   UNK     1       0.720  11.099  20.116  0.00  0.00    +0.000 S 
ATOM     30  O   UNK     1       1.037  11.665  21.403  0.00  0.00    +0.000 OA
ATOM     31  N   UNK     1       1.254   9.552  19.903  0.00  0.00    +0.000 NA
BRANCH  29  32
ATOM     32  C   UNK     1      -1.026  11.108  19.732  0.00  0.00    +0.000 C 
BRANCH  32  33
ATOM     33  C   UNK     1      -1.338  11.231  18.246  0.00  0.00    +0.000 C 
BRANCH  33  34
ATOM     34  N   UNK     1      -1.000  10.032  17.431  0.00  0.00    +0.000 NA
ATOM     35  H   UNK     1      -1.662   9.278  17.647  0.00  0.00    +0.000 HD
ATOM     36  H   UNK     1      -0.106   9.662  17.798  0.00  0.00    +0.000 HD
ENDBRANCH  33  34
BRANCH  33  37
ATOM     37  C   UNK     1      -2.826  11.522  18.037  0.00  0.00    +0.000 C 
ATOM     38  O   UNK     1      -3.532  11.009  17.186  0.00  0.00    +0.000 OA
BRANCH  37  39
ATOM     39  O   UNK     1      -3.278  12.407  18.965  0.00  0.00    +0.000 OA
ATOM     40  H   UNK     1      -3.537  11.857  19.750  0.00  0.00    +0.000 HD
ENDBRANCH  37  39
ENDBRANCH  33  37
ENDBRANCH  32  33
ENDBRANCH  29  32
ENDBRANCH  25  31
ENDBRANCH  23  25
ENDBRANCH  22  23
ENDBRANCH   1  22
TORSDOF 12
ENDMDL
MODEL 5
REMARK VINA RESULT:      -7.2      1.085      1.258
REMARK  Name = 
REMARK  13 active torsions:
REMARK  status: ('A' for Active; 'I' for Inactive)
REMARK    1  A    between atoms: C_1  and  S_2
REMARK    2  A    between atoms: S_2  and  C_4
REMARK    3  A    between atoms: C_4  and  C_5
REMARK    4  A    between atoms: C_5  and  N_6
REMARK    5  A    between atoms: C_5  and  C_7
REMARK    6  A    between atoms: C_7  and  O_9
REMARK    7  A    between atoms: N_10  and  S_11
REMARK    8  A    between atoms: S_11  and  N_14
REMARK    9  A    between atoms: N_14  and  C_15
REMARK   10  A    between atoms: C_15  and  C_16
REMARK   11  A    between atoms: C_18  and  N_19
REMARK   12  A    between atoms: C_29  and  O_30
REMARK   13  A    between atoms: C_31  and  O_32
REMARK                            x       y       z     vdW  Elec       q    Type
REMARK                         _______ _______ _______ _____ _____    ______ ____
ROOT
ATOM      1  C   UNK     1       2.476   5.504  18.902  0.00  0.00    +0.000 C 
ATOM      2  O   UNK     1       3.074   5.365  17.590  0.00  0.00    +0.000 OA
ATOM      3  C   UNK     1       4.239   4.520  17.701  0.00  0.00    +0.000 C 
ATOM      4  C   UNK     1       4.610   4.443  19.176  0.00  0.00    +0.000 C 
ATOM      5  C   UNK     1       3.251   4.586  19.846  0.00  0.00    +0.000 C 
ENDROOT
BRANCH   3   6
ATOM      6  N   UNK     1       5.312   5.008  16.857  0.00  0.00    +0.000 N 
ATOM      7  C   UNK     1       6.225   5.953  17.260  0.00  0.00    +0.000 A 
ATOM      8  N   UNK     1       7.142   6.176  16.344  0.00  0.00    +0.000 NA
ATOM      9  C   UNK     1       6.786   5.365  15.288  0.00  0.00    +0.000 A 
ATOM     10  C   UNK     1       7.369   5.151  14.028  0.00  0.00    +0.000 A 
ATOM     11  N   UNK     1       8.549   5.755  13.619  0.00  0.00    +0.000 N 
ATOM     12  N   UNK     1       6.750   4.316  13.163  0.00  0.00    +0.000 NA
ATOM     13  C   UNK     1       5.616   3.708  13.566  0.00  0.00    +0.000 A 
ATOM     14  N   UNK     1       4.965   3.822  14.745  0.00  0.00    +0.000 NA
ATOM     15  C   UNK     1       5.620   4.662  15.570  0.00  0.00    +0.000 A 
ATOM     16  H   UNK     1       8.789   6.595  14.135  0.00  0.00    +0.000 HD
ATOM     17  H   UNK     1       8.666   5.758  12.616  0.00  0.00    +0.000 HD
ENDBRANCH   3   6
BRANCH   4  18
ATOM     18  O   UNK     1       5.221   3.196  19.512  0.00  0.00    +0.000 OA
ATOM     19  H   UNK     1       6.130   3.413  19.814  0.00  0.00    +0.000 HD
ENDBRANCH   4  18
BRANCH   5  20
ATOM     20  O   UNK     1       2.661   3.277  19.926  0.00  0.00    +0.000 OA
ATOM     21  H   UNK     1       3.262   2.679  20.407  0.00  0.00    +0.000 HD
ENDBRANCH   5  20
BRANCH   1  22
ATOM     22  C   UNK     1       2.552   6.961  19.355  0.00  0.00    +0.000 C 
BRANCH  22  23
ATOM     23  N   UNK     1       2.117   7.064  20.761  0.00  0.00    +0.000 NA
ATOM     24  H   UNK     1       1.759   6.194  21.160  0.00  0.00    +0.000 HD
BRANCH  23  25
ATOM     25  S   UNK     1       1.168   8.390  21.130  0.00  0.00    +0.000 S 
ATOM     26  O   UNK     1       1.715   8.983  22.325  0.00  0.00    +0.000 OA
ATOM     27  O   UNK     1      -0.206   7.943  21.080  0.00  0.00    +0.000 OA
BRANCH  25  31
ATOM     28  C   UNK     1       1.755  11.601  18.285  0.00  0.00    +0.000 C 
ATOM     29  S   UNK     1       0.825  10.910  19.637  0.00  0.00    +0.000 S 
ATOM     30  O   UNK     1       0.970  11.725  20.816  0.00  0.00    +0.000 OA
ATOM     31  N   UNK     1       1.429   9.381  19.788  0.00  0.00    +0.000 NA
BRANCH  29  32
ATOM     32  C   UNK     1      -0.862  10.753  19.068  0.00  0.00    +0.000 C 
BRANCH  32  33
ATOM     33  C   UNK     1      -1.493  12.065  18.616  0.00  0.00    +0.000 C 
BRANCH  33  34
ATOM     34  N   UNK     1      -2.518  11.933  17.545  0.00  0.00    +0.000 NA
ATOM     35  H   UNK     1      -2.202  12.437  16.709  0.00  0.00    +0.000 HD
ATOM     36  H   UNK     1      -3.339  12.486  17.847  0.00  0.00    +0.000 HD
ENDBRANCH  33  34
BRANCH  33  37
ATOM     37  C   UNK     1      -2.157  12.771  19.801  0.00  0.00    +0.000 C 
ATOM     38  O   UNK     1      -3.251  12.497  20.262  0.00  0.00    +0.000 OA
BRANCH  37  39
ATOM     39  O   UNK     1      -1.338  13.729  20.310  0.00  0.00    +0.000 OA
ATOM     40  H   UNK     1      -0.452  13.292  20.413  0.00  0.00    +0.000 HD
ENDBRANCH  37  39
ENDBRANCH  33  37
ENDBRANCH  32  33
ENDBRANCH  29  32
ENDBRANCH  25  31
ENDBRANCH  23  25
ENDBRANCH  22  23
ENDBRANCH   1  22
TORSDOF 12
ENDMDL
MODEL 6
REMARK VINA RESULT:      -7.2      2.143      2.910
REMARK  Name = 
REMARK  13 active torsions:
REMARK  status: ('A' for Active; 'I' for Inactive)
REMARK    1  A    between atoms: C_1  and  S_2
REMARK    2  A    between atoms: S_2  and  C_4
REMARK    3  A    between atoms: C_4  and  C_5
REMARK    4  A    between atoms: C_5  and  N_6
REMARK    5  A    between atoms: C_5  and  C_7
REMARK    6  A    between atoms: C_7  and  O_9
REMARK    7  A    between atoms: N_10  and  S_11
REMARK    8  A    between atoms: S_11  and  N_14
REMARK    9  A    between atoms: N_14  and  C_15
REMARK   10  A    between atoms: C_15  and  C_16
REMARK   11  A    between atoms: C_18  and  N_19
REMARK   12  A    between atoms: C_29  and  O_30
REMARK   13  A    between atoms: C_31  and  O_32
REMARK                            x       y       z     vdW  Elec       q    Type
REMARK                         _______ _______ _______ _____ _____    ______ ____
ROOT
ATOM      1  C   UNK     1       1.567   6.044  19.476  0.00  0.00    +0.000 C 
ATOM      2  O   UNK     1       2.047   5.537  18.207  0.00  0.00    +0.000 OA
ATOM      3  C   UNK     1       2.866   4.375  18.454  0.00  0.00    +0.000 C 
ATOM      4  C   UNK     1       3.231   4.379  19.933  0.00  0.00    +0.000 C 
ATOM      5  C   UNK     1       2.017   5.057  20.551  0.00  0.00    +0.000 C 
ENDROOT
BRANCH   3   6
ATOM      6  N   UNK     1       4.016   4.358  17.572  0.00  0.00    +0.000 N 
ATOM      7  C   UNK     1       4.332   3.296  16.758  0.00  0.00    +0.000 A 
ATOM      8  N   UNK     1       5.378   3.549  16.001  0.00  0.00    +0.000 NA
ATOM      9  C   UNK     1       5.777   4.816  16.367  0.00  0.00    +0.000 A 
ATOM     10  C   UNK     1       6.823   5.639  15.919  0.00  0.00    +0.000 A 
ATOM     11  N   UNK     1       7.690   5.286  14.894  0.00  0.00    +0.000 N 
ATOM     12  N   UNK     1       7.003   6.839  16.516  0.00  0.00    +0.000 NA
ATOM     13  C   UNK     1       6.148   7.197  17.495  0.00  0.00    +0.000 A 
ATOM     14  N   UNK     1       5.105   6.506  18.006  0.00  0.00    +0.000 NA
ATOM     15  C   UNK     1       4.968   5.321  17.379  0.00  0.00    +0.000 A 
ATOM     16  H   UNK     1       7.737   4.288  14.714  0.00  0.00    +0.000 HD
ATOM     17  H   UNK     1       8.551   5.813  14.904  0.00  0.00    +0.000 HD
ENDBRANCH   3   6
BRANCH   4  18
ATOM     18  O   UNK     1       3.401   3.057  20.448  0.00  0.00    +0.000 OA
ATOM     19  H   UNK     1       2.935   3.041  21.312  0.00  0.00    +0.000 HD
ENDBRANCH   4  18
BRANCH   5  20
ATOM     20  O   UNK     1       1.027   4.043  20.798  0.00  0.00    +0.000 OA
ATOM     21  H   UNK     1       0.167   4.337  20.445  0.00  0.00    +0.000 HD
ENDBRANCH   5  20
BRANCH   1  22
ATOM     22  C   UNK     1       2.136   7.439  19.726  0.00  0.00    +0.000 C 
BRANCH  22  23
ATOM     23  N   UNK     1       2.016   7.771  21.159  0.00  0.00    +0.000 NA
ATOM     24  H   UNK     1       2.023   6.963  21.784  0.00  0.00    +0.000 HD
BRANCH  23  25
ATOM     25  S   UNK     1       0.832   8.887  21.547  0.00  0.00    +0.000 S 
ATOM     26  O   UNK     1       1.261   9.560  22.747  0.00  0.00    +0.000 OA
ATOM     27  O   UNK     1      -0.431   8.185  21.494  0.00  0.00    +0.000 OA
BRANCH  25  31
ATOM     28  C   UNK     1       1.371  12.118  18.715  0.00  0.00    +0.000 C 
ATOM     29  S   UNK     1       0.842  11.570  20.324  0.00  0.00    +0.000 S 
ATOM     30  O   UNK     1       1.692  12.124  21.348  0.00  0.00    +0.000 OA
ATOM     31  N   UNK     1       0.892   9.924  20.216  0.00  0.00    +0.000 NA
BRANCH  29  32
ATOM     32  C   UNK     1      -0.877  12.034  20.482  0.00  0.00    +0.000 C 
BRANCH  32  33
ATOM     33  C   UNK     1      -1.500  11.674  21.825  0.00  0.00    +0.000 C 
BRANCH  33  34
ATOM     34  N   UNK     1      -0.654  11.978  23.012  0.00  0.00    +0.000 NA
ATOM     35  H   UNK     1      -1.258  12.230  23.803  0.00  0.00    +0.000 HD
ATOM     36  H   UNK     1      -0.161  12.864  22.810  0.00  0.00    +0.000 HD
ENDBRANCH  33  34
BRANCH  33  37
ATOM     37  C   UNK     1      -2.829  12.413  22.009  0.00  0.00    +0.000 C 
ATOM     38  O   UNK     1      -3.332  13.172  21.200  0.00  0.00    +0.000 OA
BRANCH  37  39
ATOM     39  O   UNK     1      -3.407  12.074  23.192  0.00  0.00    +0.000 OA
ATOM     40  H   UNK     1      -4.019  12.824  23.411  0.00  0.00    +0.000 HD
ENDBRANCH  37  39
ENDBRANCH  33  37
ENDBRANCH  32  33
ENDBRANCH  29  32
ENDBRANCH  25  31
ENDBRANCH  23  25
ENDBRANCH  22  23
ENDBRANCH   1  22
TORSDOF 12
ENDMDL
MODEL 7
REMARK VINA RESULT:      -7.1      2.738      9.318
REMARK  Name = 
REMARK  13 active torsions:
REMARK  status: ('A' for Active; 'I' for Inactive)
REMARK    1  A    between atoms: C_1  and  S_2
REMARK    2  A    between atoms: S_2  and  C_4
REMARK    3  A    between atoms: C_4  and  C_5
REMARK    4  A    between atoms: C_5  and  N_6
REMARK    5  A    between atoms: C_5  and  C_7
REMARK    6  A    between atoms: C_7  and  O_9
REMARK    7  A    between atoms: N_10  and  S_11
REMARK    8  A    between atoms: S_11  and  N_14
REMARK    9  A    between atoms: N_14  and  C_15
REMARK   10  A    between atoms: C_15  and  C_16
REMARK   11  A    between atoms: C_18  and  N_19
REMARK   12  A    between atoms: C_29  and  O_30
REMARK   13  A    between atoms: C_31  and  O_32
REMARK                            x       y       z     vdW  Elec       q    Type
REMARK                         _______ _______ _______ _____ _____    ______ ____
ROOT
ATOM      1  C   UNK     1       1.877   9.259  19.421  0.00  0.00    +0.000 C 
ATOM      2  O   UNK     1       1.094  10.472  19.302  0.00  0.00    +0.000 OA
ATOM      3  C   UNK     1       0.010  10.417  20.253  0.00  0.00    +0.000 C 
ATOM      4  C   UNK     1      -0.125   8.971  20.710  0.00  0.00    +0.000 C 
ATOM      5  C   UNK     1       1.309   8.475  20.603  0.00  0.00    +0.000 C 
ENDROOT
BRANCH   3   6
ATOM      6  N   UNK     1      -1.205  10.962  19.682  0.00  0.00    +0.000 N 
ATOM      7  C   UNK     1      -1.977  11.914  20.307  0.00  0.00    +0.000 A 
ATOM      8  N   UNK     1      -2.987  12.300  19.557  0.00  0.00    +0.000 NA
ATOM      9  C   UNK     1      -2.883  11.539  18.412  0.00  0.00    +0.000 A 
ATOM     10  C   UNK     1      -3.657  11.492  17.241  0.00  0.00    +0.000 A 
ATOM     11  N   UNK     1      -4.742  12.326  17.006  0.00  0.00    +0.000 N 
ATOM     12  N   UNK     1      -3.335  10.587  16.289  0.00  0.00    +0.000 NA
ATOM     13  C   UNK     1      -2.267   9.793  16.502  0.00  0.00    +0.000 A 
ATOM     14  N   UNK     1      -1.444   9.747  17.572  0.00  0.00    +0.000 NA
ATOM     15  C   UNK     1      -1.805  10.665  18.489  0.00  0.00    +0.000 A 
ATOM     16  H   UNK     1      -5.142  12.734  17.845  0.00  0.00    +0.000 HD
ATOM     17  H   UNK     1      -5.368  11.971  16.299  0.00  0.00    +0.000 HD
ENDBRANCH   3   6
BRANCH   4  18
ATOM     18  O   UNK     1      -0.605   8.873  22.052  0.00  0.00    +0.000 OA
ATOM     19  H   UNK     1      -0.295   8.004  22.388  0.00  0.00    +0.000 HD
ENDBRANCH   4  18
BRANCH   5  20
ATOM     20  O   UNK     1       1.979   8.800  21.834  0.00  0.00    +0.000 OA
ATOM     21  H   UNK     1       1.325   8.848  22.556  0.00  0.00    +0.000 HD
ENDBRANCH   5  20
BRANCH   1  22
ATOM     22  C   UNK     1       1.789   8.456  18.125  0.00  0.00    +0.000 C 
BRANCH  22  23
ATOM     23  N   UNK     1       1.910   7.017  18.428  0.00  0.00    +0.000 NA
ATOM     24  H   UNK     1       1.431   6.720  19.280  0.00  0.00    +0.000 HD
BRANCH  23  25
ATOM     25  S   UNK     1       3.447   6.374  18.285  0.00  0.00    +0.000 S 
ATOM     26  O   UNK     1       4.076   6.486  19.578  0.00  0.00    +0.000 OA
ATOM     27  O   UNK     1       4.040   6.977  17.111  0.00  0.00    +0.000 OA
BRANCH  25  31
ATOM     28  C   UNK     1       3.270   2.066  17.888  0.00  0.00    +0.000 C 
ATOM     29  S   UNK     1       4.240   3.559  17.911  0.00  0.00    +0.000 S 
ATOM     30  O   UNK     1       5.120   3.568  19.052  0.00  0.00    +0.000 OA
ATOM     31  N   UNK     1       3.111   4.762  17.913  0.00  0.00    +0.000 NA
BRANCH  29  32
ATOM     32  C   UNK     1       5.090   3.639  16.341  0.00  0.00    +0.000 C 
BRANCH  32  33
ATOM     33  C   UNK     1       6.282   4.589  16.324  0.00  0.00    +0.000 C 
BRANCH  33  34
ATOM     34  N   UNK     1       7.363   4.258  17.292  0.00  0.00    +0.000 NA
ATOM     35  H   UNK     1       7.140   3.374  17.761  0.00  0.00    +0.000 HD
ATOM     36  H   UNK     1       7.297   4.947  18.061  0.00  0.00    +0.000 HD
ENDBRANCH  33  34
BRANCH  33  37
ATOM     37  C   UNK     1       6.913   4.625  14.929  0.00  0.00    +0.000 C 
ATOM     38  O   UNK     1       7.734   5.440  14.548  0.00  0.00    +0.000 OA
BRANCH  37  39
ATOM     39  O   UNK     1       6.465   3.588  14.172  0.00  0.00    +0.000 OA
ATOM     40  H   UNK     1       6.430   2.809  14.786  0.00  0.00    +0.000 HD
ENDBRANCH  37  39
ENDBRANCH  33  37
ENDBRANCH  32  33
ENDBRANCH  29  32
ENDBRANCH  25  31
ENDBRANCH  23  25
ENDBRANCH  22  23
ENDBRANCH   1  22
TORSDOF 12
ENDMDL
MODEL 8
REMARK VINA RESULT:      -7.1      3.053      9.498
REMARK  Name = 
REMARK  13 active torsions:
REMARK  status: ('A' for Active; 'I' for Inactive)
REMARK    1  A    between atoms: C_1  and  S_2
REMARK    2  A    between atoms: S_2  and  C_4
REMARK    3  A    between atoms: C_4  and  C_5
REMARK    4  A    between atoms: C_5  and  N_6
REMARK    5  A    between atoms: C_5  and  C_7
REMARK    6  A    between atoms: C_7  and  O_9
REMARK    7  A    between atoms: N_10  and  S_11
REMARK    8  A    between atoms: S_11  and  N_14
REMARK    9  A    between atoms: N_14  and  C_15
REMARK   10  A    between atoms: C_15  and  C_16
REMARK   11  A    between atoms: C_18  and  N_19
REMARK   12  A    between atoms: C_29  and  O_30
REMARK   13  A    between atoms: C_31  and  O_32
REMARK                            x       y       z     vdW  Elec       q    Type
REMARK                         _______ _______ _______ _____ _____    ______ ____
ROOT
ATOM      1  C   UNK     1       1.769   8.402  20.552  0.00  0.00    +0.000 C 
ATOM      2  O   UNK     1       1.324   9.354  19.555  0.00  0.00    +0.000 OA
ATOM      3  C   UNK     1       0.267  10.156  20.122  0.00  0.00    +0.000 C 
ATOM      4  C   UNK     1      -0.233   9.439  21.369  0.00  0.00    +0.000 C 
ATOM      5  C   UNK     1       1.025   8.729  21.846  0.00  0.00    +0.000 C 
ENDROOT
BRANCH   3   6
ATOM      6  N   UNK     1      -0.770  10.411  19.143  0.00  0.00    +0.000 N 
ATOM      7  C   UNK     1      -0.766   9.876  17.876  0.00  0.00    +0.000 A 
ATOM      8  N   UNK     1      -1.849  10.195  17.201  0.00  0.00    +0.000 NA
ATOM      9  C   UNK     1      -2.568  11.001  18.057  0.00  0.00    +0.000 A 
ATOM     10  C   UNK     1      -3.808  11.648  17.920  0.00  0.00    +0.000 A 
ATOM     11  N   UNK     1      -4.612  11.530  16.795  0.00  0.00    +0.000 N 
ATOM     12  N   UNK     1      -4.243  12.431  18.932  0.00  0.00    +0.000 NA
ATOM     13  C   UNK     1      -3.476  12.529  20.037  0.00  0.00    +0.000 A 
ATOM     14  N   UNK     1      -2.280  11.955  20.292  0.00  0.00    +0.000 NA
ATOM     15  C   UNK     1      -1.892  11.186  19.257  0.00  0.00    +0.000 A 
ATOM     16  H   UNK     1      -4.121  11.228  15.961  0.00  0.00    +0.000 HD
ATOM     17  H   UNK     1      -5.287  12.276  16.711  0.00  0.00    +0.000 HD
ENDBRANCH   3   6
BRANCH   4  18
ATOM     18  O   UNK     1      -0.716  10.351  22.357  0.00  0.00    +0.000 OA
ATOM     19  H   UNK     1      -1.084  11.115  21.863  0.00  0.00    +0.000 HD
ENDBRANCH   4  18
BRANCH   5  20
ATOM     20  O   UNK     1       1.761   9.648  22.672  0.00  0.00    +0.000 OA
ATOM     21  H   UNK     1       1.830  10.508  22.218  0.00  0.00    +0.000 HD
ENDBRANCH   5  20
BRANCH   1  22
ATOM     22  C   UNK     1       1.471   6.980  20.081  0.00  0.00    +0.000 C 
BRANCH  22  23
ATOM     23  N   UNK     1       2.212   6.018  20.918  0.00  0.00    +0.000 NA
ATOM     24  H   UNK     1       3.178   6.285  21.119  0.00  0.00    +0.000 HD
BRANCH  23  25
ATOM     25  S   UNK     1       2.057   4.411  20.484  0.00  0.00    +0.000 S 
ATOM     26  O   UNK     1       0.648   4.107  20.479  0.00  0.00    +0.000 OA
ATOM     27  O   UNK     1       2.979   3.667  21.313  0.00  0.00    +0.000 OA
BRANCH  25  31
ATOM     28  C   UNK     1       4.106   3.702  16.736  0.00  0.00    +0.000 C 
ATOM     29  S   UNK     1       4.171   3.839  18.509  0.00  0.00    +0.000 S 
ATOM     30  O   UNK     1       4.494   2.565  19.100  0.00  0.00    +0.000 OA
ATOM     31  N   UNK     1       2.680   4.419  18.915  0.00  0.00    +0.000 NA
BRANCH  29  32
ATOM     32  C   UNK     1       5.353   5.128  18.878  0.00  0.00    +0.000 C 
BRANCH  32  33
ATOM     33  C   UNK     1       6.809   4.689  18.774  0.00  0.00    +0.000 C 
BRANCH  33  34
ATOM     34  N   UNK     1       7.274   4.376  17.394  0.00  0.00    +0.000 NA
ATOM     35  H   UNK     1       6.463   4.154  16.805  0.00  0.00    +0.000 HD
ATOM     36  H   UNK     1       7.773   3.472  17.445  0.00  0.00    +0.000 HD
ENDBRANCH  33  34
BRANCH  33  37
ATOM     37  C   UNK     1       7.733   5.774  19.332  0.00  0.00    +0.000 C 
ATOM     38  O   UNK     1       8.068   6.787  18.743  0.00  0.00    +0.000 OA
BRANCH  37  39
ATOM     39  O   UNK     1       8.102   5.481  20.608  0.00  0.00    +0.000 OA
ATOM     40  H   UNK     1       7.264   5.220  21.072  0.00  0.00    +0.000 HD
ENDBRANCH  37  39
ENDBRANCH  33  37
ENDBRANCH  32  33
ENDBRANCH  29  32
ENDBRANCH  25  31
ENDBRANCH  23  25
ENDBRANCH  22  23
ENDBRANCH   1  22
TORSDOF 12
ENDMDL
MODEL 9
REMARK VINA RESULT:      -7.1      2.785      9.018
REMARK  Name = 
REMARK  13 active torsions:
REMARK  status: ('A' for Active; 'I' for Inactive)
REMARK    1  A    between atoms: C_1  and  S_2
REMARK    2  A    between atoms: S_2  and  C_4
REMARK    3  A    between atoms: C_4  and  C_5
REMARK    4  A    between atoms: C_5  and  N_6
REMARK    5  A    between atoms: C_5  and  C_7
REMARK    6  A    between atoms: C_7  and  O_9
REMARK    7  A    between atoms: N_10  and  S_11
REMARK    8  A    between atoms: S_11  and  N_14
REMARK    9  A    between atoms: N_14  and  C_15
REMARK   10  A    between atoms: C_15  and  C_16
REMARK   11  A    between atoms: C_18  and  N_19
REMARK   12  A    between atoms: C_29  and  O_30
REMARK   13  A    between atoms: C_31  and  O_32
REMARK                            x       y       z     vdW  Elec       q    Type
REMARK                         _______ _______ _______ _____ _____    ______ ____
ROOT
ATOM      1  C   UNK     1       1.889   9.008  19.841  0.00  0.00    +0.000 C 
ATOM      2  O   UNK     1       1.183  10.236  19.539  0.00  0.00    +0.000 OA
ATOM      3  C   UNK     1       0.099  10.389  20.479  0.00  0.00    +0.000 C 
ATOM      4  C   UNK     1      -0.126   9.037  21.143  0.00  0.00    +0.000 C 
ATOM      5  C   UNK     1       1.275   8.443  21.121  0.00  0.00    +0.000 C 
ENDROOT
BRANCH   3   6
ATOM      6  N   UNK     1      -1.081  10.918  19.825  0.00  0.00    +0.000 N 
ATOM      7  C   UNK     1      -1.891  11.881  20.381  0.00  0.00    +0.000 A 
ATOM      8  N   UNK     1      -2.854  12.248  19.564  0.00  0.00    +0.000 NA
ATOM      9  C   UNK     1      -2.682  11.462  18.445  0.00  0.00    +0.000 A 
ATOM     10  C   UNK     1      -3.384  11.387  17.231  0.00  0.00    +0.000 A 
ATOM     11  N   UNK     1      -4.455  12.212  16.914  0.00  0.00    +0.000 N 
ATOM     12  N   UNK     1      -3.005  10.462  16.321  0.00  0.00    +0.000 NA
ATOM     13  C   UNK     1      -1.951   9.675  16.614  0.00  0.00    +0.000 A 
ATOM     14  N   UNK     1      -1.192   9.655  17.732  0.00  0.00    +0.000 NA
ATOM     15  C   UNK     1      -1.609  10.593  18.605  0.00  0.00    +0.000 A 
ATOM     16  H   UNK     1      -4.905  12.638  17.718  0.00  0.00    +0.000 HD
ATOM     17  H   UNK     1      -5.037  11.841  16.178  0.00  0.00    +0.000 HD
ENDBRANCH   3   6
BRANCH   4  18
ATOM     18  O   UNK     1      -0.609   9.167  22.481  0.00  0.00    +0.000 OA
ATOM     19  H   UNK     1       0.128   8.883  23.064  0.00  0.00    +0.000 HD
ENDBRANCH   4  18
BRANCH   5  20
ATOM     20  O   UNK     1       1.965   8.904  22.296  0.00  0.00    +0.000 OA
ATOM     21  H   UNK     1       1.393   9.524  22.786  0.00  0.00    +0.000 HD
ENDBRANCH   5  20
BRANCH   1  22
ATOM     22  C   UNK     1       1.748   8.030  18.677  0.00  0.00    +0.000 C 
BRANCH  22  23
ATOM     23  N   UNK     1       3.045   7.371  18.428  0.00  0.00    +0.000 NA
ATOM     24  H   UNK     1       3.510   7.659  17.565  0.00  0.00    +0.000 HD
BRANCH  23  25
ATOM     25  S   UNK     1       3.072   5.715  18.662  0.00  0.00    +0.000 S 
ATOM     26  O   UNK     1       2.751   5.103  17.398  0.00  0.00    +0.000 OA
ATOM     27  O   UNK     1       2.280   5.452  19.843  0.00  0.00    +0.000 OA
BRANCH  25  31
ATOM     28  C   UNK     1       7.370   5.771  19.189  0.00  0.00    +0.000 C 
ATOM     29  S   UNK     1       5.963   5.863  18.101  0.00  0.00    +0.000 S 
ATOM     30  O   UNK     1       5.867   7.176  17.515  0.00  0.00    +0.000 OA
ATOM     31  N   UNK     1       4.690   5.455  19.069  0.00  0.00    +0.000 NA
BRANCH  29  32
ATOM     32  C   UNK     1       6.157   4.548  16.906  0.00  0.00    +0.000 C 
BRANCH  32  33
ATOM     33  C   UNK     1       5.629   4.885  15.516  0.00  0.00    +0.000 C 
BRANCH  33  34
ATOM     34  N   UNK     1       5.139   6.281  15.351  0.00  0.00    +0.000 NA
ATOM     35  H   UNK     1       4.113   6.281  15.336  0.00  0.00    +0.000 HD
ATOM     36  H   UNK     1       5.382   6.572  14.389  0.00  0.00    +0.000 HD
ENDBRANCH  33  34
BRANCH  33  37
ATOM     37  C   UNK     1       6.718   4.655  14.464  0.00  0.00    +0.000 C 
ATOM     38  O   UNK     1       7.706   5.350  14.308  0.00  0.00    +0.000 OA
BRANCH  37  39
ATOM     39  O   UNK     1       6.459   3.532  13.743  0.00  0.00    +0.000 OA
ATOM     40  H   UNK     1       6.584   3.793  12.794  0.00  0.00    +0.000 HD
ENDBRANCH  37  39
ENDBRANCH  33  37
ENDBRANCH  32  33
ENDBRANCH  29  32
ENDBRANCH  25  31
ENDBRANCH  23  25
ENDBRANCH  22  23
ENDBRANCH   1  22
TORSDOF 12
ENDMDL
