MODEL 1
REMARK VINA RESULT:      -8.0      0.000      0.000
REMARK  Name = 
REMARK  11 active torsions:
REMARK  status: ('A' for Active; 'I' for Inactive)
REMARK    1  A    between atoms: C_1  and  C_2
REMARK    2  A    between atoms: C_2  and  C_3
REMARK    3  A    between atoms: C_2  and  C_4
REMARK    4  A    between atoms: C_4  and  C_5
REMARK    5  A    between atoms: C_5  and  N_6
REMARK    6  A    between atoms: N_9  and  C_10
REMARK    7  A    between atoms: C_10  and  C_11
REMARK    8  A    between atoms: C_17  and  N_18
REMARK    9  A    between atoms: C_24  and  C_25
REMARK   10  A    between atoms: C_25  and  C_26
REMARK   11  A    between atoms: C_26  and  O_27
REMARK                            x       y       z     vdW  Elec       q    Type
REMARK                         _______ _______ _______ _____ _____    ______ ____
ROOT
ATOM      1  N   UNL     1       6.324   5.831  15.514  0.00  0.00    +0.000 NA
ATOM      2  C   UNL     1       4.913   5.521  15.851  0.00  0.00    +0.000 C 
ATOM      3  C   UNL     1       4.688   4.397  16.904  0.00  0.00    +0.000 C 
ATOM      4  N   UNL     1       5.531   4.450  18.127  0.00  0.00    +0.000 NA
ATOM      5  C   UNL     1       6.903   4.854  17.761  0.00  0.00    +0.000 C 
ATOM      6  C   UNL     1       7.084   6.042  16.776  0.00  0.00    +0.000 C 
ENDROOT
BRANCH   1   7
ATOM      7  C   UNL     1       6.963   4.760  14.716  0.00  0.00    +0.000 C 
BRANCH   7   8
ATOM      8  C   UNL     1       6.005   3.761  14.053  0.00  0.00    +0.000 C 
BRANCH   8  10
ATOM      9  C   UNL     1       5.016   3.346  11.741  0.00  0.00    +0.000 C 
ATOM     10  C   UNL     1       6.294   3.447  12.575  0.00  0.00    +0.000 C 
ATOM     11  C   UNL     1       7.205   4.535  12.000  0.00  0.00    +0.000 C 
ENDBRANCH   8  10
ENDBRANCH   7   8
ENDBRANCH   1   7
BRANCH   4  12
ATOM     12  C   UNL     1       4.857   5.228  19.190  0.00  0.00    +0.000 C 
BRANCH  12  13
ATOM     13  C   UNL     1       3.547   4.685  19.759  0.00  0.00    +0.000 A 
ATOM     14  C   UNL     1       3.468   3.352  20.212  0.00  0.00    +0.000 A 
ATOM     15  C   UNL     1       2.352   2.891  20.904  0.00  0.00    +0.000 A 
ATOM     16  F   UNL     1       2.354   1.652  21.411  0.00  0.00    +0.000 F 
ATOM     17  C   UNL     1       1.248   3.703  21.097  0.00  0.00    +0.000 A 
ATOM     18  C   UNL     1       1.251   4.995  20.572  0.00  0.00    +0.000 A 
ATOM     19  C   UNL     1       2.382   5.490  19.887  0.00  0.00    +0.000 A 
BRANCH  19  20
ATOM     20  N   UNL     1       2.282   6.784  19.293  0.00  0.00    +0.000 N 
ATOM     21  C   UNL     1       1.924   7.964  19.915  0.00  0.00    +0.000 A 
ATOM     22  C   UNL     1       1.808   8.923  18.938  0.00  0.00    +0.000 A 
ATOM     23  C   UNL     1       2.121   8.247  17.751  0.00  0.00    +0.000 A 
ATOM     24  N   UNL     1       2.452   6.973  17.961  0.00  0.00    +0.000 NA
ENDBRANCH  19  20
ENDBRANCH  12  13
ENDBRANCH   4  12
BRANCH   6  25
ATOM     25  C   UNL     1       6.759   7.385  17.455  0.00  0.00    +0.000 C 
BRANCH  25  26
ATOM     26  C   UNL     1       7.989   8.212  17.795  0.00  0.00    +0.000 C 
BRANCH  26  27
ATOM     27  O   UNL     1       8.608   7.663  18.955  0.00  0.00    +0.000 OA
ATOM     28  H   UNL     1       9.560   7.554  18.751  0.00  0.00    +0.000 HD
ENDBRANCH  26  27
ENDBRANCH  25  26
ENDBRANCH   6  25
TORSDOF 9
ENDMDL
MODEL 2
REMARK VINA RESULT:      -7.1      3.024      7.533
REMARK  Name = 
REMARK  11 active torsions:
REMARK  status: ('A' for Active; 'I' for Inactive)
REMARK    1  A    between atoms: C_1  and  C_2
REMARK    2  A    between atoms: C_2  and  C_3
REMARK    3  A    between atoms: C_2  and  C_4
REMARK    4  A    between atoms: C_4  and  C_5
REMARK    5  A    between atoms: C_5  and  N_6
REMARK    6  A    between atoms: N_9  and  C_10
REMARK    7  A    between atoms: C_10  and  C_11
REMARK    8  A    between atoms: C_17  and  N_18
REMARK    9  A    between atoms: C_24  and  C_25
REMARK   10  A    between atoms: C_25  and  C_26
REMARK   11  A    between atoms: C_26  and  O_27
REMARK                            x       y       z     vdW  Elec       q    Type
REMARK                         _______ _______ _______ _____ _____    ______ ____
ROOT
ATOM      1  N   UNL     1       1.894   5.919  19.666  0.00  0.00    +0.000 NA
ATOM      2  C   UNL     1       1.865   6.009  18.186  0.00  0.00    +0.000 C 
ATOM      3  C   UNL     1       3.221   6.323  17.490  0.00  0.00    +0.000 C 
ATOM      4  N   UNL     1       4.404   5.554  17.956  0.00  0.00    +0.000 NA
ATOM      5  C   UNL     1       4.346   5.403  19.422  0.00  0.00    +0.000 C 
ATOM      6  C   UNL     1       2.992   4.999  20.070  0.00  0.00    +0.000 C 
ENDROOT
BRANCH   1   7
ATOM      7  C   UNL     1       2.080   7.239  20.310  0.00  0.00    +0.000 C 
BRANCH   7   8
ATOM      8  C   UNL     1       1.047   7.611  21.381  0.00  0.00    +0.000 C 
BRANCH   8  10
ATOM      9  C   UNL     1       0.815   9.936  20.362  0.00  0.00    +0.000 C 
ATOM     10  C   UNL     1       0.886   9.116  21.652  0.00  0.00    +0.000 C 
ATOM     11  C   UNL     1      -0.381   9.344  22.482  0.00  0.00    +0.000 C 
ENDBRANCH   8  10
ENDBRANCH   7   8
ENDBRANCH   1   7
BRANCH   4  12
ATOM     12  C   UNL     1       4.570   4.320  17.155  0.00  0.00    +0.000 C 
BRANCH  12  13
ATOM     13  C   UNL     1       5.542   4.353  15.976  0.00  0.00    +0.000 A 
ATOM     14  C   UNL     1       5.230   3.675  14.779  0.00  0.00    +0.000 A 
ATOM     15  C   UNL     1       6.001   3.844  13.634  0.00  0.00    +0.000 A 
ATOM     16  F   UNL     1       5.617   3.269  12.487  0.00  0.00    +0.000 F 
ATOM     17  C   UNL     1       7.150   4.617  13.655  0.00  0.00    +0.000 A 
ATOM     18  C   UNL     1       7.545   5.218  14.849  0.00  0.00    +0.000 A 
ATOM     19  C   UNL     1       6.763   5.079  16.017  0.00  0.00    +0.000 A 
BRANCH  19  20
ATOM     20  N   UNL     1       7.276   5.639  17.226  0.00  0.00    +0.000 N 
ATOM     21  C   UNL     1       7.535   6.971  17.487  0.00  0.00    +0.000 A 
ATOM     22  C   UNL     1       8.160   7.034  18.708  0.00  0.00    +0.000 A 
ATOM     23  C   UNL     1       8.235   5.700  19.129  0.00  0.00    +0.000 A 
ATOM     24  N   UNL     1       7.665   4.860  18.266  0.00  0.00    +0.000 NA
ENDBRANCH  19  20
ENDBRANCH  12  13
ENDBRANCH   4  12
BRANCH   6  25
ATOM     25  C   UNL     1       2.664   3.519  19.801  0.00  0.00    +0.000 C 
BRANCH  25  26
ATOM     26  C   UNL     1       1.636   2.937  20.758  0.00  0.00    +0.000 C 
BRANCH  26  27
ATOM     27  O   UNL     1       0.333   3.149  20.220  0.00  0.00    +0.000 OA
ATOM     28  H   UNL     1       0.438   3.289  19.255  0.00  0.00    +0.000 HD
ENDBRANCH  26  27
ENDBRANCH  25  26
ENDBRANCH   6  25
TORSDOF 9
ENDMDL
MODEL 3
REMARK VINA RESULT:      -7.0      3.099      7.406
REMARK  Name = 
REMARK  11 active torsions:
REMARK  status: ('A' for Active; 'I' for Inactive)
REMARK    1  A    between atoms: C_1  and  C_2
REMARK    2  A    between atoms: C_2  and  C_3
REMARK    3  A    between atoms: C_2  and  C_4
REMARK    4  A    between atoms: C_4  and  C_5
REMARK    5  A    between atoms: C_5  and  N_6
REMARK    6  A    between atoms: N_9  and  C_10
REMARK    7  A    between atoms: C_10  and  C_11
REMARK    8  A    between atoms: C_17  and  N_18
REMARK    9  A    between atoms: C_24  and  C_25
REMARK   10  A    between atoms: C_25  and  C_26
REMARK   11  A    between atoms: C_26  and  O_27
REMARK                            x       y       z     vdW  Elec       q    Type
REMARK                         _______ _______ _______ _____ _____    ______ ____
ROOT
ATOM      1  N   UNL     1       2.100   4.778  19.452  0.00  0.00    +0.000 NA
ATOM      2  C   UNL     1       2.170   5.301  18.066  0.00  0.00    +0.000 C 
ATOM      3  C   UNL     1       3.589   5.660  17.537  0.00  0.00    +0.000 C 
ATOM      4  N   UNL     1       4.666   4.668  17.790  0.00  0.00    +0.000 NA
ATOM      5  C   UNL     1       4.505   4.100  19.142  0.00  0.00    +0.000 C 
ATOM      6  C   UNL     1       3.083   3.669  19.597  0.00  0.00    +0.000 C 
ENDROOT
BRANCH   1   7
ATOM      7  C   UNL     1       2.367   5.823  20.465  0.00  0.00    +0.000 C 
BRANCH   7   8
ATOM      8  C   UNL     1       1.174   6.714  20.836  0.00  0.00    +0.000 C 
BRANCH   8  10
ATOM      9  C   UNL     1       1.603   8.722  19.327  0.00  0.00    +0.000 C 
ATOM     10  C   UNL     1       1.430   8.228  20.765  0.00  0.00    +0.000 C 
ATOM     11  C   UNL     1       0.265   8.966  21.430  0.00  0.00    +0.000 C 
ENDBRANCH   8  10
ENDBRANCH   7   8
ENDBRANCH   1   7
BRANCH   4  12
ATOM     12  C   UNL     1       4.767   3.713  16.663  0.00  0.00    +0.000 C 
BRANCH  12  13
ATOM     13  C   UNL     1       5.730   4.044  15.523  0.00  0.00    +0.000 A 
ATOM     14  C   UNL     1       5.519   3.506  14.236  0.00  0.00    +0.000 A 
ATOM     15  C   UNL     1       6.264   3.938  13.144  0.00  0.00    +0.000 A 
ATOM     16  F   UNL     1       5.967   3.483  11.920  0.00  0.00    +0.000 F 
ATOM     17  C   UNL     1       7.294   4.850  13.299  0.00  0.00    +0.000 A 
ATOM     18  C   UNL     1       7.597   5.324  14.574  0.00  0.00    +0.000 A 
ATOM     19  C   UNL     1       6.839   4.917  15.693  0.00  0.00    +0.000 A 
BRANCH  19  20
ATOM     20  N   UNL     1       7.264   5.366  16.979  0.00  0.00    +0.000 N 
ATOM     21  C   UNL     1       7.258   6.661  17.457  0.00  0.00    +0.000 A 
ATOM     22  C   UNL     1       7.894   6.652  18.675  0.00  0.00    +0.000 A 
ATOM     23  C   UNL     1       8.248   5.311  18.870  0.00  0.00    +0.000 A 
ATOM     24  N   UNL     1       7.833   4.524  17.877  0.00  0.00    +0.000 NA
ENDBRANCH  19  20
ENDBRANCH  12  13
ENDBRANCH   4  12
BRANCH   6  25
ATOM     25  C   UNL     1       2.638   2.376  18.890  0.00  0.00    +0.000 C 
BRANCH  25  26
ATOM     26  C   UNL     1       1.322   1.818  19.408  0.00  0.00    +0.000 C 
BRANCH  26  27
ATOM     27  O   UNL     1       0.250   2.419  18.687  0.00  0.00    +0.000 OA
ATOM     28  H   UNL     1      -0.126   3.121  19.258  0.00  0.00    +0.000 HD
ENDBRANCH  26  27
ENDBRANCH  25  26
ENDBRANCH   6  25
TORSDOF 9
ENDMDL
MODEL 4
REMARK VINA RESULT:      -6.8      2.664      6.807
REMARK  Name = 
REMARK  11 active torsions:
REMARK  status: ('A' for Active; 'I' for Inactive)
REMARK    1  A    between atoms: C_1  and  C_2
REMARK    2  A    between atoms: C_2  and  C_3
REMARK    3  A    between atoms: C_2  and  C_4
REMARK    4  A    between atoms: C_4  and  C_5
REMARK    5  A    between atoms: C_5  and  N_6
REMARK    6  A    between atoms: N_9  and  C_10
REMARK    7  A    between atoms: C_10  and  C_11
REMARK    8  A    between atoms: C_17  and  N_18
REMARK    9  A    between atoms: C_24  and  C_25
REMARK   10  A    between atoms: C_25  and  C_26
REMARK   11  A    between atoms: C_26  and  O_27
REMARK                            x       y       z     vdW  Elec       q    Type
REMARK                         _______ _______ _______ _____ _____    ______ ____
ROOT
ATOM      1  N   UNL     1       3.152   5.991  20.173  0.00  0.00    +0.000 NA
ATOM      2  C   UNL     1       4.505   5.617  19.694  0.00  0.00    +0.000 C 
ATOM      3  C   UNL     1       4.561   4.639  18.485  0.00  0.00    +0.000 C 
ATOM      4  N   UNL     1       3.653   4.933  17.346  0.00  0.00    +0.000 NA
ATOM      5  C   UNL     1       2.350   5.394  17.863  0.00  0.00    +0.000 C 
ATOM      6  C   UNL     1       2.339   6.441  19.011  0.00  0.00    +0.000 C 
ENDROOT
BRANCH   1   7
ATOM      7  C   UNL     1       2.468   4.874  20.863  0.00  0.00    +0.000 C 
BRANCH   7   8
ATOM      8  C   UNL     1       1.050   4.554  20.372  0.00  0.00    +0.000 C 
BRANCH   8  10
ATOM      9  C   UNL     1       0.911   2.347  19.106  0.00  0.00    +0.000 C 
ATOM     10  C   UNL     1       0.648   3.071  20.428  0.00  0.00    +0.000 C 
ATOM     11  C   UNL     1       1.420   2.384  21.558  0.00  0.00    +0.000 C 
ENDBRANCH   8  10
ENDBRANCH   7   8
ENDBRANCH   1   7
BRANCH   4  12
ATOM     12  C   UNL     1       4.329   5.796  16.352  0.00  0.00    +0.000 C 
BRANCH  12  13
ATOM     13  C   UNL     1       5.351   5.151  15.415  0.00  0.00    +0.000 A 
ATOM     14  C   UNL     1       4.919   4.348  14.339  0.00  0.00    +0.000 A 
ATOM     15  C   UNL     1       5.811   3.907  13.367  0.00  0.00    +0.000 A 
ATOM     16  F   UNL     1       5.351   3.235  12.304  0.00  0.00    +0.000 F 
ATOM     17  C   UNL     1       7.166   4.174  13.468  0.00  0.00    +0.000 A 
ATOM     18  C   UNL     1       7.641   4.878  14.574  0.00  0.00    +0.000 A 
ATOM     19  C   UNL     1       6.750   5.354  15.560  0.00  0.00    +0.000 A 
BRANCH  19  20
ATOM     20  N   UNL     1       7.313   5.983  16.711  0.00  0.00    +0.000 N 
ATOM     21  C   UNL     1       7.674   5.381  17.901  0.00  0.00    +0.000 A 
ATOM     22  C   UNL     1       8.023   6.380  18.776  0.00  0.00    +0.000 A 
ATOM     23  C   UNL     1       7.856   7.560  18.039  0.00  0.00    +0.000 A 
ATOM     24  N   UNL     1       7.475   7.328  16.784  0.00  0.00    +0.000 NA
ENDBRANCH  19  20
ENDBRANCH  12  13
ENDBRANCH   4  12
BRANCH   6  25
ATOM     25  C   UNL     1       2.744   7.835  18.498  0.00  0.00    +0.000 C 
BRANCH  25  26
ATOM     26  C   UNL     1       1.717   8.468  17.572  0.00  0.00    +0.000 C 
BRANCH  26  27
ATOM     27  O   UNL     1       1.985   9.864  17.472  0.00  0.00    +0.000 OA
ATOM     28  H   UNL     1       2.744   9.970  16.861  0.00  0.00    +0.000 HD
ENDBRANCH  26  27
ENDBRANCH  25  26
ENDBRANCH   6  25
TORSDOF 9
ENDMDL
MODEL 5
REMARK VINA RESULT:      -6.8      2.905      7.311
REMARK  Name = 
REMARK  11 active torsions:
REMARK  status: ('A' for Active; 'I' for Inactive)
REMARK    1  A    between atoms: C_1  and  C_2
REMARK    2  A    between atoms: C_2  and  C_3
REMARK    3  A    between atoms: C_2  and  C_4
REMARK    4  A    between atoms: C_4  and  C_5
REMARK    5  A    between atoms: C_5  and  N_6
REMARK    6  A    between atoms: N_9  and  C_10
REMARK    7  A    between atoms: C_10  and  C_11
REMARK    8  A    between atoms: C_17  and  N_18
REMARK    9  A    between atoms: C_24  and  C_25
REMARK   10  A    between atoms: C_25  and  C_26
REMARK   11  A    between atoms: C_26  and  O_27
REMARK                            x       y       z     vdW  Elec       q    Type
REMARK                         _______ _______ _______ _____ _____    ______ ____
ROOT
ATOM      1  N   UNL     1       2.031   6.068  19.332  0.00  0.00    +0.000 NA
ATOM      2  C   UNL     1       2.251   6.332  17.889  0.00  0.00    +0.000 C 
ATOM      3  C   UNL     1       3.733   6.389  17.418  0.00  0.00    +0.000 C 
ATOM      4  N   UNL     1       4.630   5.310  17.907  0.00  0.00    +0.000 NA
ATOM      5  C   UNL     1       4.315   5.010  19.317  0.00  0.00    +0.000 C 
ATOM      6  C   UNL     1       2.823   4.871  19.727  0.00  0.00    +0.000 C 
ENDROOT
BRANCH   1   7
ATOM      7  C   UNL     1       2.405   7.221  20.182  0.00  0.00    +0.000 C 
BRANCH   7   8
ATOM      8  C   UNL     1       1.252   7.894  20.938  0.00  0.00    +0.000 C 
BRANCH   8  10
ATOM      9  C   UNL     1       0.974   9.644  19.106  0.00  0.00    +0.000 C 
ATOM     10  C   UNL     1       1.023   9.379  20.612  0.00  0.00    +0.000 C 
ATOM     11  C   UNL     1      -0.285   9.840  21.263  0.00  0.00    +0.000 C 
ENDBRANCH   8  10
ENDBRANCH   7   8
ENDBRANCH   1   7
BRANCH   4  12
ATOM     12  C   UNL     1       4.639   4.173  16.959  0.00  0.00    +0.000 C 
BRANCH  12  13
ATOM     13  C   UNL     1       5.541   4.269  15.728  0.00  0.00    +0.000 A 
ATOM     14  C   UNL     1       5.166   3.642  14.522  0.00  0.00    +0.000 A 
ATOM     15  C   UNL     1       5.868   3.870  13.343  0.00  0.00    +0.000 A 
ATOM     16  F   UNL     1       5.422   3.343  12.196  0.00  0.00    +0.000 F 
ATOM     17  C   UNL     1       7.009   4.654  13.333  0.00  0.00    +0.000 A 
ATOM     18  C   UNL     1       7.468   5.205  14.529  0.00  0.00    +0.000 A 
ATOM     19  C   UNL     1       6.757   5.005  15.732  0.00  0.00    +0.000 A 
BRANCH  19  20
ATOM     20  N   UNL     1       7.334   5.517  16.933  0.00  0.00    +0.000 N 
ATOM     21  C   UNL     1       7.710   4.800  18.052  0.00  0.00    +0.000 A 
ATOM     22  C   UNL     1       8.069   5.707  19.019  0.00  0.00    +0.000 A 
ATOM     23  C   UNL     1       7.892   6.954  18.406  0.00  0.00    +0.000 A 
ATOM     24  N   UNL     1       7.495   6.848  17.138  0.00  0.00    +0.000 NA
ENDBRANCH  19  20
ENDBRANCH  12  13
ENDBRANCH   4  12
BRANCH   6  25
ATOM     25  C   UNL     1       2.221   3.554  19.204  0.00  0.00    +0.000 C 
BRANCH  25  26
ATOM     26  C   UNL     1       3.089   2.336  19.474  0.00  0.00    +0.000 C 
BRANCH  26  27
ATOM     27  O   UNL     1       2.662   1.268  18.633  0.00  0.00    +0.000 OA
ATOM     28  H   UNL     1       2.317   0.560  19.216  0.00  0.00    +0.000 HD
ENDBRANCH  26  27
ENDBRANCH  25  26
ENDBRANCH   6  25
TORSDOF 9
ENDMDL
MODEL 6
REMARK VINA RESULT:      -6.8      2.966      7.085
REMARK  Name = 
REMARK  11 active torsions:
REMARK  status: ('A' for Active; 'I' for Inactive)
REMARK    1  A    between atoms: C_1  and  C_2
REMARK    2  A    between atoms: C_2  and  C_3
REMARK    3  A    between atoms: C_2  and  C_4
REMARK    4  A    between atoms: C_4  and  C_5
REMARK    5  A    between atoms: C_5  and  N_6
REMARK    6  A    between atoms: N_9  and  C_10
REMARK    7  A    between atoms: C_10  and  C_11
REMARK    8  A    between atoms: C_17  and  N_18
REMARK    9  A    between atoms: C_24  and  C_25
REMARK   10  A    between atoms: C_25  and  C_26
REMARK   11  A    between atoms: C_26  and  O_27
REMARK                            x       y       z     vdW  Elec       q    Type
REMARK                         _______ _______ _______ _____ _____    ______ ____
ROOT
ATOM      1  N   UNL     1       2.493   3.862  19.406  0.00  0.00    +0.000 NA
ATOM      2  C   UNL     1       2.301   2.996  18.217  0.00  0.00    +0.000 C 
ATOM      3  C   UNL     1       2.661   3.627  16.841  0.00  0.00    +0.000 C 
ATOM      4  N   UNL     1       3.948   4.366  16.762  0.00  0.00    +0.000 NA
ATOM      5  C   UNL     1       4.148   5.139  18.003  0.00  0.00    +0.000 C 
ATOM      6  C   UNL     1       3.864   4.441  19.362  0.00  0.00    +0.000 C 
ENDROOT
BRANCH   1   7
ATOM      7  C   UNL     1       1.490   4.948  19.483  0.00  0.00    +0.000 C 
BRANCH   7   8
ATOM      8  C   UNL     1       1.619   5.891  20.686  0.00  0.00    +0.000 C 
BRANCH   8  10
ATOM      9  C   UNL     1       1.814   7.677  18.878  0.00  0.00    +0.000 C 
ATOM     10  C   UNL     1       2.026   7.337  20.354  0.00  0.00    +0.000 C 
ATOM     11  C   UNL     1       1.217   8.299  21.229  0.00  0.00    +0.000 C 
ENDBRANCH   8  10
ENDBRANCH   7   8
ENDBRANCH   1   7
BRANCH   4  12
ATOM     12  C   UNL     1       5.042   3.461  16.345  0.00  0.00    +0.000 C 
BRANCH  12  13
ATOM     13  C   UNL     1       6.002   3.944  15.258  0.00  0.00    +0.000 A 
ATOM     14  C   UNL     1       5.904   3.434  13.947  0.00  0.00    +0.000 A 
ATOM     15  C   UNL     1       6.634   3.991  12.901  0.00  0.00    +0.000 A 
ATOM     16  F   UNL     1       6.438   3.551  11.652  0.00  0.00    +0.000 F 
ATOM     17  C   UNL     1       7.543   5.010  13.129  0.00  0.00    +0.000 A 
ATOM     18  C   UNL     1       7.740   5.468  14.431  0.00  0.00    +0.000 A 
ATOM     19  C   UNL     1       6.993   4.933  15.503  0.00  0.00    +0.000 A 
BRANCH  19  20
ATOM     20  N   UNL     1       7.314   5.380  16.820  0.00  0.00    +0.000 N 
ATOM     21  C   UNL     1       7.293   6.677  17.292  0.00  0.00    +0.000 A 
ATOM     22  C   UNL     1       7.820   6.661  18.560  0.00  0.00    +0.000 A 
ATOM     23  C   UNL     1       8.128   5.314  18.790  0.00  0.00    +0.000 A 
ATOM     24  N   UNL     1       7.785   4.531  17.767  0.00  0.00    +0.000 NA
ENDBRANCH  19  20
ENDBRANCH  12  13
ENDBRANCH   4  12
BRANCH   6  25
ATOM     25  C   UNL     1       4.960   3.415  19.702  0.00  0.00    +0.000 C 
BRANCH  25  26
ATOM     26  C   UNL     1       4.431   2.153  20.364  0.00  0.00    +0.000 C 
BRANCH  26  27
ATOM     27  O   UNL     1       5.202   1.040  19.918  0.00  0.00    +0.000 OA
ATOM     28  H   UNL     1       4.775   0.699  19.105  0.00  0.00    +0.000 HD
ENDBRANCH  26  27
ENDBRANCH  25  26
ENDBRANCH   6  25
TORSDOF 9
ENDMDL
MODEL 7
REMARK VINA RESULT:      -6.8      2.863      7.352
REMARK  Name = 
REMARK  11 active torsions:
REMARK  status: ('A' for Active; 'I' for Inactive)
REMARK    1  A    between atoms: C_1  and  C_2
REMARK    2  A    between atoms: C_2  and  C_3
REMARK    3  A    between atoms: C_2  and  C_4
REMARK    4  A    between atoms: C_4  and  C_5
REMARK    5  A    between atoms: C_5  and  N_6
REMARK    6  A    between atoms: N_9  and  C_10
REMARK    7  A    between atoms: C_10  and  C_11
REMARK    8  A    between atoms: C_17  and  N_18
REMARK    9  A    between atoms: C_24  and  C_25
REMARK   10  A    between atoms: C_25  and  C_26
REMARK   11  A    between atoms: C_26  and  O_27
REMARK                            x       y       z     vdW  Elec       q    Type
REMARK                         _______ _______ _______ _____ _____    ______ ____
ROOT
ATOM      1  N   UNL     1       2.033   5.886  19.704  0.00  0.00    +0.000 NA
ATOM      2  C   UNL     1       2.001   5.990  18.225  0.00  0.00    +0.000 C 
ATOM      3  C   UNL     1       3.361   6.275  17.525  0.00  0.00    +0.000 C 
ATOM      4  N   UNL     1       4.527   5.473  17.981  0.00  0.00    +0.000 NA
ATOM      5  C   UNL     1       4.470   5.311  19.446  0.00  0.00    +0.000 C 
ATOM      6  C   UNL     1       3.109   4.936  20.095  0.00  0.00    +0.000 C 
ENDROOT
BRANCH   1   7
ATOM      7  C   UNL     1       2.255   7.195  20.358  0.00  0.00    +0.000 C 
BRANCH   7   8
ATOM      8  C   UNL     1       1.479   8.378  19.764  0.00  0.00    +0.000 C 
BRANCH   8  10
ATOM      9  C   UNL     1       1.121   9.138  22.170  0.00  0.00    +0.000 C 
ATOM     10  C   UNL     1       0.565   9.131  20.745  0.00  0.00    +0.000 C 
ATOM     11  C   UNL     1       0.377  10.570  20.254  0.00  0.00    +0.000 C 
ENDBRANCH   8  10
ENDBRANCH   7   8
ENDBRANCH   1   7
BRANCH   4  12
ATOM     12  C   UNL     1       4.659   4.242  17.169  0.00  0.00    +0.000 C 
BRANCH  12  13
ATOM     13  C   UNL     1       5.525   4.299  15.910  0.00  0.00    +0.000 A 
ATOM     14  C   UNL     1       5.101   3.659  14.728  0.00  0.00    +0.000 A 
ATOM     15  C   UNL     1       5.771   3.853  13.524  0.00  0.00    +0.000 A 
ATOM     16  F   UNL     1       5.281   3.315  12.400  0.00  0.00    +0.000 F 
ATOM     17  C   UNL     1       6.926   4.614  13.466  0.00  0.00    +0.000 A 
ATOM     18  C   UNL     1       7.431   5.177  14.637  0.00  0.00    +0.000 A 
ATOM     19  C   UNL     1       6.753   5.012  15.865  0.00  0.00    +0.000 A 
BRANCH  19  20
ATOM     20  N   UNL     1       7.376   5.533  17.039  0.00  0.00    +0.000 N 
ATOM     21  C   UNL     1       7.785   4.826  18.152  0.00  0.00    +0.000 A 
ATOM     22  C   UNL     1       8.185   5.742  19.094  0.00  0.00    +0.000 A 
ATOM     23  C   UNL     1       7.998   6.983  18.472  0.00  0.00    +0.000 A 
ATOM     24  N   UNL     1       7.556   6.865  17.221  0.00  0.00    +0.000 NA
ENDBRANCH  19  20
ENDBRANCH  12  13
ENDBRANCH   4  12
BRANCH   6  25
ATOM     25  C   UNL     1       2.744   3.466  19.816  0.00  0.00    +0.000 C 
BRANCH  25  26
ATOM     26  C   UNL     1       2.904   2.557  21.024  0.00  0.00    +0.000 C 
BRANCH  26  27
ATOM     27  O   UNL     1       2.090   3.051  22.085  0.00  0.00    +0.000 OA
ATOM     28  H   UNL     1       1.972   4.012  21.936  0.00  0.00    +0.000 HD
ENDBRANCH  26  27
ENDBRANCH  25  26
ENDBRANCH   6  25
TORSDOF 9
ENDMDL
MODEL 8
REMARK VINA RESULT:      -6.8      2.926      7.361
REMARK  Name = 
REMARK  11 active torsions:
REMARK  status: ('A' for Active; 'I' for Inactive)
REMARK    1  A    between atoms: C_1  and  C_2
REMARK    2  A    between atoms: C_2  and  C_3
REMARK    3  A    between atoms: C_2  and  C_4
REMARK    4  A    between atoms: C_4  and  C_5
REMARK    5  A    between atoms: C_5  and  N_6
REMARK    6  A    between atoms: N_9  and  C_10
REMARK    7  A    between atoms: C_10  and  C_11
REMARK    8  A    between atoms: C_17  and  N_18
REMARK    9  A    between atoms: C_24  and  C_25
REMARK   10  A    between atoms: C_25  and  C_26
REMARK   11  A    between atoms: C_26  and  O_27
REMARK                            x       y       z     vdW  Elec       q    Type
REMARK                         _______ _______ _______ _____ _____    ______ ____
ROOT
ATOM      1  N   UNL     1       1.730   6.432  19.172  0.00  0.00    +0.000 NA
ATOM      2  C   UNL     1       2.209   6.635  17.783  0.00  0.00    +0.000 C 
ATOM      3  C   UNL     1       3.747   6.546  17.566  0.00  0.00    +0.000 C 
ATOM      4  N   UNL     1       4.448   5.406  18.212  0.00  0.00    +0.000 NA
ATOM      5  C   UNL     1       3.878   5.175  19.554  0.00  0.00    +0.000 C 
ATOM      6  C   UNL     1       2.332   5.182  19.710  0.00  0.00    +0.000 C 
ENDROOT
BRANCH   1   7
ATOM      7  C   UNL     1       2.063   7.572  20.057  0.00  0.00    +0.000 C 
BRANCH   7   8
ATOM      8  C   UNL     1       1.513   8.937  19.624  0.00  0.00    +0.000 C 
BRANCH   8  10
ATOM      9  C   UNL     1      -0.024   8.544  21.619  0.00  0.00    +0.000 C 
ATOM     10  C   UNL     1       0.331   9.468  20.452  0.00  0.00    +0.000 C 
ATOM     11  C   UNL     1       0.676  10.863  20.981  0.00  0.00    +0.000 C 
ENDBRANCH   8  10
ENDBRANCH   7   8
ENDBRANCH   1   7
BRANCH   4  12
ATOM     12  C   UNL     1       4.508   4.246  17.295  0.00  0.00    +0.000 C 
BRANCH  12  13
ATOM     13  C   UNL     1       5.460   4.322  16.101  0.00  0.00    +0.000 A 
ATOM     14  C   UNL     1       5.122   3.697  14.883  0.00  0.00    +0.000 A 
ATOM     15  C   UNL     1       5.875   3.908  13.732  0.00  0.00    +0.000 A 
ATOM     16  F   UNL     1       5.466   3.385  12.569  0.00  0.00    +0.000 F 
ATOM     17  C   UNL     1       7.029   4.672  13.765  0.00  0.00    +0.000 A 
ATOM     18  C   UNL     1       7.449   5.220  14.976  0.00  0.00    +0.000 A 
ATOM     19  C   UNL     1       6.687   5.037  16.151  0.00  0.00    +0.000 A 
BRANCH  19  20
ATOM     20  N   UNL     1       7.225   5.543  17.373  0.00  0.00    +0.000 N 
ATOM     21  C   UNL     1       7.489   6.861  17.688  0.00  0.00    +0.000 A 
ATOM     22  C   UNL     1       8.139   6.871  18.898  0.00  0.00    +0.000 A 
ATOM     23  C   UNL     1       8.223   5.519  19.256  0.00  0.00    +0.000 A 
ATOM     24  N   UNL     1       7.635   4.718  18.368  0.00  0.00    +0.000 NA
ENDBRANCH  19  20
ENDBRANCH  12  13
ENDBRANCH   4  12
BRANCH   6  25
ATOM     25  C   UNL     1       1.705   3.909  19.112  0.00  0.00    +0.000 C 
BRANCH  25  26
ATOM     26  C   UNL     1       2.210   2.623  19.747  0.00  0.00    +0.000 C 
BRANCH  26  27
ATOM     27  O   UNL     1       2.115   1.569  18.792  0.00  0.00    +0.000 OA
ATOM     28  H   UNL     1       2.768   1.757  18.087  0.00  0.00    +0.000 HD
ENDBRANCH  26  27
ENDBRANCH  25  26
ENDBRANCH   6  25
TORSDOF 9
ENDMDL
MODEL 9
REMARK VINA RESULT:      -6.7      1.953      3.274
REMARK  Name = 
REMARK  11 active torsions:
REMARK  status: ('A' for Active; 'I' for Inactive)
REMARK    1  A    between atoms: C_1  and  C_2
REMARK    2  A    between atoms: C_2  and  C_3
REMARK    3  A    between atoms: C_2  and  C_4
REMARK    4  A    between atoms: C_4  and  C_5
REMARK    5  A    between atoms: C_5  and  N_6
REMARK    6  A    between atoms: N_9  and  C_10
REMARK    7  A    between atoms: C_10  and  C_11
REMARK    8  A    between atoms: C_17  and  N_18
REMARK    9  A    between atoms: C_24  and  C_25
REMARK   10  A    between atoms: C_25  and  C_26
REMARK   11  A    between atoms: C_26  and  O_27
REMARK                            x       y       z     vdW  Elec       q    Type
REMARK                         _______ _______ _______ _____ _____    ______ ____
ROOT
ATOM      1  N   UNL     1       6.597   5.980  15.802  0.00  0.00    +0.000 NA
ATOM      2  C   UNL     1       5.159   6.101  16.146  0.00  0.00    +0.000 C 
ATOM      3  C   UNL     1       4.552   4.938  16.983  0.00  0.00    +0.000 C 
ATOM      4  N   UNL     1       5.344   4.472  18.150  0.00  0.00    +0.000 NA
ATOM      5  C   UNL     1       6.777   4.457  17.798  0.00  0.00    +0.000 C 
ATOM      6  C   UNL     1       7.364   5.681  17.042  0.00  0.00    +0.000 C 
ENDROOT
BRANCH   1   7
ATOM      7  C   UNL     1       6.849   4.931  14.788  0.00  0.00    +0.000 C 
BRANCH   7   8
ATOM      8  C   UNL     1       5.609   4.385  14.070  0.00  0.00    +0.000 C 
BRANCH   8  10
ATOM      9  C   UNL     1       4.710   3.459  11.871  0.00  0.00    +0.000 C 
ATOM     10  C   UNL     1       5.889   3.497  12.846  0.00  0.00    +0.000 C 
ATOM     11  C   UNL     1       7.139   4.013  12.127  0.00  0.00    +0.000 C 
ENDBRANCH   8  10
ENDBRANCH   7   8
ENDBRANCH   1   7
BRANCH   4  12
ATOM     12  C   UNL     1       4.956   5.213  19.371  0.00  0.00    +0.000 C 
BRANCH  12  13
ATOM     13  C   UNL     1       3.507   5.107  19.847  0.00  0.00    +0.000 A 
ATOM     14  C   UNL     1       2.817   6.258  20.282  0.00  0.00    +0.000 A 
ATOM     15  C   UNL     1       1.449   6.223  20.538  0.00  0.00    +0.000 A 
ATOM     16  F   UNL     1       0.806   7.356  20.848  0.00  0.00    +0.000 F 
ATOM     17  C   UNL     1       0.738   5.039  20.455  0.00  0.00    +0.000 A 
ATOM     18  C   UNL     1       1.410   3.862  20.128  0.00  0.00    +0.000 A 
ATOM     19  C   UNL     1       2.792   3.879  19.841  0.00  0.00    +0.000 A 
BRANCH  19  20
ATOM     20  N   UNL     1       3.434   2.625  19.608  0.00  0.00    +0.000 N 
ATOM     21  C   UNL     1       4.407   2.027  20.385  0.00  0.00    +0.000 A 
ATOM     22  C   UNL     1       4.845   0.915  19.707  0.00  0.00    +0.000 A 
ATOM     23  C   UNL     1       4.082   0.902  18.532  0.00  0.00    +0.000 A 
ATOM     24  N   UNL     1       3.200   1.900  18.486  0.00  0.00    +0.000 NA
ENDBRANCH  19  20
ENDBRANCH  12  13
ENDBRANCH   4  12
BRANCH   6  25
ATOM     25  C   UNL     1       7.500   6.900  17.972  0.00  0.00    +0.000 C 
BRANCH  25  26
ATOM     26  C   UNL     1       7.823   8.194  17.241  0.00  0.00    +0.000 C 
BRANCH  26  27
ATOM     27  O   UNL     1       8.285   9.155  18.187  0.00  0.00    +0.000 OA
ATOM     28  H   UNL     1       7.783   9.981  18.029  0.00  0.00    +0.000 HD
ENDBRANCH  26  27
ENDBRANCH  25  26
ENDBRANCH   6  25
TORSDOF 9
ENDMDL
