MODEL 1
REMARK VINA RESULT:      -7.4      0.000      0.000
REMARK  Name = 
REMARK  6 active torsions:
REMARK  status: ('A' for Active; 'I' for Inactive)
REMARK    1  A    between atoms: C_2  and  C_3
REMARK    2  A    between atoms: C_3  and  N_4
REMARK    3  A    between atoms: N_7  and  C_8
REMARK    4  A    between atoms: C_11  and  C_12
REMARK    5  A    between atoms: C_12  and  O_13
REMARK    6  A    between atoms: C_20  and  O_21
REMARK                            x       y       z     vdW  Elec       q    Type
REMARK                         _______ _______ _______ _____ _____    ______ ____
ROOT
ATOM      1  N   UNL     1       5.283   4.804  18.193  0.00  0.00    +0.000 N 
ATOM      2  C   UNL     1       4.750   4.070  19.258  0.00  0.00    +0.000 A 
ATOM      3  O   UNL     1       5.125   2.963  19.612  0.00  0.00    +0.000 OA
ATOM      4  N   UNL     1       3.692   4.841  19.806  0.00  0.00    +0.000 N 
ATOM      5  C   UNL     1       3.478   5.937  18.934  0.00  0.00    +0.000 A 
ATOM      6  N   UNL     1       2.492   6.835  18.961  0.00  0.00    +0.000 NA
ATOM      7  C   UNL     1       2.548   7.761  17.988  0.00  0.00    +0.000 A 
ATOM      8  N   UNL     1       1.540   8.697  17.931  0.00  0.00    +0.000 N 
ATOM      9  N   UNL     1       3.517   7.873  17.061  0.00  0.00    +0.000 NA
ATOM     10  C   UNL     1       4.472   6.933  17.085  0.00  0.00    +0.000 A 
ATOM     11  C   UNL     1       4.486   5.926  17.997  0.00  0.00    +0.000 A 
ATOM     12  H   UNL     1       1.088   8.810  18.827  0.00  0.00    +0.000 HD
ATOM     13  H   UNL     1       1.849   9.535  17.457  0.00  0.00    +0.000 HD
ENDROOT
BRANCH   4  14
ATOM     14  C   UNL     1       2.773   4.352  20.830  0.00  0.00    +0.000 C 
ATOM     15  C   UNL     1       1.326   4.853  20.660  0.00  0.00    +0.000 C 
ATOM     16  O   UNL     1       0.634   3.909  19.822  0.00  0.00    +0.000 OA
ATOM     17  C   UNL     1       1.354   2.663  19.864  0.00  0.00    +0.000 C 
ATOM     18  C   UNL     1       2.502   2.852  20.846  0.00  0.00    +0.000 C 
BRANCH  17  19
ATOM     19  C   UNL     1       1.809   2.320  18.444  0.00  0.00    +0.000 C 
BRANCH  19  20
ATOM     20  O   UNL     1       2.822   1.315  18.485  0.00  0.00    +0.000 OA
ATOM     21  H   UNL     1       2.548   0.700  19.195  0.00  0.00    +0.000 HD
ENDBRANCH  19  20
ENDBRANCH  17  19
ENDBRANCH   4  14
BRANCH  10  22
ATOM     22  O   UNL     1       5.404   7.070  16.112  0.00  0.00    +0.000 OA
ATOM     23  H   UNL     1       5.065   7.849  15.636  0.00  0.00    +0.000 HD
ENDBRANCH  10  22
BRANCH   1  24
ATOM     24  C   UNL     1       6.428   4.416  17.417  0.00  0.00    +0.000 C 
BRANCH  24  26
ATOM     25  C   UNL     1       7.794   6.091  18.700  0.00  0.00    +0.000 C 
ATOM     26  C   UNL     1       7.664   4.892  18.120  0.00  0.00    +0.000 C 
ENDBRANCH  24  26
ENDBRANCH   1  24
TORSDOF 6
ENDMDL
MODEL 2
REMARK VINA RESULT:      -7.3      0.694      1.216
REMARK  Name = 
REMARK  6 active torsions:
REMARK  status: ('A' for Active; 'I' for Inactive)
REMARK    1  A    between atoms: C_2  and  C_3
REMARK    2  A    between atoms: C_3  and  N_4
REMARK    3  A    between atoms: N_7  and  C_8
REMARK    4  A    between atoms: C_11  and  C_12
REMARK    5  A    between atoms: C_12  and  O_13
REMARK    6  A    between atoms: C_20  and  O_21
REMARK                            x       y       z     vdW  Elec       q    Type
REMARK                         _______ _______ _______ _____ _____    ______ ____
ROOT
ATOM      1  N   UNL     1       5.240   4.795  18.050  0.00  0.00    +0.000 N 
ATOM      2  C   UNL     1       4.743   4.053  19.127  0.00  0.00    +0.000 A 
ATOM      3  O   UNL     1       5.110   2.931  19.443  0.00  0.00    +0.000 OA
ATOM      4  N   UNL     1       3.730   4.836  19.740  0.00  0.00    +0.000 N 
ATOM      5  C   UNL     1       3.499   5.953  18.899  0.00  0.00    +0.000 A 
ATOM      6  N   UNL     1       2.535   6.871  18.991  0.00  0.00    +0.000 NA
ATOM      7  C   UNL     1       2.565   7.813  18.032  0.00  0.00    +0.000 A 
ATOM      8  N   UNL     1       1.577   8.772  18.042  0.00  0.00    +0.000 N 
ATOM      9  N   UNL     1       3.490   7.922  17.062  0.00  0.00    +0.000 NA
ATOM     10  C   UNL     1       4.423   6.962  17.022  0.00  0.00    +0.000 A 
ATOM     11  C   UNL     1       4.459   5.938  17.914  0.00  0.00    +0.000 A 
ATOM     12  H   UNL     1       1.172   8.878  18.961  0.00  0.00    +0.000 HD
ATOM     13  H   UNL     1       1.881   9.613  17.568  0.00  0.00    +0.000 HD
ENDROOT
BRANCH   4  14
ATOM     14  C   UNL     1       2.852   4.348  20.799  0.00  0.00    +0.000 C 
ATOM     15  C   UNL     1       1.406   4.872  20.702  0.00  0.00    +0.000 C 
ATOM     16  O   UNL     1       0.662   3.950  19.886  0.00  0.00    +0.000 OA
ATOM     17  C   UNL     1       1.364   2.693  19.880  0.00  0.00    +0.000 C 
ATOM     18  C   UNL     1       2.558   2.851  20.809  0.00  0.00    +0.000 C 
BRANCH  17  19
ATOM     19  C   UNL     1       1.748   2.361  18.436  0.00  0.00    +0.000 C 
BRANCH  19  20
ATOM     20  O   UNL     1       2.756   1.350  18.419  0.00  0.00    +0.000 OA
ATOM     21  H   UNL     1       3.047   1.291  17.487  0.00  0.00    +0.000 HD
ENDBRANCH  19  20
ENDBRANCH  17  19
ENDBRANCH   4  14
BRANCH  10  22
ATOM     22  O   UNL     1       5.310   7.097  16.006  0.00  0.00    +0.000 OA
ATOM     23  H   UNL     1       4.990   6.417  15.387  0.00  0.00    +0.000 HD
ENDBRANCH  10  22
BRANCH   1  24
ATOM     24  C   UNL     1       6.336   4.397  17.213  0.00  0.00    +0.000 C 
BRANCH  24  26
ATOM     25  C   UNL     1       6.158   3.957  14.744  0.00  0.00    +0.000 C 
ATOM     26  C   UNL     1       5.785   3.702  16.004  0.00  0.00    +0.000 C 
ENDBRANCH  24  26
ENDBRANCH   1  24
TORSDOF 6
ENDMDL
MODEL 3
REMARK VINA RESULT:      -7.1      1.612      2.457
REMARK  Name = 
REMARK  6 active torsions:
REMARK  status: ('A' for Active; 'I' for Inactive)
REMARK    1  A    between atoms: C_2  and  C_3
REMARK    2  A    between atoms: C_3  and  N_4
REMARK    3  A    between atoms: N_7  and  C_8
REMARK    4  A    between atoms: C_11  and  C_12
REMARK    5  A    between atoms: C_12  and  O_13
REMARK    6  A    between atoms: C_20  and  O_21
REMARK                            x       y       z     vdW  Elec       q    Type
REMARK                         _______ _______ _______ _____ _____    ______ ____
ROOT
ATOM      1  N   UNL     1       4.760   4.202  17.122  0.00  0.00    +0.000 N 
ATOM      2  C   UNL     1       3.811   3.252  17.514  0.00  0.00    +0.000 A 
ATOM      3  O   UNL     1       3.889   2.049  17.312  0.00  0.00    +0.000 OA
ATOM      4  N   UNL     1       2.753   3.956  18.146  0.00  0.00    +0.000 N 
ATOM      5  C   UNL     1       2.993   5.338  17.947  0.00  0.00    +0.000 A 
ATOM      6  N   UNL     1       2.190   6.365  18.228  0.00  0.00    +0.000 NA
ATOM      7  C   UNL     1       2.691   7.572  17.912  0.00  0.00    +0.000 A 
ATOM      8  N   UNL     1       1.899   8.676  18.140  0.00  0.00    +0.000 N 
ATOM      9  N   UNL     1       3.913   7.810  17.404  0.00  0.00    +0.000 NA
ATOM     10  C   UNL     1       4.664   6.734  17.137  0.00  0.00    +0.000 A 
ATOM     11  C   UNL     1       4.238   5.466  17.375  0.00  0.00    +0.000 A 
ATOM     12  H   UNL     1       1.202   8.494  18.847  0.00  0.00    +0.000 HD
ATOM     13  H   UNL     1       2.462   9.511  18.245  0.00  0.00    +0.000 HD
ENDROOT
BRANCH   4  14
ATOM     14  C   UNL     1       1.492   3.341  18.550  0.00  0.00    +0.000 C 
ATOM     15  C   UNL     1       1.647   1.924  19.135  0.00  0.00    +0.000 C 
ATOM     16  O   UNL     1       1.847   2.057  20.553  0.00  0.00    +0.000 OA
ATOM     17  C   UNL     1       1.354   3.349  20.955  0.00  0.00    +0.000 C 
ATOM     18  C   UNL     1       0.755   3.995  19.714  0.00  0.00    +0.000 C 
BRANCH  17  19
ATOM     19  C   UNL     1       2.514   4.142  21.561  0.00  0.00    +0.000 C 
BRANCH  19  20
ATOM     20  O   UNL     1       2.369   5.529  21.257  0.00  0.00    +0.000 OA
ATOM     21  H   UNL     1       2.498   5.995  22.107  0.00  0.00    +0.000 HD
ENDBRANCH  19  20
ENDBRANCH  17  19
ENDBRANCH   4  14
BRANCH  10  22
ATOM     22  O   UNL     1       5.871   7.025  16.596  0.00  0.00    +0.000 OA
ATOM     23  H   UNL     1       6.149   7.775  17.150  0.00  0.00    +0.000 HD
ENDBRANCH  10  22
BRANCH   1  24
ATOM     24  C   UNL     1       6.027   3.900  16.517  0.00  0.00    +0.000 C 
BRANCH  24  26
ATOM     25  C   UNL     1       6.616   4.557  14.164  0.00  0.00    +0.000 C 
ATOM     26  C   UNL     1       5.852   3.879  15.028  0.00  0.00    +0.000 C 
ENDBRANCH  24  26
ENDBRANCH   1  24
TORSDOF 6
ENDMDL
MODEL 4
REMARK VINA RESULT:      -7.0      1.578      4.790
REMARK  Name = 
REMARK  6 active torsions:
REMARK  status: ('A' for Active; 'I' for Inactive)
REMARK    1  A    between atoms: C_2  and  C_3
REMARK    2  A    between atoms: C_3  and  N_4
REMARK    3  A    between atoms: N_7  and  C_8
REMARK    4  A    between atoms: C_11  and  C_12
REMARK    5  A    between atoms: C_12  and  O_13
REMARK    6  A    between atoms: C_20  and  O_21
REMARK                            x       y       z     vdW  Elec       q    Type
REMARK                         _______ _______ _______ _____ _____    ______ ____
ROOT
ATOM      1  N   UNL     1       3.202   5.023  19.784  0.00  0.00    +0.000 N 
ATOM      2  C   UNL     1       4.003   4.496  18.766  0.00  0.00    +0.000 A 
ATOM      3  O   UNL     1       4.670   3.475  18.847  0.00  0.00    +0.000 OA
ATOM      4  N   UNL     1       3.912   5.383  17.661  0.00  0.00    +0.000 N 
ATOM      5  C   UNL     1       3.212   6.532  18.106  0.00  0.00    +0.000 A 
ATOM      6  N   UNL     1       3.025   7.686  17.462  0.00  0.00    +0.000 NA
ATOM      7  C   UNL     1       2.324   8.604  18.150  0.00  0.00    +0.000 A 
ATOM      8  N   UNL     1       2.125   9.833  17.562  0.00  0.00    +0.000 N 
ATOM      9  N   UNL     1       1.776   8.430  19.366  0.00  0.00    +0.000 NA
ATOM     10  C   UNL     1       2.010   7.252  19.959  0.00  0.00    +0.000 A 
ATOM     11  C   UNL     1       2.744   6.271  19.373  0.00  0.00    +0.000 A 
ATOM     12  H   UNL     1       2.201   9.781  16.556  0.00  0.00    +0.000 HD
ATOM     13  H   UNL     1       1.307  10.291  17.943  0.00  0.00    +0.000 HD
ENDROOT
BRANCH   4  14
ATOM     14  C   UNL     1       4.732   5.275  16.459  0.00  0.00    +0.000 C 
ATOM     15  C   UNL     1       5.113   6.633  15.839  0.00  0.00    +0.000 C 
ATOM     16  O   UNL     1       6.347   7.058  16.444  0.00  0.00    +0.000 OA
ATOM     17  C   UNL     1       6.995   5.897  16.998  0.00  0.00    +0.000 C 
ATOM     18  C   UNL     1       6.133   4.697  16.636  0.00  0.00    +0.000 C 
BRANCH  17  19
ATOM     19  C   UNL     1       7.154   6.107  18.506  0.00  0.00    +0.000 C 
BRANCH  19  20
ATOM     20  O   UNL     1       7.447   4.864  19.144  0.00  0.00    +0.000 OA
ATOM     21  H   UNL     1       8.071   4.407  18.546  0.00  0.00    +0.000 HD
ENDBRANCH  19  20
ENDBRANCH  17  19
ENDBRANCH   4  14
BRANCH  10  22
ATOM     22  O   UNL     1       1.467   7.139  21.195  0.00  0.00    +0.000 OA
ATOM     23  H   UNL     1       0.537   7.363  21.011  0.00  0.00    +0.000 HD
ENDBRANCH  10  22
BRANCH   1  24
ATOM     24  C   UNL     1       2.952   4.388  21.047  0.00  0.00    +0.000 C 
BRANCH  24  26
ATOM     25  C   UNL     1       1.353   2.544  21.650  0.00  0.00    +0.000 C 
ATOM     26  C   UNL     1       1.648   3.653  20.961  0.00  0.00    +0.000 C 
ENDBRANCH  24  26
ENDBRANCH   1  24
TORSDOF 6
ENDMDL
MODEL 5
REMARK VINA RESULT:      -6.8      2.203      5.923
REMARK  Name = 
REMARK  6 active torsions:
REMARK  status: ('A' for Active; 'I' for Inactive)
REMARK    1  A    between atoms: C_2  and  C_3
REMARK    2  A    between atoms: C_3  and  N_4
REMARK    3  A    between atoms: N_7  and  C_8
REMARK    4  A    between atoms: C_11  and  C_12
REMARK    5  A    between atoms: C_12  and  O_13
REMARK    6  A    between atoms: C_20  and  O_21
REMARK                            x       y       z     vdW  Elec       q    Type
REMARK                         _______ _______ _______ _____ _____    ______ ____
ROOT
ATOM      1  N   UNL     1       2.424   5.547  19.725  0.00  0.00    +0.000 N 
ATOM      2  C   UNL     1       2.941   6.011  18.511  0.00  0.00    +0.000 A 
ATOM      3  O   UNL     1       2.490   6.942  17.861  0.00  0.00    +0.000 OA
ATOM      4  N   UNL     1       4.045   5.181  18.184  0.00  0.00    +0.000 N 
ATOM      5  C   UNL     1       4.049   4.108  19.109  0.00  0.00    +0.000 A 
ATOM      6  N   UNL     1       4.804   3.008  19.094  0.00  0.00    +0.000 NA
ATOM      7  C   UNL     1       4.573   2.155  20.108  0.00  0.00    +0.000 A 
ATOM      8  N   UNL     1       5.290   0.980  20.135  0.00  0.00    +0.000 N 
ATOM      9  N   UNL     1       3.709   2.349  21.120  0.00  0.00    +0.000 NA
ATOM     10  C   UNL     1       2.975   3.470  21.067  0.00  0.00    +0.000 A 
ATOM     11  C   UNL     1       3.097   4.377  20.064  0.00  0.00    +0.000 A 
ATOM     12  H   UNL     1       6.153   1.059  19.617  0.00  0.00    +0.000 HD
ATOM     13  H   UNL     1       5.344   0.609  21.076  0.00  0.00    +0.000 HD
ENDROOT
BRANCH   4  14
ATOM     14  C   UNL     1       4.754   5.234  16.909  0.00  0.00    +0.000 C 
ATOM     15  C   UNL     1       5.076   6.663  16.432  0.00  0.00    +0.000 C 
ATOM     16  O   UNL     1       6.359   7.025  16.973  0.00  0.00    +0.000 OA
ATOM     17  C   UNL     1       7.055   5.813  17.318  0.00  0.00    +0.000 C 
ATOM     18  C   UNL     1       6.165   4.657  16.887  0.00  0.00    +0.000 C 
BRANCH  17  19
ATOM     19  C   UNL     1       7.349   5.835  18.820  0.00  0.00    +0.000 C 
BRANCH  19  20
ATOM     20  O   UNL     1       8.364   6.798  19.105  0.00  0.00    +0.000 OA
ATOM     21  H   UNL     1       9.161   6.480  18.638  0.00  0.00    +0.000 HD
ENDBRANCH  19  20
ENDBRANCH  17  19
ENDBRANCH   4  14
BRANCH  10  22
ATOM     22  O   UNL     1       2.097   3.602  22.090  0.00  0.00    +0.000 OA
ATOM     23  H   UNL     1       2.304   4.501  22.400  0.00  0.00    +0.000 HD
ENDBRANCH  10  22
BRANCH   1  24
ATOM     24  C   UNL     1       1.348   6.161  20.451  0.00  0.00    +0.000 C 
BRANCH  24  26
ATOM     25  C   UNL     1       0.976   8.494  21.311  0.00  0.00    +0.000 C 
ATOM     26  C   UNL     1       1.798   7.515  20.914  0.00  0.00    +0.000 C 
ENDBRANCH  24  26
ENDBRANCH   1  24
TORSDOF 6
ENDMDL
MODEL 6
REMARK VINA RESULT:      -6.8      2.030      3.489
REMARK  Name = 
REMARK  6 active torsions:
REMARK  status: ('A' for Active; 'I' for Inactive)
REMARK    1  A    between atoms: C_2  and  C_3
REMARK    2  A    between atoms: C_3  and  N_4
REMARK    3  A    between atoms: N_7  and  C_8
REMARK    4  A    between atoms: C_11  and  C_12
REMARK    5  A    between atoms: C_12  and  O_13
REMARK    6  A    between atoms: C_20  and  O_21
REMARK                            x       y       z     vdW  Elec       q    Type
REMARK                         _______ _______ _______ _____ _____    ______ ____
ROOT
ATOM      1  N   UNL     1       4.868   6.029  17.105  0.00  0.00    +0.000 N 
ATOM      2  C   UNL     1       3.754   5.523  17.784  0.00  0.00    +0.000 A 
ATOM      3  O   UNL     1       2.592   5.647  17.428  0.00  0.00    +0.000 OA
ATOM      4  N   UNL     1       4.236   4.883  18.956  0.00  0.00    +0.000 N 
ATOM      5  C   UNL     1       5.616   5.188  19.061  0.00  0.00    +0.000 A 
ATOM      6  N   UNL     1       6.443   4.934  20.076  0.00  0.00    +0.000 NA
ATOM      7  C   UNL     1       7.706   5.357  19.890  0.00  0.00    +0.000 A 
ATOM      8  N   UNL     1       8.607   5.162  20.914  0.00  0.00    +0.000 N 
ATOM      9  N   UNL     1       8.186   5.945  18.780  0.00  0.00    +0.000 NA
ATOM     10  C   UNL     1       7.299   6.179  17.803  0.00  0.00    +0.000 A 
ATOM     11  C   UNL     1       5.989   5.834  17.905  0.00  0.00    +0.000 A 
ATOM     12  H   UNL     1       8.321   4.407  21.521  0.00  0.00    +0.000 HD
ATOM     13  H   UNL     1       9.556   5.144  20.564  0.00  0.00    +0.000 HD
ENDROOT
BRANCH   4  14
ATOM     14  C   UNL     1       3.375   4.372  20.018  0.00  0.00    +0.000 C 
ATOM     15  C   UNL     1       1.872   4.432  19.686  0.00  0.00    +0.000 C 
ATOM     16  O   UNL     1       1.520   3.199  19.032  0.00  0.00    +0.000 OA
ATOM     17  C   UNL     1       2.521   2.218  19.362  0.00  0.00    +0.000 C 
ATOM     18  C   UNL     1       3.487   2.883  20.331  0.00  0.00    +0.000 C 
BRANCH  17  19
ATOM     19  C   UNL     1       3.181   1.746  18.064  0.00  0.00    +0.000 C 
BRANCH  19  20
ATOM     20  O   UNL     1       4.073   0.665  18.334  0.00  0.00    +0.000 OA
ATOM     21  H   UNL     1       3.503  -0.125  18.423  0.00  0.00    +0.000 HD
ENDBRANCH  19  20
ENDBRANCH  17  19
ENDBRANCH   4  14
BRANCH  10  22
ATOM     22  O   UNL     1       7.823   6.803  16.721  0.00  0.00    +0.000 OA
ATOM     23  H   UNL     1       7.745   7.736  16.987  0.00  0.00    +0.000 HD
ENDBRANCH  10  22
BRANCH   1  24
ATOM     24  C   UNL     1       4.826   6.679  15.826  0.00  0.00    +0.000 C 
BRANCH  24  26
ATOM     25  C   UNL     1       5.524   4.407  15.006  0.00  0.00    +0.000 C 
ATOM     26  C   UNL     1       5.268   5.701  14.779  0.00  0.00    +0.000 C 
ENDBRANCH  24  26
ENDBRANCH   1  24
TORSDOF 6
ENDMDL
MODEL 7
REMARK VINA RESULT:      -6.8      1.887      5.486
REMARK  Name = 
REMARK  6 active torsions:
REMARK  status: ('A' for Active; 'I' for Inactive)
REMARK    1  A    between atoms: C_2  and  C_3
REMARK    2  A    between atoms: C_3  and  N_4
REMARK    3  A    between atoms: N_7  and  C_8
REMARK    4  A    between atoms: C_11  and  C_12
REMARK    5  A    between atoms: C_12  and  O_13
REMARK    6  A    between atoms: C_20  and  O_21
REMARK                            x       y       z     vdW  Elec       q    Type
REMARK                         _______ _______ _______ _____ _____    ______ ____
ROOT
ATOM      1  N   UNL     1       3.038   6.528  18.528  0.00  0.00    +0.000 N 
ATOM      2  C   UNL     1       3.876   6.476  17.409  0.00  0.00    +0.000 A 
ATOM      3  O   UNL     1       4.307   7.446  16.802  0.00  0.00    +0.000 OA
ATOM      4  N   UNL     1       4.089   5.105  17.111  0.00  0.00    +0.000 N 
ATOM      5  C   UNL     1       3.215   4.357  17.937  0.00  0.00    +0.000 A 
ATOM      6  N   UNL     1       2.957   3.049  17.897  0.00  0.00    +0.000 NA
ATOM      7  C   UNL     1       2.065   2.624  18.809  0.00  0.00    +0.000 A 
ATOM      8  N   UNL     1       1.721   1.291  18.799  0.00  0.00    +0.000 N 
ATOM      9  N   UNL     1       1.480   3.383  19.753  0.00  0.00    +0.000 NA
ATOM     10  C   UNL     1       1.776   4.689  19.731  0.00  0.00    +0.000 A 
ATOM     11  C   UNL     1       2.630   5.231  18.824  0.00  0.00    +0.000 A 
ATOM     12  H   UNL     1       2.439   0.725  18.369  0.00  0.00    +0.000 HD
ATOM     13  H   UNL     1       1.379   0.997  19.706  0.00  0.00    +0.000 HD
ENDROOT
BRANCH   4  14
ATOM     14  C   UNL     1       4.775   4.628  15.913  0.00  0.00    +0.000 C 
ATOM     15  C   UNL     1       5.520   5.732  15.139  0.00  0.00    +0.000 C 
ATOM     16  O   UNL     1       6.854   5.813  15.671  0.00  0.00    +0.000 OA
ATOM     17  C   UNL     1       7.144   4.572  16.340  0.00  0.00    +0.000 C 
ATOM     18  C   UNL     1       5.939   3.667  16.129  0.00  0.00    +0.000 C 
BRANCH  17  19
ATOM     19  C   UNL     1       7.437   4.872  17.811  0.00  0.00    +0.000 C 
BRANCH  19  20
ATOM     20  O   UNL     1       6.638   4.037  18.649  0.00  0.00    +0.000 OA
ATOM     21  H   UNL     1       6.994   3.134  18.530  0.00  0.00    +0.000 HD
ENDBRANCH  19  20
ENDBRANCH  17  19
ENDBRANCH   4  14
BRANCH  10  22
ATOM     22  O   UNL     1       1.136   5.415  20.679  0.00  0.00    +0.000 OA
ATOM     23  H   UNL     1       0.816   6.169  20.153  0.00  0.00    +0.000 HD
ENDBRANCH  10  22
BRANCH   1  24
ATOM     24  C   UNL     1       2.642   7.730  19.205  0.00  0.00    +0.000 C 
BRANCH  24  26
ATOM     25  C   UNL     1       1.818   9.722  17.911  0.00  0.00    +0.000 C 
ATOM     26  C   UNL     1       1.662   8.464  18.339  0.00  0.00    +0.000 C 
ENDBRANCH  24  26
ENDBRANCH   1  24
TORSDOF 6
ENDMDL
MODEL 8
REMARK VINA RESULT:      -6.7      2.044      3.877
REMARK  Name = 
REMARK  6 active torsions:
REMARK  status: ('A' for Active; 'I' for Inactive)
REMARK    1  A    between atoms: C_2  and  C_3
REMARK    2  A    between atoms: C_3  and  N_4
REMARK    3  A    between atoms: N_7  and  C_8
REMARK    4  A    between atoms: C_11  and  C_12
REMARK    5  A    between atoms: C_12  and  O_13
REMARK    6  A    between atoms: C_20  and  O_21
REMARK                            x       y       z     vdW  Elec       q    Type
REMARK                         _______ _______ _______ _____ _____    ______ ____
ROOT
ATOM      1  N   UNL     1       4.080   6.156  17.897  0.00  0.00    +0.000 N 
ATOM      2  C   UNL     1       3.878   5.110  18.804  0.00  0.00    +0.000 A 
ATOM      3  O   UNL     1       3.514   5.240  19.963  0.00  0.00    +0.000 OA
ATOM      4  N   UNL     1       4.208   3.905  18.131  0.00  0.00    +0.000 N 
ATOM      5  C   UNL     1       4.792   4.265  16.891  0.00  0.00    +0.000 A 
ATOM      6  N   UNL     1       5.391   3.474  16.000  0.00  0.00    +0.000 NA
ATOM      7  C   UNL     1       5.863   4.110  14.913  0.00  0.00    +0.000 A 
ATOM      8  N   UNL     1       6.528   3.361  13.968  0.00  0.00    +0.000 N 
ATOM      9  N   UNL     1       5.731   5.422  14.648  0.00  0.00    +0.000 NA
ATOM     10  C   UNL     1       5.128   6.160  15.590  0.00  0.00    +0.000 A 
ATOM     11  C   UNL     1       4.655   5.626  16.746  0.00  0.00    +0.000 A 
ATOM     12  H   UNL     1       6.264   2.388  14.013  0.00  0.00    +0.000 HD
ATOM     13  H   UNL     1       6.497   3.810  13.061  0.00  0.00    +0.000 HD
ENDROOT
BRANCH   4  14
ATOM     14  C   UNL     1       4.288   2.602  18.785  0.00  0.00    +0.000 C 
ATOM     15  C   UNL     1       4.042   2.650  20.305  0.00  0.00    +0.000 C 
ATOM     16  O   UNL     1       2.628   2.489  20.522  0.00  0.00    +0.000 OA
ATOM     17  C   UNL     1       2.064   1.873  19.350  0.00  0.00    +0.000 C 
ATOM     18  C   UNL     1       3.222   1.580  18.406  0.00  0.00    +0.000 C 
BRANCH  17  19
ATOM     19  C   UNL     1       1.017   2.822  18.762  0.00  0.00    +0.000 C 
BRANCH  19  20
ATOM     20  O   UNL     1       0.765   3.894  19.670  0.00  0.00    +0.000 OA
ATOM     21  H   UNL     1       0.981   3.540  20.555  0.00  0.00    +0.000 HD
ENDBRANCH  19  20
ENDBRANCH  17  19
ENDBRANCH   4  14
BRANCH  10  22
ATOM     22  O   UNL     1       5.051   7.479  15.291  0.00  0.00    +0.000 OA
ATOM     23  H   UNL     1       4.183   7.706  15.669  0.00  0.00    +0.000 HD
ENDBRANCH  10  22
BRANCH   1  24
ATOM     24  C   UNL     1       3.785   7.537  18.153  0.00  0.00    +0.000 C 
BRANCH  24  26
ATOM     25  C   UNL     1       1.737   8.972  17.892  0.00  0.00    +0.000 C 
ATOM     26  C   UNL     1       2.328   7.771  17.886  0.00  0.00    +0.000 C 
ENDBRANCH  24  26
ENDBRANCH   1  24
TORSDOF 6
ENDMDL
MODEL 9
REMARK VINA RESULT:      -6.6      1.364      3.643
REMARK  Name = 
REMARK  6 active torsions:
REMARK  status: ('A' for Active; 'I' for Inactive)
REMARK    1  A    between atoms: C_2  and  C_3
REMARK    2  A    between atoms: C_3  and  N_4
REMARK    3  A    between atoms: N_7  and  C_8
REMARK    4  A    between atoms: C_11  and  C_12
REMARK    5  A    between atoms: C_12  and  O_13
REMARK    6  A    between atoms: C_20  and  O_21
REMARK                            x       y       z     vdW  Elec       q    Type
REMARK                         _______ _______ _______ _____ _____    ______ ____
ROOT
ATOM      1  N   UNL     1       3.274   6.542  17.900  0.00  0.00    +0.000 N 
ATOM      2  C   UNL     1       2.734   5.864  18.998  0.00  0.00    +0.000 A 
ATOM      3  O   UNL     1       1.696   6.160  19.572  0.00  0.00    +0.000 OA
ATOM      4  N   UNL     1       3.630   4.812  19.320  0.00  0.00    +0.000 N 
ATOM      5  C   UNL     1       4.794   4.999  18.533  0.00  0.00    +0.000 A 
ATOM      6  N   UNL     1       5.956   4.348  18.609  0.00  0.00    +0.000 NA
ATOM      7  C   UNL     1       6.887   4.758  17.730  0.00  0.00    +0.000 A 
ATOM      8  N   UNL     1       8.124   4.156  17.777  0.00  0.00    +0.000 N 
ATOM      9  N   UNL     1       6.719   5.700  16.785  0.00  0.00    +0.000 NA
ATOM     10  C   UNL     1       5.531   6.320  16.771  0.00  0.00    +0.000 A 
ATOM     11  C   UNL     1       4.536   6.016  17.643  0.00  0.00    +0.000 A 
ATOM     12  H   UNL     1       8.077   3.241  18.201  0.00  0.00    +0.000 HD
ATOM     13  H   UNL     1       8.600   4.232  16.887  0.00  0.00    +0.000 HD
ENDROOT
BRANCH   4  14
ATOM     14  C   UNL     1       3.510   3.974  20.509  0.00  0.00    +0.000 C 
ATOM     15  C   UNL     1       2.234   4.238  21.333  0.00  0.00    +0.000 C 
ATOM     16  O   UNL     1       1.201   3.376  20.822  0.00  0.00    +0.000 OA
ATOM     17  C   UNL     1       1.832   2.293  20.114  0.00  0.00    +0.000 C 
ATOM     18  C   UNL     1       3.334   2.477  20.277  0.00  0.00    +0.000 C 
BRANCH  17  19
ATOM     19  C   UNL     1       1.362   2.328  18.659  0.00  0.00    +0.000 C 
BRANCH  19  20
ATOM     20  O   UNL     1       2.333   1.708  17.817  0.00  0.00    +0.000 OA
ATOM     21  H   UNL     1       1.964   0.829  17.600  0.00  0.00    +0.000 HD
ENDBRANCH  19  20
ENDBRANCH  17  19
ENDBRANCH   4  14
BRANCH  10  22
ATOM     22  O   UNL     1       5.424   7.284  15.824  0.00  0.00    +0.000 OA
ATOM     23  H   UNL     1       4.626   7.754  16.125  0.00  0.00    +0.000 HD
ENDBRANCH  10  22
BRANCH   1  24
ATOM     24  C   UNL     1       2.637   7.627  17.208  0.00  0.00    +0.000 C 
BRANCH  24  26
ATOM     25  C   UNL     1       1.517   9.657  18.178  0.00  0.00    +0.000 C 
ATOM     26  C   UNL     1       2.541   8.797  18.140  0.00  0.00    +0.000 C 
ENDBRANCH  24  26
ENDBRANCH   1  24
TORSDOF 6
ENDMDL
