MODEL 1
REMARK VINA RESULT:      -9.0      0.000      0.000
REMARK  Name = 
REMARK  9 active torsions:
REMARK  status: ('A' for Active; 'I' for Inactive)
REMARK    1  A    between atoms: C_2  and  C_3
REMARK    2  A    between atoms: C_4  and  C_5
REMARK    3  A    between atoms: N_7  and  C_8
REMARK    4  A    between atoms: C_12  and  C_13
REMARK    5  A    between atoms: C_13  and  C_15
REMARK    6  A    between atoms: C_19  and  C_20
REMARK    7  A    between atoms: C_21  and  C_22
REMARK    8  A    between atoms: N_33  and  C_34
REMARK    9  A    between atoms: C_34  and  C_35
REMARK                            x       y       z     vdW  Elec       q    Type
REMARK                         _______ _______ _______ _____ _____    ______ ____
ROOT
ATOM      1  C   UNL     1      -0.965  10.563  18.092  0.00  0.00    +0.000 A 
ATOM      2  C   UNL     1      -0.844  11.834  18.668  0.00  0.00    +0.000 A 
ATOM      3  C   UNL     1      -0.113  12.033  19.839  0.00  0.00    +0.000 A 
ATOM      4  C   UNL     1       0.526  10.960  20.444  0.00  0.00    +0.000 A 
ATOM      5  C   UNL     1       0.423   9.679  19.889  0.00  0.00    +0.000 A 
ATOM      6  C   UNL     1      -0.364   9.473  18.739  0.00  0.00    +0.000 A 
ENDROOT
BRANCH   1   9
ATOM      7  C   UNL     1      -3.029  10.063  16.798  0.00  0.00    +0.000 C 
ATOM      8  O   UNL     1      -3.812  10.022  17.743  0.00  0.00    +0.000 OA
ATOM      9  N   UNL     1      -1.675  10.345  16.877  0.00  0.00    +0.000 N 
ATOM     10  H   UNL     1      -1.169  10.503  16.016  0.00  0.00    +0.000 HD
BRANCH   7  12
ATOM     11  C   UNL     1      -2.644   9.934  14.412  0.00  0.00    +0.000 C 
ATOM     12  C   UNL     1      -3.540   9.851  15.416  0.00  0.00    +0.000 C 
BRANCH  11  14
ATOM     13  O   UNL     1      -2.321   9.206  12.182  0.00  0.00    +0.000 OA
ATOM     14  C   UNL     1      -3.042   9.770  12.995  0.00  0.00    +0.000 C 
ATOM     15  N   UNL     1      -4.277  10.311  12.705  0.00  0.00    +0.000 N 
ATOM     16  H   UNL     1      -4.801  10.810  13.408  0.00  0.00    +0.000 HD
BRANCH  15  17
ATOM     17  C   UNL     1      -4.794  10.263  11.357  0.00  0.00    +0.000 C 
BRANCH  17  18
ATOM     18  C   UNL     1      -5.793   9.159  11.180  0.00  0.00    +0.000 C 
ATOM     19  C   UNL     1      -6.627   8.596  12.307  0.00  0.00    +0.000 C 
ATOM     20  C   UNL     1      -7.264   9.490  11.282  0.00  0.00    +0.000 C 
ENDBRANCH  17  18
ENDBRANCH  15  17
ENDBRANCH  11  14
ENDBRANCH   7  12
ENDBRANCH   1   9
BRANCH   5  21
ATOM     21  C   UNL     1       1.151   8.591  20.595  0.00  0.00    +0.000 C 
ATOM     22  O   UNL     1       1.090   8.540  21.823  0.00  0.00    +0.000 OA
BRANCH  21  23
ATOM     23  C   UNL     1       1.963   7.566  19.891  0.00  0.00    +0.000 A 
ATOM     24  C   UNL     1       2.518   7.931  18.657  0.00  0.00    +0.000 A 
ATOM     25  C   UNL     1       3.312   7.038  17.928  0.00  0.00    +0.000 A 
ATOM     26  C   UNL     1       3.546   5.750  18.450  0.00  0.00    +0.000 A 
ATOM     27  C   UNL     1       4.321   4.610  18.082  0.00  0.00    +0.000 A 
ATOM     28  N   UNL     1       4.157   3.603  18.956  0.00  0.00    +0.000 NA
ATOM     29  N   UNL     1       3.318   4.099  19.875  0.00  0.00    +0.000 N 
ATOM     30  C   UNL     1       2.938   5.395  19.652  0.00  0.00    +0.000 A 
ATOM     31  C   UNL     1       2.130   6.267  20.396  0.00  0.00    +0.000 A 
ATOM     32  H   UNL     1       3.064   3.504  20.654  0.00  0.00    +0.000 HD
BRANCH  27  33
ATOM     33  C   UNL     1       5.244   4.567  16.977  0.00  0.00    +0.000 C 
ATOM     34  C   UNL     1       4.887   4.831  15.711  0.00  0.00    +0.000 C 
BRANCH  34  35
ATOM     35  C   UNL     1       5.686   4.610  14.496  0.00  0.00    +0.000 A 
ATOM     36  C   UNL     1       5.131   3.773  13.520  0.00  0.00    +0.000 A 
ATOM     37  C   UNL     1       5.826   3.462  12.350  0.00  0.00    +0.000 A 
ATOM     38  C   UNL     1       7.090   4.003  12.136  0.00  0.00    +0.000 A 
ATOM     39  C   UNL     1       7.648   4.858  13.085  0.00  0.00    +0.000 A 
ATOM     40  C   UNL     1       6.949   5.165  14.259  0.00  0.00    +0.000 A 
ENDBRANCH  34  35
ENDBRANCH  27  33
ENDBRANCH  21  23
ENDBRANCH   5  21
TORSDOF 9
ENDMDL
MODEL 2
REMARK VINA RESULT:      -8.9      1.039      1.583
REMARK  Name = 
REMARK  9 active torsions:
REMARK  status: ('A' for Active; 'I' for Inactive)
REMARK    1  A    between atoms: C_2  and  C_3
REMARK    2  A    between atoms: C_4  and  C_5
REMARK    3  A    between atoms: N_7  and  C_8
REMARK    4  A    between atoms: C_12  and  C_13
REMARK    5  A    between atoms: C_13  and  C_15
REMARK    6  A    between atoms: C_19  and  C_20
REMARK    7  A    between atoms: C_21  and  C_22
REMARK    8  A    between atoms: N_33  and  C_34
REMARK    9  A    between atoms: C_34  and  C_35
REMARK                            x       y       z     vdW  Elec       q    Type
REMARK                         _______ _______ _______ _____ _____    ______ ____
ROOT
ATOM      1  C   UNL     1      -1.389  11.277  18.581  0.00  0.00    +0.000 A 
ATOM      2  C   UNL     1      -1.984  12.222  19.427  0.00  0.00    +0.000 A 
ATOM      3  C   UNL     1      -1.662  12.285  20.783  0.00  0.00    +0.000 A 
ATOM      4  C   UNL     1      -0.722  11.411  21.310  0.00  0.00    +0.000 A 
ATOM      5  C   UNL     1      -0.112  10.458  20.486  0.00  0.00    +0.000 A 
ATOM      6  C   UNL     1      -0.482  10.360  19.131  0.00  0.00    +0.000 A 
ENDROOT
BRANCH   1   9
ATOM      7  C   UNL     1      -2.864  10.757  16.646  0.00  0.00    +0.000 C 
ATOM      8  O   UNL     1      -3.849  10.391  17.282  0.00  0.00    +0.000 OA
ATOM      9  N   UNL     1      -1.676  11.221  17.187  0.00  0.00    +0.000 N 
ATOM     10  H   UNL     1      -0.998  11.638  16.562  0.00  0.00    +0.000 HD
BRANCH   7  12
ATOM     11  C   UNL     1      -3.559   9.749  14.559  0.00  0.00    +0.000 C 
ATOM     12  C   UNL     1      -2.919  10.773  15.159  0.00  0.00    +0.000 C 
BRANCH  11  14
ATOM     13  O   UNL     1      -2.664   9.494  12.382  0.00  0.00    +0.000 OA
ATOM     14  C   UNL     1      -3.654   9.644  13.085  0.00  0.00    +0.000 C 
ATOM     15  N   UNL     1      -4.945   9.734  12.610  0.00  0.00    +0.000 N 
ATOM     16  H   UNL     1      -5.717   9.911  13.238  0.00  0.00    +0.000 HD
BRANCH  15  17
ATOM     17  C   UNL     1      -5.205   9.684  11.190  0.00  0.00    +0.000 C 
BRANCH  17  18
ATOM     18  C   UNL     1      -6.671   9.737  10.887  0.00  0.00    +0.000 C 
ATOM     19  C   UNL     1      -7.732   9.127  11.773  0.00  0.00    +0.000 C 
ATOM     20  C   UNL     1      -7.556  10.618  11.739  0.00  0.00    +0.000 C 
ENDBRANCH  17  18
ENDBRANCH  15  17
ENDBRANCH  11  14
ENDBRANCH   7  12
ENDBRANCH   1   9
BRANCH   5  21
ATOM     21  C   UNL     1       0.894   9.571  21.132  0.00  0.00    +0.000 C 
ATOM     22  O   UNL     1       1.351   9.898  22.227  0.00  0.00    +0.000 OA
BRANCH  21  23
ATOM     23  C   UNL     1       1.385   8.314  20.514  0.00  0.00    +0.000 A 
ATOM     24  C   UNL     1       1.871   8.396  19.203  0.00  0.00    +0.000 A 
ATOM     25  C   UNL     1       2.372   7.268  18.543  0.00  0.00    +0.000 A 
ATOM     26  C   UNL     1       2.376   6.030  19.217  0.00  0.00    +0.000 A 
ATOM     27  C   UNL     1       2.844   4.709  18.949  0.00  0.00    +0.000 A 
ATOM     28  N   UNL     1       2.561   3.874  19.963  0.00  0.00    +0.000 NA
ATOM     29  N   UNL     1       1.952   4.652  20.869  0.00  0.00    +0.000 N 
ATOM     30  C   UNL     1       1.838   5.965  20.500  0.00  0.00    +0.000 A 
ATOM     31  C   UNL     1       1.322   7.079  21.179  0.00  0.00    +0.000 A 
ATOM     32  H   UNL     1       1.660   4.225  21.740  0.00  0.00    +0.000 HD
BRANCH  27  33
ATOM     33  C   UNL     1       3.612   4.328  17.792  0.00  0.00    +0.000 C 
ATOM     34  C   UNL     1       4.778   4.906  17.462  0.00  0.00    +0.000 C 
BRANCH  34  35
ATOM     35  C   UNL     1       5.526   4.746  16.206  0.00  0.00    +0.000 A 
ATOM     36  C   UNL     1       6.821   5.279  16.172  0.00  0.00    +0.000 A 
ATOM     37  C   UNL     1       7.599   5.222  15.015  0.00  0.00    +0.000 A 
ATOM     38  C   UNL     1       7.090   4.611  13.873  0.00  0.00    +0.000 A 
ATOM     39  C   UNL     1       5.812   4.054  13.895  0.00  0.00    +0.000 A 
ATOM     40  C   UNL     1       5.033   4.117  15.057  0.00  0.00    +0.000 A 
ENDBRANCH  34  35
ENDBRANCH  27  33
ENDBRANCH  21  23
ENDBRANCH   5  21
TORSDOF 9
ENDMDL
MODEL 3
REMARK VINA RESULT:      -8.8      5.517     12.143
REMARK  Name = 
REMARK  9 active torsions:
REMARK  status: ('A' for Active; 'I' for Inactive)
REMARK    1  A    between atoms: C_2  and  C_3
REMARK    2  A    between atoms: C_4  and  C_5
REMARK    3  A    between atoms: N_7  and  C_8
REMARK    4  A    between atoms: C_12  and  C_13
REMARK    5  A    between atoms: C_13  and  C_15
REMARK    6  A    between atoms: C_19  and  C_20
REMARK    7  A    between atoms: C_21  and  C_22
REMARK    8  A    between atoms: N_33  and  C_34
REMARK    9  A    between atoms: C_34  and  C_35
REMARK                            x       y       z     vdW  Elec       q    Type
REMARK                         _______ _______ _______ _____ _____    ______ ____
ROOT
ATOM      1  C   UNL     1       6.142   6.789  17.093  0.00  0.00    +0.000 A 
ATOM      2  C   UNL     1       6.261   5.647  16.290  0.00  0.00    +0.000 A 
ATOM      3  C   UNL     1       5.272   4.664  16.277  0.00  0.00    +0.000 A 
ATOM      4  C   UNL     1       4.135   4.819  17.057  0.00  0.00    +0.000 A 
ATOM      5  C   UNL     1       3.991   5.950  17.869  0.00  0.00    +0.000 A 
ATOM      6  C   UNL     1       5.018   6.912  17.922  0.00  0.00    +0.000 A 
ENDROOT
BRANCH   1   9
ATOM      7  C   UNL     1       8.090   7.988  18.070  0.00  0.00    +0.000 C 
ATOM      8  O   UNL     1       8.278   7.244  19.030  0.00  0.00    +0.000 OA
ATOM      9  N   UNL     1       7.123   7.821  17.093  0.00  0.00    +0.000 N 
ATOM     10  H   UNL     1       7.168   8.410  16.271  0.00  0.00    +0.000 HD
BRANCH   7  12
ATOM     11  C   UNL     1       8.921  10.150  18.772  0.00  0.00    +0.000 C 
ATOM     12  C   UNL     1       8.990   9.155  17.864  0.00  0.00    +0.000 C 
BRANCH  11  14
ATOM     13  O   UNL     1       9.711  12.085  17.660  0.00  0.00    +0.000 OA
ATOM     14  C   UNL     1       9.747  11.373  18.655  0.00  0.00    +0.000 C 
ATOM     15  N   UNL     1      10.538  11.609  19.759  0.00  0.00    +0.000 N 
ATOM     16  H   UNL     1      10.562  10.955  20.528  0.00  0.00    +0.000 HD
BRANCH  15  17
ATOM     17  C   UNL     1      11.429  12.745  19.787  0.00  0.00    +0.000 C 
BRANCH  17  18
ATOM     18  C   UNL     1      10.683  14.038  19.922  0.00  0.00    +0.000 C 
ATOM     19  C   UNL     1      10.550  14.797  21.223  0.00  0.00    +0.000 C 
ATOM     20  C   UNL     1      11.470  15.308  20.151  0.00  0.00    +0.000 C 
ENDBRANCH  17  18
ENDBRANCH  15  17
ENDBRANCH  11  14
ENDBRANCH   7  12
ENDBRANCH   1   9
BRANCH   5  21
ATOM     21  C   UNL     1       2.735   6.041  18.661  0.00  0.00    +0.000 C 
ATOM     22  O   UNL     1       2.190   4.998  19.024  0.00  0.00    +0.000 OA
BRANCH  21  23
ATOM     23  C   UNL     1       2.095   7.330  19.027  0.00  0.00    +0.000 A 
ATOM     24  C   UNL     1       1.604   7.448  20.335  0.00  0.00    +0.000 A 
ATOM     25  C   UNL     1       1.001   8.631  20.778  0.00  0.00    +0.000 A 
ATOM     26  C   UNL     1       0.887   9.714  19.884  0.00  0.00    +0.000 A 
ATOM     27  C   UNL     1       0.427  11.064  19.948  0.00  0.00    +0.000 A 
ATOM     28  N   UNL     1       0.526  11.672  18.754  0.00  0.00    +0.000 NA
ATOM     29  N   UNL     1       1.061  10.741  17.954  0.00  0.00    +0.000 N 
ATOM     30  C   UNL     1       1.335   9.552  18.574  0.00  0.00    +0.000 A 
ATOM     31  C   UNL     1       1.933   8.374  18.103  0.00  0.00    +0.000 A 
ATOM     32  H   UNL     1       1.243  10.992  16.990  0.00  0.00    +0.000 HD
BRANCH  27  33
ATOM     33  C   UNL     1       0.008  11.732  21.153  0.00  0.00    +0.000 C 
ATOM     34  C   UNL     1      -1.268  11.768  21.567  0.00  0.00    +0.000 C 
BRANCH  34  35
ATOM     35  C   UNL     1      -1.830  12.590  22.649  0.00  0.00    +0.000 A 
ATOM     36  C   UNL     1      -3.053  12.172  23.188  0.00  0.00    +0.000 A 
ATOM     37  C   UNL     1      -3.695  12.905  24.187  0.00  0.00    +0.000 A 
ATOM     38  C   UNL     1      -3.106  14.067  24.674  0.00  0.00    +0.000 A 
ATOM     39  C   UNL     1      -1.876  14.486  24.167  0.00  0.00    +0.000 A 
ATOM     40  C   UNL     1      -1.237  13.749  23.162  0.00  0.00    +0.000 A 
ENDBRANCH  34  35
ENDBRANCH  27  33
ENDBRANCH  21  23
ENDBRANCH   5  21
TORSDOF 9
ENDMDL
MODEL 4
REMARK VINA RESULT:      -8.6      6.109      9.368
REMARK  Name = 
REMARK  9 active torsions:
REMARK  status: ('A' for Active; 'I' for Inactive)
REMARK    1  A    between atoms: C_2  and  C_3
REMARK    2  A    between atoms: C_4  and  C_5
REMARK    3  A    between atoms: N_7  and  C_8
REMARK    4  A    between atoms: C_12  and  C_13
REMARK    5  A    between atoms: C_13  and  C_15
REMARK    6  A    between atoms: C_19  and  C_20
REMARK    7  A    between atoms: C_21  and  C_22
REMARK    8  A    between atoms: N_33  and  C_34
REMARK    9  A    between atoms: C_34  and  C_35
REMARK                            x       y       z     vdW  Elec       q    Type
REMARK                         _______ _______ _______ _____ _____    ______ ____
ROOT
ATOM      1  C   UNL     1       0.348  10.686  18.929  0.00  0.00    +0.000 A 
ATOM      2  C   UNL     1      -0.962  10.710  18.435  0.00  0.00    +0.000 A 
ATOM      3  C   UNL     1      -1.589  11.910  18.100  0.00  0.00    +0.000 A 
ATOM      4  C   UNL     1      -0.903  13.108  18.238  0.00  0.00    +0.000 A 
ATOM      5  C   UNL     1       0.408  13.113  18.729  0.00  0.00    +0.000 A 
ATOM      6  C   UNL     1       1.016  11.904  19.120  0.00  0.00    +0.000 A 
ENDROOT
BRANCH   1   9
ATOM      7  C   UNL     1       1.859   8.789  18.375  0.00  0.00    +0.000 C 
ATOM      8  O   UNL     1       2.190   9.162  17.253  0.00  0.00    +0.000 OA
ATOM      9  N   UNL     1       1.019   9.469  19.242  0.00  0.00    +0.000 N 
ATOM     10  H   UNL     1       0.947   9.138  20.194  0.00  0.00    +0.000 HD
BRANCH   7  12
ATOM     11  C   UNL     1       2.526   6.482  18.072  0.00  0.00    +0.000 C 
ATOM     12  C   UNL     1       2.426   7.526  18.921  0.00  0.00    +0.000 C 
BRANCH  11  14
ATOM     13  O   UNL     1       4.185   5.035  18.944  0.00  0.00    +0.000 OA
ATOM     14  C   UNL     1       3.048   5.168  18.510  0.00  0.00    +0.000 C 
ATOM     15  N   UNL     1       2.137   4.142  18.372  0.00  0.00    +0.000 N 
ATOM     16  H   UNL     1       1.231   4.306  17.957  0.00  0.00    +0.000 HD
BRANCH  15  17
ATOM     17  C   UNL     1       2.504   2.790  18.723  0.00  0.00    +0.000 C 
BRANCH  17  18
ATOM     18  C   UNL     1       1.850   2.344  19.996  0.00  0.00    +0.000 C 
ATOM     19  C   UNL     1       2.357   2.713  21.371  0.00  0.00    +0.000 C 
ATOM     20  C   UNL     1       1.119   3.370  20.831  0.00  0.00    +0.000 C 
ENDBRANCH  17  18
ENDBRANCH  15  17
ENDBRANCH  11  14
ENDBRANCH   7  12
ENDBRANCH   1   9
BRANCH   5  21
ATOM     21  C   UNL     1       1.071  14.441  18.831  0.00  0.00    +0.000 C 
ATOM     22  O   UNL     1       0.388  15.454  18.688  0.00  0.00    +0.000 OA
BRANCH  21  23
ATOM     23  C   UNL     1       2.525  14.606  19.086  0.00  0.00    +0.000 A 
ATOM     24  C   UNL     1       3.389  14.397  18.002  0.00  0.00    +0.000 A 
ATOM     25  C   UNL     1       4.774  14.547  18.140  0.00  0.00    +0.000 A 
ATOM     26  C   UNL     1       5.298  14.907  19.397  0.00  0.00    +0.000 A 
ATOM     27  C   UNL     1       6.585  15.222  19.929  0.00  0.00    +0.000 A 
ATOM     28  N   UNL     1       6.520  15.484  21.245  0.00  0.00    +0.000 NA
ATOM     29  N   UNL     1       5.219  15.366  21.540  0.00  0.00    +0.000 N 
ATOM     30  C   UNL     1       4.423  15.055  20.470  0.00  0.00    +0.000 A 
ATOM     31  C   UNL     1       3.033  14.901  20.360  0.00  0.00    +0.000 A 
ATOM     32  H   UNL     1       4.932  15.541  22.495  0.00  0.00    +0.000 HD
BRANCH  27  33
ATOM     33  C   UNL     1       7.788  15.347  19.147  0.00  0.00    +0.000 C 
ATOM     34  C   UNL     1       8.437  14.296  18.625  0.00  0.00    +0.000 C 
BRANCH  34  35
ATOM     35  C   UNL     1       9.770  14.291  18.003  0.00  0.00    +0.000 A 
ATOM     36  C   UNL     1      10.282  13.046  17.619  0.00  0.00    +0.000 A 
ATOM     37  C   UNL     1      11.556  12.926  17.061  0.00  0.00    +0.000 A 
ATOM     38  C   UNL     1      12.332  14.064  16.866  0.00  0.00    +0.000 A 
ATOM     39  C   UNL     1      11.829  15.316  17.220  0.00  0.00    +0.000 A 
ATOM     40  C   UNL     1      10.552  15.431  17.782  0.00  0.00    +0.000 A 
ENDBRANCH  34  35
ENDBRANCH  27  33
ENDBRANCH  21  23
ENDBRANCH   5  21
TORSDOF 9
ENDMDL
MODEL 5
REMARK VINA RESULT:      -8.4      5.095      9.455
REMARK  Name = 
REMARK  9 active torsions:
REMARK  status: ('A' for Active; 'I' for Inactive)
REMARK    1  A    between atoms: C_2  and  C_3
REMARK    2  A    between atoms: C_4  and  C_5
REMARK    3  A    between atoms: N_7  and  C_8
REMARK    4  A    between atoms: C_12  and  C_13
REMARK    5  A    between atoms: C_13  and  C_15
REMARK    6  A    between atoms: C_19  and  C_20
REMARK    7  A    between atoms: C_21  and  C_22
REMARK    8  A    between atoms: N_33  and  C_34
REMARK    9  A    between atoms: C_34  and  C_35
REMARK                            x       y       z     vdW  Elec       q    Type
REMARK                         _______ _______ _______ _____ _____    ______ ____
ROOT
ATOM      1  C   UNL     1       0.538   9.311  21.717  0.00  0.00    +0.000 A 
ATOM      2  C   UNL     1      -0.172   9.396  22.921  0.00  0.00    +0.000 A 
ATOM      3  C   UNL     1      -0.922  10.526  23.243  0.00  0.00    +0.000 A 
ATOM      4  C   UNL     1      -0.989  11.587  22.350  0.00  0.00    +0.000 A 
ATOM      5  C   UNL     1      -0.289  11.528  21.139  0.00  0.00    +0.000 A 
ATOM      6  C   UNL     1       0.514  10.409  20.844  0.00  0.00    +0.000 A 
ENDROOT
BRANCH   1   9
ATOM      7  C   UNL     1       1.739   7.879  20.075  0.00  0.00    +0.000 C 
ATOM      8  O   UNL     1       1.628   8.617  19.099  0.00  0.00    +0.000 OA
ATOM      9  N   UNL     1       1.280   8.151  21.353  0.00  0.00    +0.000 N 
ATOM     10  H   UNL     1       1.569   7.538  22.104  0.00  0.00    +0.000 HD
BRANCH   7  12
ATOM     11  C   UNL     1       2.980   6.303  18.721  0.00  0.00    +0.000 C 
ATOM     12  C   UNL     1       2.472   6.592  19.937  0.00  0.00    +0.000 C 
BRANCH  11  14
ATOM     13  O   UNL     1       3.934   4.228  19.345  0.00  0.00    +0.000 OA
ATOM     14  C   UNL     1       3.703   5.038  18.458  0.00  0.00    +0.000 C 
ATOM     15  N   UNL     1       4.078   4.885  17.140  0.00  0.00    +0.000 N 
ATOM     16  H   UNL     1       3.904   5.614  16.464  0.00  0.00    +0.000 HD
BRANCH  15  17
ATOM     17  C   UNL     1       4.822   3.718  16.725  0.00  0.00    +0.000 C 
BRANCH  17  18
ATOM     18  C   UNL     1       6.012   4.082  15.889  0.00  0.00    +0.000 C 
ATOM     19  C   UNL     1       6.072   3.890  14.391  0.00  0.00    +0.000 C 
ATOM     20  C   UNL     1       5.908   5.270  14.960  0.00  0.00    +0.000 C 
ENDBRANCH  17  18
ENDBRANCH  15  17
ENDBRANCH  11  14
ENDBRANCH   7  12
ENDBRANCH   1   9
BRANCH   5  21
ATOM     21  C   UNL     1      -0.429  12.703  20.237  0.00  0.00    +0.000 C 
ATOM     22  O   UNL     1      -1.541  12.970  19.783  0.00  0.00    +0.000 OA
BRANCH  21  23
ATOM     23  C   UNL     1       0.714  13.567  19.845  0.00  0.00    +0.000 A 
ATOM     24  C   UNL     1       1.991  13.154  20.248  0.00  0.00    +0.000 A 
ATOM     25  C   UNL     1       3.132  13.893  19.911  0.00  0.00    +0.000 A 
ATOM     26  C   UNL     1       2.980  15.074  19.158  0.00  0.00    +0.000 A 
ATOM     27  C   UNL     1       3.847  16.041  18.565  0.00  0.00    +0.000 A 
ATOM     28  N   UNL     1       3.150  17.015  17.956  0.00  0.00    +0.000 NA
ATOM     29  N   UNL     1       1.870  16.664  18.133  0.00  0.00    +0.000 N 
ATOM     30  C   UNL     1       1.695  15.491  18.817  0.00  0.00    +0.000 A 
ATOM     31  C   UNL     1       0.537  14.774  19.151  0.00  0.00    +0.000 A 
ATOM     32  H   UNL     1       1.155  17.259  17.732  0.00  0.00    +0.000 HD
BRANCH  27  33
ATOM     33  C   UNL     1       5.283  15.943  18.528  0.00  0.00    +0.000 C 
ATOM     34  C   UNL     1       5.940  15.102  17.714  0.00  0.00    +0.000 C 
BRANCH  34  35
ATOM     35  C   UNL     1       7.373  14.771  17.745  0.00  0.00    +0.000 A 
ATOM     36  C   UNL     1       7.708  13.414  17.656  0.00  0.00    +0.000 A 
ATOM     37  C   UNL     1       9.036  12.989  17.722  0.00  0.00    +0.000 A 
ATOM     38  C   UNL     1      10.053  13.927  17.864  0.00  0.00    +0.000 A 
ATOM     39  C   UNL     1       9.740  15.284  17.931  0.00  0.00    +0.000 A 
ATOM     40  C   UNL     1       8.407  15.707  17.867  0.00  0.00    +0.000 A 
ENDBRANCH  34  35
ENDBRANCH  27  33
ENDBRANCH  21  23
ENDBRANCH   5  21
TORSDOF 9
ENDMDL
MODEL 6
REMARK VINA RESULT:      -8.4      5.262     11.599
REMARK  Name = 
REMARK  9 active torsions:
REMARK  status: ('A' for Active; 'I' for Inactive)
REMARK    1  A    between atoms: C_2  and  C_3
REMARK    2  A    between atoms: C_4  and  C_5
REMARK    3  A    between atoms: N_7  and  C_8
REMARK    4  A    between atoms: C_12  and  C_13
REMARK    5  A    between atoms: C_13  and  C_15
REMARK    6  A    between atoms: C_19  and  C_20
REMARK    7  A    between atoms: C_21  and  C_22
REMARK    8  A    between atoms: N_33  and  C_34
REMARK    9  A    between atoms: C_34  and  C_35
REMARK                            x       y       z     vdW  Elec       q    Type
REMARK                         _______ _______ _______ _____ _____    ______ ____
ROOT
ATOM      1  C   UNL     1       6.225   6.595  16.917  0.00  0.00    +0.000 A 
ATOM      2  C   UNL     1       6.480   5.408  16.219  0.00  0.00    +0.000 A 
ATOM      3  C   UNL     1       5.527   4.392  16.143  0.00  0.00    +0.000 A 
ATOM      4  C   UNL     1       4.292   4.558  16.753  0.00  0.00    +0.000 A 
ATOM      5  C   UNL     1       4.011   5.734  17.457  0.00  0.00    +0.000 A 
ATOM      6  C   UNL     1       4.996   6.733  17.580  0.00  0.00    +0.000 A 
ENDROOT
BRANCH   1   9
ATOM      7  C   UNL     1       8.071   7.855  18.008  0.00  0.00    +0.000 C 
ATOM      8  O   UNL     1       8.226   7.117  18.977  0.00  0.00    +0.000 OA
ATOM      9  N   UNL     1       7.169   7.659  16.975  0.00  0.00    +0.000 N 
ATOM     10  H   UNL     1       7.244   8.250  16.158  0.00  0.00    +0.000 HD
BRANCH   7  12
ATOM     11  C   UNL     1       8.987   9.913  18.892  0.00  0.00    +0.000 C 
ATOM     12  C   UNL     1       8.942   9.052  17.855  0.00  0.00    +0.000 C 
BRANCH  11  14
ATOM     13  O   UNL     1       9.923  11.802  17.814  0.00  0.00    +0.000 OA
ATOM     14  C   UNL     1       9.797  11.152  18.843  0.00  0.00    +0.000 C 
ATOM     15  N   UNL     1      10.376  11.477  20.051  0.00  0.00    +0.000 N 
ATOM     16  H   UNL     1      10.277  10.871  20.853  0.00  0.00    +0.000 HD
BRANCH  15  17
ATOM     17  C   UNL     1      11.225  12.640  20.162  0.00  0.00    +0.000 C 
BRANCH  17  18
ATOM     18  C   UNL     1      10.490  13.819  20.725  0.00  0.00    +0.000 C 
ATOM     19  C   UNL     1       8.995  14.008  20.606  0.00  0.00    +0.000 C 
ATOM     20  C   UNL     1       9.594  13.608  21.924  0.00  0.00    +0.000 C 
ENDBRANCH  17  18
ENDBRANCH  15  17
ENDBRANCH  11  14
ENDBRANCH   7  12
ENDBRANCH   1   9
BRANCH   5  21
ATOM     21  C   UNL     1       2.657   5.832  18.068  0.00  0.00    +0.000 C 
ATOM     22  O   UNL     1       1.899   4.867  17.979  0.00  0.00    +0.000 OA
BRANCH  21  23
ATOM     23  C   UNL     1       2.169   7.046  18.771  0.00  0.00    +0.000 A 
ATOM     24  C   UNL     1       1.880   8.166  17.980  0.00  0.00    +0.000 A 
ATOM     25  C   UNL     1       1.398   9.350  18.550  0.00  0.00    +0.000 A 
ATOM     26  C   UNL     1       1.208   9.407  19.945  0.00  0.00    +0.000 A 
ATOM     27  C   UNL     1       0.689  10.352  20.881  0.00  0.00    +0.000 A 
ATOM     28  N   UNL     1       0.764   9.887  22.139  0.00  0.00    +0.000 NA
ATOM     29  N   UNL     1       1.294   8.664  22.007  0.00  0.00    +0.000 N 
ATOM     30  C   UNL     1       1.554   8.297  20.714  0.00  0.00    +0.000 A 
ATOM     31  C   UNL     1       2.048   7.104  20.168  0.00  0.00    +0.000 A 
ATOM     32  H   UNL     1       1.428   8.112  22.846  0.00  0.00    +0.000 HD
BRANCH  27  33
ATOM     33  C   UNL     1       0.066  11.601  20.527  0.00  0.00    +0.000 C 
ATOM     34  C   UNL     1       0.726  12.769  20.503  0.00  0.00    +0.000 C 
BRANCH  34  35
ATOM     35  C   UNL     1       0.148  14.115  20.367  0.00  0.00    +0.000 A 
ATOM     36  C   UNL     1      -0.030  14.595  19.063  0.00  0.00    +0.000 A 
ATOM     37  C   UNL     1      -0.528  15.877  18.824  0.00  0.00    +0.000 A 
ATOM     38  C   UNL     1      -0.871  16.694  19.897  0.00  0.00    +0.000 A 
ATOM     39  C   UNL     1      -0.724  16.224  21.201  0.00  0.00    +0.000 A 
ATOM     40  C   UNL     1      -0.220  14.938  21.437  0.00  0.00    +0.000 A 
ENDBRANCH  34  35
ENDBRANCH  27  33
ENDBRANCH  21  23
ENDBRANCH   5  21
TORSDOF 9
ENDMDL
MODEL 7
REMARK VINA RESULT:      -8.3      5.876     11.962
REMARK  Name = 
REMARK  9 active torsions:
REMARK  status: ('A' for Active; 'I' for Inactive)
REMARK    1  A    between atoms: C_2  and  C_3
REMARK    2  A    between atoms: C_4  and  C_5
REMARK    3  A    between atoms: N_7  and  C_8
REMARK    4  A    between atoms: C_12  and  C_13
REMARK    5  A    between atoms: C_13  and  C_15
REMARK    6  A    between atoms: C_19  and  C_20
REMARK    7  A    between atoms: C_21  and  C_22
REMARK    8  A    between atoms: N_33  and  C_34
REMARK    9  A    between atoms: C_34  and  C_35
REMARK                            x       y       z     vdW  Elec       q    Type
REMARK                         _______ _______ _______ _____ _____    ______ ____
ROOT
ATOM      1  C   UNL     1       6.940   7.510  17.463  0.00  0.00    +0.000 A 
ATOM      2  C   UNL     1       7.627   6.340  17.116  0.00  0.00    +0.000 A 
ATOM      3  C   UNL     1       7.011   5.090  17.179  0.00  0.00    +0.000 A 
ATOM      4  C   UNL     1       5.684   4.996  17.576  0.00  0.00    +0.000 A 
ATOM      5  C   UNL     1       4.974   6.149  17.928  0.00  0.00    +0.000 A 
ATOM      6  C   UNL     1       5.618   7.402  17.917  0.00  0.00    +0.000 A 
ENDROOT
BRANCH   1   9
ATOM      7  C   UNL     1       8.462   9.304  18.271  0.00  0.00    +0.000 C 
ATOM      8  O   UNL     1       8.934   8.701  19.231  0.00  0.00    +0.000 OA
ATOM      9  N   UNL     1       7.540   8.798  17.370  0.00  0.00    +0.000 N 
ATOM     10  H   UNL     1       7.346   9.334  16.534  0.00  0.00    +0.000 HD
BRANCH   7  12
ATOM     11  C   UNL     1      10.226  10.960  18.225  0.00  0.00    +0.000 C 
ATOM     12  C   UNL     1       8.929  10.685  17.975  0.00  0.00    +0.000 C 
BRANCH  11  14
ATOM     13  O   UNL     1      11.754  12.486  17.254  0.00  0.00    +0.000 OA
ATOM     14  C   UNL     1      10.797  12.307  17.996  0.00  0.00    +0.000 C 
ATOM     15  N   UNL     1      10.150  13.303  18.695  0.00  0.00    +0.000 N 
ATOM     16  H   UNL     1       9.398  13.084  19.333  0.00  0.00    +0.000 HD
BRANCH  15  17
ATOM     17  C   UNL     1      10.608  14.670  18.606  0.00  0.00    +0.000 C 
BRANCH  17  18
ATOM     18  C   UNL     1       9.685  15.517  17.783  0.00  0.00    +0.000 C 
ATOM     19  C   UNL     1       9.234  16.902  18.188  0.00  0.00    +0.000 C 
ATOM     20  C   UNL     1      10.247  16.738  17.091  0.00  0.00    +0.000 C 
ENDBRANCH  17  18
ENDBRANCH  15  17
ENDBRANCH  11  14
ENDBRANCH   7  12
ENDBRANCH   1   9
BRANCH   5  21
ATOM     21  C   UNL     1       3.554   5.955  18.327  0.00  0.00    +0.000 C 
ATOM     22  O   UNL     1       3.091   4.815  18.327  0.00  0.00    +0.000 OA
BRANCH  21  23
ATOM     23  C   UNL     1       2.658   7.075  18.715  0.00  0.00    +0.000 A 
ATOM     24  C   UNL     1       2.154   7.062  20.023  0.00  0.00    +0.000 A 
ATOM     25  C   UNL     1       1.317   8.084  20.486  0.00  0.00    +0.000 A 
ATOM     26  C   UNL     1       0.977   9.136  19.612  0.00  0.00    +0.000 A 
ATOM     27  C   UNL     1       0.244  10.358  19.700  0.00  0.00    +0.000 A 
ATOM     28  N   UNL     1       0.211  10.995  18.518  0.00  0.00    +0.000 NA
ATOM     29  N   UNL     1       0.929  10.212  17.702  0.00  0.00    +0.000 N 
ATOM     30  C   UNL     1       1.447   9.095  18.301  0.00  0.00    +0.000 A 
ATOM     31  C   UNL     1       2.279   8.078  17.810  0.00  0.00    +0.000 A 
ATOM     32  H   UNL     1       1.053  10.514  16.743  0.00  0.00    +0.000 HD
BRANCH  27  33
ATOM     33  C   UNL     1      -0.305  10.900  20.916  0.00  0.00    +0.000 C 
ATOM     34  C   UNL     1      -1.187  11.911  20.936  0.00  0.00    +0.000 C 
BRANCH  34  35
ATOM     35  C   UNL     1      -1.641  12.673  22.109  0.00  0.00    +0.000 A 
ATOM     36  C   UNL     1      -0.814  13.717  22.541  0.00  0.00    +0.000 A 
ATOM     37  C   UNL     1      -1.129  14.472  23.672  0.00  0.00    +0.000 A 
ATOM     38  C   UNL     1      -2.295  14.199  24.380  0.00  0.00    +0.000 A 
ATOM     39  C   UNL     1      -3.143  13.178  23.950  0.00  0.00    +0.000 A 
ATOM     40  C   UNL     1      -2.821  12.420  22.818  0.00  0.00    +0.000 A 
ENDBRANCH  34  35
ENDBRANCH  27  33
ENDBRANCH  21  23
ENDBRANCH   5  21
TORSDOF 9
ENDMDL
MODEL 8
REMARK VINA RESULT:      -8.2      5.547      8.334
REMARK  Name = 
REMARK  9 active torsions:
REMARK  status: ('A' for Active; 'I' for Inactive)
REMARK    1  A    between atoms: C_2  and  C_3
REMARK    2  A    between atoms: C_4  and  C_5
REMARK    3  A    between atoms: N_7  and  C_8
REMARK    4  A    between atoms: C_12  and  C_13
REMARK    5  A    between atoms: C_13  and  C_15
REMARK    6  A    between atoms: C_19  and  C_20
REMARK    7  A    between atoms: C_21  and  C_22
REMARK    8  A    between atoms: N_33  and  C_34
REMARK    9  A    between atoms: C_34  and  C_35
REMARK                            x       y       z     vdW  Elec       q    Type
REMARK                         _______ _______ _______ _____ _____    ______ ____
ROOT
ATOM      1  C   UNL     1       1.335   4.942  19.920  0.00  0.00    +0.000 A 
ATOM      2  C   UNL     1       0.688   3.701  19.864  0.00  0.00    +0.000 A 
ATOM      3  C   UNL     1       1.111   2.701  18.990  0.00  0.00    +0.000 A 
ATOM      4  C   UNL     1       2.206   2.923  18.167  0.00  0.00    +0.000 A 
ATOM      5  C   UNL     1       2.871   4.153  18.202  0.00  0.00    +0.000 A 
ATOM      6  C   UNL     1       2.405   5.181  19.045  0.00  0.00    +0.000 A 
ENDROOT
BRANCH   1   9
ATOM      7  C   UNL     1       1.364   7.281  20.767  0.00  0.00    +0.000 C 
ATOM      8  O   UNL     1       2.078   7.765  19.892  0.00  0.00    +0.000 OA
ATOM      9  N   UNL     1       0.942   5.963  20.831  0.00  0.00    +0.000 N 
ATOM     10  H   UNL     1       0.232   5.723  21.510  0.00  0.00    +0.000 HD
BRANCH   7  12
ATOM     11  C   UNL     1       0.402   9.383  21.483  0.00  0.00    +0.000 C 
ATOM     12  C   UNL     1       0.835   8.158  21.846  0.00  0.00    +0.000 C 
BRANCH  11  14
ATOM     13  O   UNL     1      -0.068  10.138  23.677  0.00  0.00    +0.000 OA
ATOM     14  C   UNL     1      -0.119  10.352  22.473  0.00  0.00    +0.000 C 
ATOM     15  N   UNL     1      -0.654  11.487  21.902  0.00  0.00    +0.000 N 
ATOM     16  H   UNL     1      -0.715  11.582  20.899  0.00  0.00    +0.000 HD
BRANCH  15  17
ATOM     17  C   UNL     1      -1.236  12.516  22.732  0.00  0.00    +0.000 C 
BRANCH  17  18
ATOM     18  C   UNL     1      -2.730  12.550  22.617  0.00  0.00    +0.000 C 
ATOM     19  C   UNL     1      -3.513  13.785  22.236  0.00  0.00    +0.000 C 
ATOM     20  C   UNL     1      -3.348  12.670  21.243  0.00  0.00    +0.000 C 
ENDBRANCH  17  18
ENDBRANCH  15  17
ENDBRANCH  11  14
ENDBRANCH   7  12
ENDBRANCH   1   9
BRANCH   5  21
ATOM     21  C   UNL     1       4.042   4.298  17.295  0.00  0.00    +0.000 C 
ATOM     22  O   UNL     1       4.119   3.567  16.309  0.00  0.00    +0.000 OA
BRANCH  21  23
ATOM     23  C   UNL     1       5.135   5.277  17.529  0.00  0.00    +0.000 A 
ATOM     24  C   UNL     1       5.102   6.459  16.777  0.00  0.00    +0.000 A 
ATOM     25  C   UNL     1       6.078   7.449  16.940  0.00  0.00    +0.000 A 
ATOM     26  C   UNL     1       7.111   7.240  17.875  0.00  0.00    +0.000 A 
ATOM     27  C   UNL     1       8.214   7.991  18.383  0.00  0.00    +0.000 A 
ATOM     28  N   UNL     1       8.919   7.280  19.278  0.00  0.00    +0.000 NA
ATOM     29  N   UNL     1       8.266   6.113  19.360  0.00  0.00    +0.000 N 
ATOM     30  C   UNL     1       7.151   6.033  18.570  0.00  0.00    +0.000 A 
ATOM     31  C   UNL     1       6.191   5.022  18.418  0.00  0.00    +0.000 A 
ATOM     32  H   UNL     1       8.620   5.416  20.004  0.00  0.00    +0.000 HD
BRANCH  27  33
ATOM     33  C   UNL     1       8.486   9.368  18.063  0.00  0.00    +0.000 C 
ATOM     34  C   UNL     1       9.239  10.166  18.836  0.00  0.00    +0.000 C 
BRANCH  34  35
ATOM     35  C   UNL     1       9.402  11.623  18.718  0.00  0.00    +0.000 A 
ATOM     36  C   UNL     1       9.966  12.100  17.528  0.00  0.00    +0.000 A 
ATOM     37  C   UNL     1      10.206  13.461  17.333  0.00  0.00    +0.000 A 
ATOM     38  C   UNL     1       9.866  14.370  18.330  0.00  0.00    +0.000 A 
ATOM     39  C   UNL     1       9.281  13.916  19.512  0.00  0.00    +0.000 A 
ATOM     40  C   UNL     1       9.045  12.550  19.705  0.00  0.00    +0.000 A 
ENDBRANCH  34  35
ENDBRANCH  27  33
ENDBRANCH  21  23
ENDBRANCH   5  21
TORSDOF 9
ENDMDL
MODEL 9
REMARK VINA RESULT:      -8.2      4.449      7.396
REMARK  Name = 
REMARK  9 active torsions:
REMARK  status: ('A' for Active; 'I' for Inactive)
REMARK    1  A    between atoms: C_2  and  C_3
REMARK    2  A    between atoms: C_4  and  C_5
REMARK    3  A    between atoms: N_7  and  C_8
REMARK    4  A    between atoms: C_12  and  C_13
REMARK    5  A    between atoms: C_13  and  C_15
REMARK    6  A    between atoms: C_19  and  C_20
REMARK    7  A    between atoms: C_21  and  C_22
REMARK    8  A    between atoms: N_33  and  C_34
REMARK    9  A    between atoms: C_34  and  C_35
REMARK                            x       y       z     vdW  Elec       q    Type
REMARK                         _______ _______ _______ _____ _____    ______ ____
ROOT
ATOM      1  C   UNL     1       1.312  12.016  18.855  0.00  0.00    +0.000 A 
ATOM      2  C   UNL     1      -0.035  12.091  18.480  0.00  0.00    +0.000 A 
ATOM      3  C   UNL     1      -0.910  11.029  18.702  0.00  0.00    +0.000 A 
ATOM      4  C   UNL     1      -0.451   9.875  19.322  0.00  0.00    +0.000 A 
ATOM      5  C   UNL     1       0.890   9.774  19.708  0.00  0.00    +0.000 A 
ATOM      6  C   UNL     1       1.784  10.826  19.430  0.00  0.00    +0.000 A 
ENDROOT
BRANCH   1   9
ATOM      7  C   UNL     1       1.849  14.439  18.695  0.00  0.00    +0.000 C 
ATOM      8  O   UNL     1       0.726  14.874  18.935  0.00  0.00    +0.000 OA
ATOM      9  N   UNL     1       2.214  13.103  18.671  0.00  0.00    +0.000 N 
ATOM     10  H   UNL     1       3.198  12.878  18.616  0.00  0.00    +0.000 HD
BRANCH   7  12
ATOM     11  C   UNL     1       4.217  14.939  18.668  0.00  0.00    +0.000 C 
ATOM     12  C   UNL     1       2.965  15.393  18.454  0.00  0.00    +0.000 C 
BRANCH  11  14
ATOM     13  O   UNL     1       5.329  17.026  18.547  0.00  0.00    +0.000 OA
ATOM     14  C   UNL     1       5.404  15.805  18.489  0.00  0.00    +0.000 C 
ATOM     15  N   UNL     1       6.566  15.103  18.253  0.00  0.00    +0.000 N 
ATOM     16  H   UNL     1       6.555  14.097  18.164  0.00  0.00    +0.000 HD
BRANCH  15  17
ATOM     17  C   UNL     1       7.808  15.804  18.023  0.00  0.00    +0.000 C 
BRANCH  17  18
ATOM     18  C   UNL     1       8.996  14.902  18.171  0.00  0.00    +0.000 C 
ATOM     19  C   UNL     1       9.903  14.905  19.380  0.00  0.00    +0.000 C 
ATOM     20  C   UNL     1       8.930  13.778  19.179  0.00  0.00    +0.000 C 
ENDBRANCH  17  18
ENDBRANCH  15  17
ENDBRANCH  11  14
ENDBRANCH   7  12
ENDBRANCH   1   9
BRANCH   5  21
ATOM     21  C   UNL     1       1.291   8.507  20.379  0.00  0.00    +0.000 C 
ATOM     22  O   UNL     1       0.946   8.323  21.546  0.00  0.00    +0.000 OA
BRANCH  21  23
ATOM     23  C   UNL     1       2.101   7.455  19.713  0.00  0.00    +0.000 A 
ATOM     24  C   UNL     1       2.628   7.762  18.451  0.00  0.00    +0.000 A 
ATOM     25  C   UNL     1       3.419   6.842  17.753  0.00  0.00    +0.000 A 
ATOM     26  C   UNL     1       3.677   5.585  18.336  0.00  0.00    +0.000 A 
ATOM     27  C   UNL     1       4.458   4.435  18.011  0.00  0.00    +0.000 A 
ATOM     28  N   UNL     1       4.322   3.473  18.939  0.00  0.00    +0.000 NA
ATOM     29  N   UNL     1       3.495   4.007  19.848  0.00  0.00    +0.000 N 
ATOM     30  C   UNL     1       3.095   5.285  19.566  0.00  0.00    +0.000 A 
ATOM     31  C   UNL     1       2.292   6.186  20.281  0.00  0.00    +0.000 A 
ATOM     32  H   UNL     1       3.262   3.450  20.661  0.00  0.00    +0.000 HD
BRANCH  27  33
ATOM     33  C   UNL     1       5.360   4.345  16.893  0.00  0.00    +0.000 C 
ATOM     34  C   UNL     1       5.068   4.823  15.674  0.00  0.00    +0.000 C 
BRANCH  34  35
ATOM     35  C   UNL     1       5.815   4.598  14.427  0.00  0.00    +0.000 A 
ATOM     36  C   UNL     1       5.256   3.697  13.512  0.00  0.00    +0.000 A 
ATOM     37  C   UNL     1       5.906   3.377  12.319  0.00  0.00    +0.000 A 
ATOM     38  C   UNL     1       7.127   3.974  12.018  0.00  0.00    +0.000 A 
ATOM     39  C   UNL     1       7.687   4.892  12.906  0.00  0.00    +0.000 A 
ATOM     40  C   UNL     1       7.033   5.207  14.104  0.00  0.00    +0.000 A 
ENDBRANCH  34  35
ENDBRANCH  27  33
ENDBRANCH  21  23
ENDBRANCH   5  21
TORSDOF 9
ENDMDL
