MODEL 1
REMARK VINA RESULT:      -8.2      0.000      0.000
REMARK  Name = 
REMARK  6 active torsions:
REMARK  status: ('A' for Active; 'I' for Inactive)
REMARK    1  A    between atoms: C_1  and  C_2
REMARK    2  A    between atoms: C_2  and  O_3
REMARK    3  A    between atoms: O_3  and  C_4
REMARK    4  A    between atoms: C_4  and  C_6
REMARK    5  A    between atoms: C_9  and  O_10
REMARK    6  A    between atoms: C_13  and  C_14
REMARK                            x       y       z     vdW  Elec       q    Type
REMARK                         _______ _______ _______ _____ _____    ______ ____
ROOT
ATOM      1  C   UNL     1       5.971   4.581  17.688  0.00  0.00    +0.000 C 
ATOM      2  N   UNL     1       5.815   3.554  18.740  0.00  0.00    +0.000 N 
ATOM      3  C   UNL     1       4.588   3.613  19.442  0.00  0.00    +0.000 A 
ATOM      4  C   UNL     1       4.170   2.492  20.180  0.00  0.00    +0.000 A 
ATOM      5  C   UNL     1       3.021   2.499  20.957  0.00  0.00    +0.000 A 
ATOM      6  C   UNL     1       2.270   3.666  21.041  0.00  0.00    +0.000 A 
ATOM      7  C   UNL     1       2.668   4.825  20.356  0.00  0.00    +0.000 A 
ATOM      8  C   UNL     1       1.829   6.067  20.521  0.00  0.00    +0.000 C 
ATOM      9  C   UNL     1       3.840   4.803  19.550  0.00  0.00    +0.000 A 
ATOM     10  C   UNL     1       4.289   6.052  18.828  0.00  0.00    +0.000 C 
ATOM     11  C   UNL     1       3.470   6.409  17.610  0.00  0.00    +0.000 C 
ATOM     12  C   UNL     1       4.225   6.978  16.665  0.00  0.00    +0.000 C 
ATOM     13  C   UNL     1       5.655   7.041  17.096  0.00  0.00    +0.000 C 
ATOM     14  C   UNL     1       5.705   5.991  18.229  0.00  0.00    +0.000 C 
ATOM     15  H   UNL     1       5.939   2.632  18.320  0.00  0.00    +0.000 HD
ENDROOT
BRANCH   1  16
ATOM     16  C   UNL     1       7.369   4.471  17.057  0.00  0.00    +0.000 C 
ATOM     17  O   UNL     1       8.430   4.426  17.661  0.00  0.00    +0.000 OA
BRANCH  16  18
ATOM     18  O   UNL     1       7.247   4.583  15.697  0.00  0.00    +0.000 OA
BRANCH  18  20
ATOM     19  C   UNL     1       6.246   3.961  13.626  0.00  0.00    +0.000 C 
ATOM     20  C   UNL     1       6.107   3.916  15.138  0.00  0.00    +0.000 C 
ENDBRANCH  18  20
ENDBRANCH  16  18
ENDBRANCH   1  16
BRANCH   4  21
ATOM     21  O   UNL     1       4.909   1.334  20.181  0.00  0.00    +0.000 OA
ATOM     22  H   UNL     1       5.015   1.097  19.243  0.00  0.00    +0.000 HD
ENDBRANCH   4  21
TORSDOF 4
ENDMDL
MODEL 2
REMARK VINA RESULT:      -8.1      1.055      1.055
REMARK  Name = 
REMARK  6 active torsions:
REMARK  status: ('A' for Active; 'I' for Inactive)
REMARK    1  A    between atoms: C_1  and  C_2
REMARK    2  A    between atoms: C_2  and  O_3
REMARK    3  A    between atoms: O_3  and  C_4
REMARK    4  A    between atoms: C_4  and  C_6
REMARK    5  A    between atoms: C_9  and  O_10
REMARK    6  A    between atoms: C_13  and  C_14
REMARK                            x       y       z     vdW  Elec       q    Type
REMARK                         _______ _______ _______ _____ _____    ______ ____
ROOT
ATOM      1  C   UNL     1       5.541   4.555  17.137  0.00  0.00    +0.000 C 
ATOM      2  N   UNL     1       5.192   3.245  17.727  0.00  0.00    +0.000 N 
ATOM      3  C   UNL     1       3.972   3.230  18.446  0.00  0.00    +0.000 A 
ATOM      4  C   UNL     1       3.357   1.995  18.719  0.00  0.00    +0.000 A 
ATOM      5  C   UNL     1       2.205   1.892  19.483  0.00  0.00    +0.000 A 
ATOM      6  C   UNL     1       1.652   3.043  20.031  0.00  0.00    +0.000 A 
ATOM      7  C   UNL     1       2.251   4.296  19.821  0.00  0.00    +0.000 A 
ATOM      8  C   UNL     1       1.622   5.500  20.476  0.00  0.00    +0.000 C 
ATOM      9  C   UNL     1       3.425   4.393  19.023  0.00  0.00    +0.000 A 
ATOM     10  C   UNL     1       4.091   5.733  18.811  0.00  0.00    +0.000 C 
ATOM     11  C   UNL     1       3.374   6.652  17.851  0.00  0.00    +0.000 C 
ATOM     12  C   UNL     1       4.237   7.408  17.164  0.00  0.00    +0.000 C 
ATOM     13  C   UNL     1       5.645   7.072  17.533  0.00  0.00    +0.000 C 
ATOM     14  C   UNL     1       5.494   5.677  18.181  0.00  0.00    +0.000 C 
ATOM     15  H   UNL     1       5.175   2.544  16.986  0.00  0.00    +0.000 HD
ENDROOT
BRANCH   1  16
ATOM     16  C   UNL     1       6.918   4.469  16.460  0.00  0.00    +0.000 C 
ATOM     17  O   UNL     1       7.977   4.208  17.011  0.00  0.00    +0.000 OA
BRANCH  16  18
ATOM     18  O   UNL     1       6.795   4.883  15.160  0.00  0.00    +0.000 OA
BRANCH  18  20
ATOM     19  C   UNL     1       6.128   3.696  13.204  0.00  0.00    +0.000 C 
ATOM     20  C   UNL     1       5.642   4.374  14.474  0.00  0.00    +0.000 C 
ENDBRANCH  18  20
ENDBRANCH  16  18
ENDBRANCH   1  16
BRANCH   4  21
ATOM     21  O   UNL     1       3.899   0.822  18.254  0.00  0.00    +0.000 OA
ATOM     22  H   UNL     1       3.357   0.576  17.484  0.00  0.00    +0.000 HD
ENDBRANCH   4  21
TORSDOF 4
ENDMDL
MODEL 3
REMARK VINA RESULT:      -8.0      2.022      5.121
REMARK  Name = 
REMARK  6 active torsions:
REMARK  status: ('A' for Active; 'I' for Inactive)
REMARK    1  A    between atoms: C_1  and  C_2
REMARK    2  A    between atoms: C_2  and  O_3
REMARK    3  A    between atoms: O_3  and  C_4
REMARK    4  A    between atoms: C_4  and  C_6
REMARK    5  A    between atoms: C_9  and  O_10
REMARK    6  A    between atoms: C_13  and  C_14
REMARK                            x       y       z     vdW  Elec       q    Type
REMARK                         _______ _______ _______ _____ _____    ______ ____
ROOT
ATOM      1  C   UNL     1       4.523   3.418  19.363  0.00  0.00    +0.000 C 
ATOM      2  N   UNL     1       5.923   3.884  19.450  0.00  0.00    +0.000 N 
ATOM      3  C   UNL     1       6.206   5.043  18.689  0.00  0.00    +0.000 A 
ATOM      4  C   UNL     1       7.364   5.785  18.981  0.00  0.00    +0.000 A 
ATOM      5  C   UNL     1       7.750   6.886  18.231  0.00  0.00    +0.000 A 
ATOM      6  C   UNL     1       6.988   7.254  17.128  0.00  0.00    +0.000 A 
ATOM      7  C   UNL     1       5.844   6.521  16.772  0.00  0.00    +0.000 A 
ATOM      8  C   UNL     1       5.084   6.950  15.542  0.00  0.00    +0.000 C 
ATOM      9  C   UNL     1       5.448   5.402  17.556  0.00  0.00    +0.000 A 
ATOM     10  C   UNL     1       4.234   4.592  17.166  0.00  0.00    +0.000 C 
ATOM     11  C   UNL     1       2.909   5.255  17.461  0.00  0.00    +0.000 C 
ATOM     12  C   UNL     1       1.976   4.355  17.790  0.00  0.00    +0.000 C 
ATOM     13  C   UNL     1       2.553   2.977  17.805  0.00  0.00    +0.000 C 
ATOM     14  C   UNL     1       4.070   3.254  17.907  0.00  0.00    +0.000 C 
ATOM     15  H   UNL     1       6.159   4.038  20.431  0.00  0.00    +0.000 HD
ENDROOT
BRANCH   1  16
ATOM     16  C   UNL     1       4.360   2.111  20.157  0.00  0.00    +0.000 C 
ATOM     17  O   UNL     1       5.224   1.267  20.341  0.00  0.00    +0.000 OA
BRANCH  16  18
ATOM     18  O   UNL     1       3.042   1.969  20.503  0.00  0.00    +0.000 OA
BRANCH  18  20
ATOM     19  C   UNL     1       1.118   3.192  21.194  0.00  0.00    +0.000 C 
ATOM     20  C   UNL     1       2.577   2.895  21.495  0.00  0.00    +0.000 C 
ENDBRANCH  18  20
ENDBRANCH  16  18
ENDBRANCH   1  16
BRANCH   4  21
ATOM     21  O   UNL     1       8.186   5.426  20.021  0.00  0.00    +0.000 OA
ATOM     22  H   UNL     1       8.657   6.240  20.268  0.00  0.00    +0.000 HD
ENDBRANCH   4  21
TORSDOF 4
ENDMDL
MODEL 4
REMARK VINA RESULT:      -7.2      2.160      5.245
REMARK  Name = 
REMARK  6 active torsions:
REMARK  status: ('A' for Active; 'I' for Inactive)
REMARK    1  A    between atoms: C_1  and  C_2
REMARK    2  A    between atoms: C_2  and  O_3
REMARK    3  A    between atoms: O_3  and  C_4
REMARK    4  A    between atoms: C_4  and  C_6
REMARK    5  A    between atoms: C_9  and  O_10
REMARK    6  A    between atoms: C_13  and  C_14
REMARK                            x       y       z     vdW  Elec       q    Type
REMARK                         _______ _______ _______ _____ _____    ______ ____
ROOT
ATOM      1  C   UNL     1       4.375   3.338  19.721  0.00  0.00    +0.000 C 
ATOM      2  N   UNL     1       5.753   3.857  19.848  0.00  0.00    +0.000 N 
ATOM      3  C   UNL     1       6.098   4.848  18.900  0.00  0.00    +0.000 A 
ATOM      4  C   UNL     1       7.212   5.671  19.147  0.00  0.00    +0.000 A 
ATOM      5  C   UNL     1       7.659   6.611  18.232  0.00  0.00    +0.000 A 
ATOM      6  C   UNL     1       7.009   6.726  17.008  0.00  0.00    +0.000 A 
ATOM      7  C   UNL     1       5.917   5.900  16.698  0.00  0.00    +0.000 A 
ATOM      8  C   UNL     1       5.282   6.051  15.338  0.00  0.00    +0.000 C 
ATOM      9  C   UNL     1       5.456   4.949  17.649  0.00  0.00    +0.000 A 
ATOM     10  C   UNL     1       4.297   4.039  17.314  0.00  0.00    +0.000 C 
ATOM     11  C   UNL     1       2.941   4.705  17.338  0.00  0.00    +0.000 C 
ATOM     12  C   UNL     1       1.991   3.860  17.750  0.00  0.00    +0.000 C 
ATOM     13  C   UNL     1       2.579   2.531  18.100  0.00  0.00    +0.000 C 
ATOM     14  C   UNL     1       4.075   2.872  18.292  0.00  0.00    +0.000 C 
ATOM     15  H   UNL     1       5.886   4.211  20.796  0.00  0.00    +0.000 HD
ENDROOT
BRANCH   1  16
ATOM     16  C   UNL     1       4.147   2.212  20.744  0.00  0.00    +0.000 C 
ATOM     17  O   UNL     1       3.260   2.171  21.584  0.00  0.00    +0.000 OA
BRANCH  16  18
ATOM     18  O   UNL     1       5.190   1.328  20.665  0.00  0.00    +0.000 OA
BRANCH  18  20
ATOM     19  C   UNL     1       6.330  -0.493  21.695  0.00  0.00    +0.000 C 
ATOM     20  C   UNL     1       5.677   0.858  21.930  0.00  0.00    +0.000 C 
ENDBRANCH  18  20
ENDBRANCH  16  18
ENDBRANCH   1  16
BRANCH   4  21
ATOM     21  O   UNL     1       7.927   5.553  20.314  0.00  0.00    +0.000 OA
ATOM     22  H   UNL     1       7.266   5.374  21.004  0.00  0.00    +0.000 HD
ENDBRANCH   4  21
TORSDOF 4
ENDMDL
MODEL 5
REMARK VINA RESULT:      -7.1      1.697      2.217
REMARK  Name = 
REMARK  6 active torsions:
REMARK  status: ('A' for Active; 'I' for Inactive)
REMARK    1  A    between atoms: C_1  and  C_2
REMARK    2  A    between atoms: C_2  and  O_3
REMARK    3  A    between atoms: O_3  and  C_4
REMARK    4  A    between atoms: C_4  and  C_6
REMARK    5  A    between atoms: C_9  and  O_10
REMARK    6  A    between atoms: C_13  and  C_14
REMARK                            x       y       z     vdW  Elec       q    Type
REMARK                         _______ _______ _______ _____ _____    ______ ____
ROOT
ATOM      1  C   UNL     1       4.156   4.794  16.829  0.00  0.00    +0.000 C 
ATOM      2  N   UNL     1       3.826   3.524  17.509  0.00  0.00    +0.000 N 
ATOM      3  C   UNL     1       2.853   3.639  18.530  0.00  0.00    +0.000 A 
ATOM      4  C   UNL     1       2.193   2.481  18.976  0.00  0.00    +0.000 A 
ATOM      5  C   UNL     1       1.285   2.500  20.024  0.00  0.00    +0.000 A 
ATOM      6  C   UNL     1       1.040   3.698  20.684  0.00  0.00    +0.000 A 
ATOM      7  C   UNL     1       1.703   4.875  20.302  0.00  0.00    +0.000 A 
ATOM      8  C   UNL     1       1.420   6.132  21.085  0.00  0.00    +0.000 C 
ATOM      9  C   UNL     1       2.622   4.848  19.217  0.00  0.00    +0.000 A 
ATOM     10  C   UNL     1       3.360   6.104  18.814  0.00  0.00    +0.000 C 
ATOM     11  C   UNL     1       2.524   7.118  18.069  0.00  0.00    +0.000 C 
ATOM     12  C   UNL     1       3.254   7.780  17.165  0.00  0.00    +0.000 C 
ATOM     13  C   UNL     1       4.660   7.274  17.146  0.00  0.00    +0.000 C 
ATOM     14  C   UNL     1       4.525   5.895  17.831  0.00  0.00    +0.000 C 
ATOM     15  H   UNL     1       3.529   2.843  16.810  0.00  0.00    +0.000 HD
ENDROOT
BRANCH   1  16
ATOM     16  C   UNL     1       5.280   4.560  15.806  0.00  0.00    +0.000 C 
ATOM     17  O   UNL     1       5.230   4.809  14.610  0.00  0.00    +0.000 OA
BRANCH  16  18
ATOM     18  O   UNL     1       6.301   3.884  16.422  0.00  0.00    +0.000 OA
BRANCH  18  20
ATOM     19  C   UNL     1       7.826   4.679  18.071  0.00  0.00    +0.000 C 
ATOM     20  C   UNL     1       7.509   4.639  16.585  0.00  0.00    +0.000 C 
ENDBRANCH  18  20
ENDBRANCH  16  18
ENDBRANCH   1  16
BRANCH   4  21
ATOM     21  O   UNL     1       2.446   1.260  18.399  0.00  0.00    +0.000 OA
ATOM     22  H   UNL     1       1.820   1.192  17.658  0.00  0.00    +0.000 HD
ENDBRANCH   4  21
TORSDOF 4
ENDMDL
MODEL 6
REMARK VINA RESULT:      -6.8      1.950      5.427
REMARK  Name = 
REMARK  6 active torsions:
REMARK  status: ('A' for Active; 'I' for Inactive)
REMARK    1  A    between atoms: C_1  and  C_2
REMARK    2  A    between atoms: C_2  and  O_3
REMARK    3  A    between atoms: O_3  and  C_4
REMARK    4  A    between atoms: C_4  and  C_6
REMARK    5  A    between atoms: C_9  and  O_10
REMARK    6  A    between atoms: C_13  and  C_14
REMARK                            x       y       z     vdW  Elec       q    Type
REMARK                         _______ _______ _______ _____ _____    ______ ____
ROOT
ATOM      1  C   UNL     1       3.739   3.602  19.798  0.00  0.00    +0.000 C 
ATOM      2  N   UNL     1       5.138   4.052  19.953  0.00  0.00    +0.000 N 
ATOM      3  C   UNL     1       5.728   4.559  18.771  0.00  0.00    +0.000 A 
ATOM      4  C   UNL     1       6.887   5.348  18.871  0.00  0.00    +0.000 A 
ATOM      5  C   UNL     1       7.567   5.816  17.756  0.00  0.00    +0.000 A 
ATOM      6  C   UNL     1       7.111   5.465  16.491  0.00  0.00    +0.000 A 
ATOM      7  C   UNL     1       5.981   4.646  16.338  0.00  0.00    +0.000 A 
ATOM      8  C   UNL     1       5.563   4.272  14.938  0.00  0.00    +0.000 C 
ATOM      9  C   UNL     1       5.282   4.183  17.488  0.00  0.00    +0.000 A 
ATOM     10  C   UNL     1       4.080   3.281  17.334  0.00  0.00    +0.000 C 
ATOM     11  C   UNL     1       2.824   3.974  16.861  0.00  0.00    +0.000 C 
ATOM     12  C   UNL     1       1.731   3.418  17.395  0.00  0.00    +0.000 C 
ATOM     13  C   UNL     1       2.102   2.312  18.329  0.00  0.00    +0.000 C 
ATOM     14  C   UNL     1       3.586   2.618  18.632  0.00  0.00    +0.000 C 
ATOM     15  H   UNL     1       5.180   4.749  20.697  0.00  0.00    +0.000 HD
ENDROOT
BRANCH   1  16
ATOM     16  C   UNL     1       3.238   2.997  21.120  0.00  0.00    +0.000 C 
ATOM     17  O   UNL     1       3.487   1.875  21.538  0.00  0.00    +0.000 OA
BRANCH  16  18
ATOM     18  O   UNL     1       2.339   3.861  21.686  0.00  0.00    +0.000 OA
BRANCH  18  20
ATOM     19  C   UNL     1       1.659   5.910  20.679  0.00  0.00    +0.000 C 
ATOM     20  C   UNL     1       1.384   4.419  20.773  0.00  0.00    +0.000 C 
ENDBRANCH  18  20
ENDBRANCH  16  18
ENDBRANCH   1  16
BRANCH   4  21
ATOM     21  O   UNL     1       7.415   5.670  20.098  0.00  0.00    +0.000 OA
ATOM     22  H   UNL     1       7.781   6.566  19.992  0.00  0.00    +0.000 HD
ENDBRANCH   4  21
TORSDOF 4
ENDMDL
MODEL 7
REMARK VINA RESULT:      -6.6      1.514      5.033
REMARK  Name = 
REMARK  6 active torsions:
REMARK  status: ('A' for Active; 'I' for Inactive)
REMARK    1  A    between atoms: C_1  and  C_2
REMARK    2  A    between atoms: C_2  and  O_3
REMARK    3  A    between atoms: O_3  and  C_4
REMARK    4  A    between atoms: C_4  and  C_6
REMARK    5  A    between atoms: C_9  and  O_10
REMARK    6  A    between atoms: C_13  and  C_14
REMARK                            x       y       z     vdW  Elec       q    Type
REMARK                         _______ _______ _______ _____ _____    ______ ____
ROOT
ATOM      1  C   UNL     1       4.447   3.126  19.397  0.00  0.00    +0.000 C 
ATOM      2  N   UNL     1       5.544   3.499  18.479  0.00  0.00    +0.000 N 
ATOM      3  C   UNL     1       5.549   4.861  18.092  0.00  0.00    +0.000 A 
ATOM      4  C   UNL     1       6.724   5.410  17.549  0.00  0.00    +0.000 A 
ATOM      5  C   UNL     1       6.785   6.712  17.074  0.00  0.00    +0.000 A 
ATOM      6  C   UNL     1       5.638   7.496  17.103  0.00  0.00    +0.000 A 
ATOM      7  C   UNL     1       4.430   6.980  17.599  0.00  0.00    +0.000 A 
ATOM      8  C   UNL     1       3.213   7.871  17.565  0.00  0.00    +0.000 C 
ATOM      9  C   UNL     1       4.381   5.648  18.097  0.00  0.00    +0.000 A 
ATOM     10  C   UNL     1       3.080   5.076  18.610  0.00  0.00    +0.000 C 
ATOM     11  C   UNL     1       2.654   5.588  19.966  0.00  0.00    +0.000 C 
ATOM     12  C   UNL     1       2.011   4.645  20.663  0.00  0.00    +0.000 C 
ATOM     13  C   UNL     1       1.957   3.364  19.894  0.00  0.00    +0.000 C 
ATOM     14  C   UNL     1       3.080   3.556  18.850  0.00  0.00    +0.000 C 
ATOM     15  H   UNL     1       6.434   3.250  18.912  0.00  0.00    +0.000 HD
ENDROOT
BRANCH   1  16
ATOM     16  C   UNL     1       4.494   1.614  19.676  0.00  0.00    +0.000 C 
ATOM     17  O   UNL     1       3.883   0.750  19.065  0.00  0.00    +0.000 OA
BRANCH  16  18
ATOM     18  O   UNL     1       5.216   1.401  20.820  0.00  0.00    +0.000 OA
BRANCH  18  20
ATOM     19  C   UNL     1       6.395  -0.012  22.334  0.00  0.00    +0.000 C 
ATOM     20  C   UNL     1       5.697   0.060  20.987  0.00  0.00    +0.000 C 
ENDBRANCH  18  20
ENDBRANCH  16  18
ENDBRANCH   1  16
BRANCH   4  21
ATOM     21  O   UNL     1       7.868   4.658  17.440  0.00  0.00    +0.000 OA
ATOM     22  H   UNL     1       8.543   5.142  17.946  0.00  0.00    +0.000 HD
ENDBRANCH   4  21
TORSDOF 4
ENDMDL
MODEL 8
REMARK VINA RESULT:      -6.6      1.196      1.993
REMARK  Name = 
REMARK  6 active torsions:
REMARK  status: ('A' for Active; 'I' for Inactive)
REMARK    1  A    between atoms: C_1  and  C_2
REMARK    2  A    between atoms: C_2  and  O_3
REMARK    3  A    between atoms: O_3  and  C_4
REMARK    4  A    between atoms: C_4  and  C_6
REMARK    5  A    between atoms: C_9  and  O_10
REMARK    6  A    between atoms: C_13  and  C_14
REMARK                            x       y       z     vdW  Elec       q    Type
REMARK                         _______ _______ _______ _____ _____    ______ ____
ROOT
ATOM      1  C   UNL     1       5.675   4.716  17.932  0.00  0.00    +0.000 C 
ATOM      2  N   UNL     1       5.708   3.654  18.960  0.00  0.00    +0.000 N 
ATOM      3  C   UNL     1       4.487   3.464  19.649  0.00  0.00    +0.000 A 
ATOM      4  C   UNL     1       4.283   2.267  20.358  0.00  0.00    +0.000 A 
ATOM      5  C   UNL     1       3.147   2.039  21.120  0.00  0.00    +0.000 A 
ATOM      6  C   UNL     1       2.187   3.040  21.219  0.00  0.00    +0.000 A 
ATOM      7  C   UNL     1       2.363   4.268  20.562  0.00  0.00    +0.000 A 
ATOM      8  C   UNL     1       1.302   5.325  20.743  0.00  0.00    +0.000 C 
ATOM      9  C   UNL     1       3.525   4.487  19.771  0.00  0.00    +0.000 A 
ATOM     10  C   UNL     1       3.735   5.814  19.080  0.00  0.00    +0.000 C 
ATOM     11  C   UNL     1       2.873   6.037  17.859  0.00  0.00    +0.000 C 
ATOM     12  C   UNL     1       3.515   6.761  16.936  0.00  0.00    +0.000 C 
ATOM     13  C   UNL     1       4.903   7.083  17.387  0.00  0.00    +0.000 C 
ATOM     14  C   UNL     1       5.142   6.037  18.498  0.00  0.00    +0.000 C 
ATOM     15  H   UNL     1       6.009   2.782  18.524  0.00  0.00    +0.000 HD
ENDROOT
BRANCH   1  16
ATOM     16  C   UNL     1       7.074   4.887  17.316  0.00  0.00    +0.000 C 
ATOM     17  O   UNL     1       7.328   4.994  16.125  0.00  0.00    +0.000 OA
BRANCH  16  18
ATOM     18  O   UNL     1       8.010   4.748  18.306  0.00  0.00    +0.000 OA
BRANCH  18  20
ATOM     19  C   UNL     1       8.291   7.105  18.519  0.00  0.00    +0.000 C 
ATOM     20  C   UNL     1       8.028   5.811  19.270  0.00  0.00    +0.000 C 
ENDBRANCH  18  20
ENDBRANCH  16  18
ENDBRANCH   1  16
BRANCH   4  21
ATOM     21  O   UNL     1       5.229   1.272  20.345  0.00  0.00    +0.000 OA
ATOM     22  H   UNL     1       6.058   1.702  20.618  0.00  0.00    +0.000 HD
ENDBRANCH   4  21
TORSDOF 4
ENDMDL
MODEL 9
REMARK VINA RESULT:      -6.3      1.774      5.006
REMARK  Name = 
REMARK  6 active torsions:
REMARK  status: ('A' for Active; 'I' for Inactive)
REMARK    1  A    between atoms: C_1  and  C_2
REMARK    2  A    between atoms: C_2  and  O_3
REMARK    3  A    between atoms: O_3  and  C_4
REMARK    4  A    between atoms: C_4  and  C_6
REMARK    5  A    between atoms: C_9  and  O_10
REMARK    6  A    between atoms: C_13  and  C_14
REMARK                            x       y       z     vdW  Elec       q    Type
REMARK                         _______ _______ _______ _____ _____    ______ ____
ROOT
ATOM      1  C   UNL     1       3.883   3.231  18.748  0.00  0.00    +0.000 C 
ATOM      2  N   UNL     1       5.276   3.399  18.281  0.00  0.00    +0.000 N 
ATOM      3  C   UNL     1       5.647   4.737  18.009  0.00  0.00    +0.000 A 
ATOM      4  C   UNL     1       7.013   5.063  17.930  0.00  0.00    +0.000 A 
ATOM      5  C   UNL     1       7.455   6.333  17.591  0.00  0.00    +0.000 A 
ATOM      6  C   UNL     1       6.521   7.314  17.281  0.00  0.00    +0.000 A 
ATOM      7  C   UNL     1       5.146   7.028  17.307  0.00  0.00    +0.000 A 
ATOM      8  C   UNL     1       4.188   8.127  16.923  0.00  0.00    +0.000 C 
ATOM      9  C   UNL     1       4.702   5.726  17.670  0.00  0.00    +0.000 A 
ATOM     10  C   UNL     1       3.226   5.401  17.677  0.00  0.00    +0.000 C 
ATOM     11  C   UNL     1       2.455   5.979  18.840  0.00  0.00    +0.000 C 
ATOM     12  C   UNL     1       1.460   5.168  19.216  0.00  0.00    +0.000 C 
ATOM     13  C   UNL     1       1.455   3.921  18.392  0.00  0.00    +0.000 C 
ATOM     14  C   UNL     1       2.883   3.907  17.803  0.00  0.00    +0.000 C 
ATOM     15  H   UNL     1       5.906   2.989  18.971  0.00  0.00    +0.000 HD
ENDROOT
BRANCH   1  16
ATOM     16  C   UNL     1       3.572   1.736  18.928  0.00  0.00    +0.000 C 
ATOM     17  O   UNL     1       3.899   0.836  18.168  0.00  0.00    +0.000 OA
BRANCH  16  18
ATOM     18  O   UNL     1       2.735   1.587  20.002  0.00  0.00    +0.000 OA
BRANCH  18  20
ATOM     19  C   UNL     1       1.778   2.712  21.871  0.00  0.00    +0.000 C 
ATOM     20  C   UNL     1       3.071   2.390  21.142  0.00  0.00    +0.000 C 
ENDBRANCH  18  20
ENDBRANCH  16  18
ENDBRANCH   1  16
BRANCH   4  21
ATOM     21  O   UNL     1       7.977   4.114  18.164  0.00  0.00    +0.000 OA
ATOM     22  H   UNL     1       7.843   3.834  19.086  0.00  0.00    +0.000 HD
ENDBRANCH   4  21
TORSDOF 4
ENDMDL
