MODEL 1
REMARK VINA RESULT:      -7.9      0.000      0.000
REMARK  Name = 
REMARK  7 active torsions:
REMARK  status: ('A' for Active; 'I' for Inactive)
REMARK    1  A    between atoms: C_1  and  C_2
REMARK    2  A    between atoms: C_2  and  C_8
REMARK    3  A    between atoms: N_3  and  N_4
REMARK    4  A    between atoms: N_11  and  C_12
REMARK    5  A    between atoms: C_15  and  C_16
REMARK    6  A    between atoms: C_17  and  C_18
REMARK    7  A    between atoms: C_23  and  C_24
REMARK                            x       y       z     vdW  Elec       q    Type
REMARK                         _______ _______ _______ _____ _____    ______ ____
ROOT
ATOM      1  C   UNL     1       4.605   4.822  16.633  0.00  0.00    +0.000 A 
ATOM      2  C   UNL     1       3.487   4.119  17.124  0.00  0.00    +0.000 A 
ATOM      3  N   UNL     1       2.738   4.846  17.948  0.00  0.00    +0.000 NA
ATOM      4  N   UNL     1       3.280   6.092  17.903  0.00  0.00    +0.000 N 
ATOM      5  C   UNL     1       4.447   6.106  17.152  0.00  0.00    +0.000 A 
ATOM      6  C   UNL     1       5.380   7.264  17.056  0.00  0.00    +0.000 C 
ENDROOT
BRANCH   4   7
ATOM      7  C   UNL     1       2.614   7.160  18.564  0.00  0.00    +0.000 A 
ATOM      8  C   UNL     1       2.291   7.024  19.922  0.00  0.00    +0.000 A 
ATOM      9  C   UNL     1       1.563   8.028  20.568  0.00  0.00    +0.000 A 
ATOM     10  C   UNL     1       1.131   9.148  19.858  0.00  0.00    +0.000 A 
ATOM     11  C   UNL     1       1.481   9.302  18.516  0.00  0.00    +0.000 A 
ATOM     12  C   UNL     1       2.218   8.308  17.867  0.00  0.00    +0.000 A 
BRANCH  10  13
ATOM     13  C   UNL     1       0.267  10.101  20.487  0.00  0.00    +0.000 C 
ATOM     14  C   UNL     1      -0.515  10.856  20.994  0.00  0.00    +0.000 C 
BRANCH  14  15
ATOM     15  C   UNL     1      -1.460  11.734  21.623  0.00  0.00    +0.000 C 
ATOM     16  C   UNL     1      -1.763  11.559  23.087  0.00  0.00    +0.000 C 
ATOM     17  C   UNL     1      -0.977  12.752  22.624  0.00  0.00    +0.000 C 
ENDBRANCH  14  15
ENDBRANCH  10  13
ENDBRANCH   4   7
BRANCH   1  19
ATOM     18  C   UNL     1       7.101   4.273  16.423  0.00  0.00    +0.000 C 
ATOM     19  C   UNL     1       5.718   4.324  15.819  0.00  0.00    +0.000 C 
ATOM     20  N   UNL     1       5.408   3.996  14.601  0.00  0.00    +0.000 NA
BRANCH  20  21
ATOM     21  N   UNL     1       6.335   3.547  13.718  0.00  0.00    +0.000 N 
ATOM     22  C   UNL     1       5.991   3.215  12.438  0.00  0.00    +0.000 C 
ATOM     23  N   UNL     1       4.813   3.360  11.935  0.00  0.00    +0.000 NA
ATOM     24  N   UNL     1       6.991   2.716  11.686  0.00  0.00    +0.000 N 
ATOM     25  H   UNL     1       7.177   3.090  14.045  0.00  0.00    +0.000 HD
ATOM     26  H   UNL     1       4.258   3.744  12.715  0.00  0.00    +0.000 HD
ATOM     27  H   UNL     1       7.858   3.227  11.758  0.00  0.00    +0.000 HD
ATOM     28  H   UNL     1       6.677   2.676  10.718  0.00  0.00    +0.000 HD
ENDBRANCH  20  21
ENDBRANCH   1  19
TORSDOF 5
ENDMDL
MODEL 2
REMARK VINA RESULT:      -7.6      0.388      1.120
REMARK  Name = 
REMARK  7 active torsions:
REMARK  status: ('A' for Active; 'I' for Inactive)
REMARK    1  A    between atoms: C_1  and  C_2
REMARK    2  A    between atoms: C_2  and  C_8
REMARK    3  A    between atoms: N_3  and  N_4
REMARK    4  A    between atoms: N_11  and  C_12
REMARK    5  A    between atoms: C_15  and  C_16
REMARK    6  A    between atoms: C_17  and  C_18
REMARK    7  A    between atoms: C_23  and  C_24
REMARK                            x       y       z     vdW  Elec       q    Type
REMARK                         _______ _______ _______ _____ _____    ______ ____
ROOT
ATOM      1  C   UNL     1       4.653   4.754  16.752  0.00  0.00    +0.000 A 
ATOM      2  C   UNL     1       3.634   3.958  17.314  0.00  0.00    +0.000 A 
ATOM      3  N   UNL     1       2.837   4.639  18.133  0.00  0.00    +0.000 NA
ATOM      4  N   UNL     1       3.238   5.932  18.014  0.00  0.00    +0.000 N 
ATOM      5  C   UNL     1       4.371   6.036  17.221  0.00  0.00    +0.000 A 
ATOM      6  C   UNL     1       5.168   7.283  17.039  0.00  0.00    +0.000 C 
ENDROOT
BRANCH   4   7
ATOM      7  C   UNL     1       2.480   6.952  18.652  0.00  0.00    +0.000 A 
ATOM      8  C   UNL     1       2.122   8.093  17.920  0.00  0.00    +0.000 A 
ATOM      9  C   UNL     1       1.449   9.143  18.553  0.00  0.00    +0.000 A 
ATOM     10  C   UNL     1       1.161   9.070  19.916  0.00  0.00    +0.000 A 
ATOM     11  C   UNL     1       1.485   7.922  20.638  0.00  0.00    +0.000 A 
ATOM     12  C   UNL     1       2.147   6.864  20.009  0.00  0.00    +0.000 A 
BRANCH  10  13
ATOM     13  C   UNL     1       0.601  10.205  20.587  0.00  0.00    +0.000 C 
ATOM     14  C   UNL     1       0.136  11.116  21.213  0.00  0.00    +0.000 C 
BRANCH  14  15
ATOM     15  C   UNL     1      -0.391  12.208  21.981  0.00  0.00    +0.000 C 
ATOM     16  C   UNL     1      -1.831  12.605  21.798  0.00  0.00    +0.000 C 
ATOM     17  C   UNL     1      -1.399  11.932  23.068  0.00  0.00    +0.000 C 
ENDBRANCH  14  15
ENDBRANCH  10  13
ENDBRANCH   4   7
BRANCH   1  19
ATOM     18  C   UNL     1       7.176   4.370  16.511  0.00  0.00    +0.000 C 
ATOM     19  C   UNL     1       5.787   4.341  15.920  0.00  0.00    +0.000 C 
ATOM     20  N   UNL     1       5.485   4.012  14.700  0.00  0.00    +0.000 NA
BRANCH  20  21
ATOM     21  N   UNL     1       6.431   3.636  13.801  0.00  0.00    +0.000 N 
ATOM     22  C   UNL     1       6.094   3.292  12.523  0.00  0.00    +0.000 C 
ATOM     23  N   UNL     1       4.902   3.358  12.036  0.00  0.00    +0.000 NA
ATOM     24  N   UNL     1       7.117   2.871  11.754  0.00  0.00    +0.000 N 
ATOM     25  H   UNL     1       7.306   3.237  14.114  0.00  0.00    +0.000 HD
ATOM     26  H   UNL     1       4.333   3.696  12.827  0.00  0.00    +0.000 HD
ATOM     27  H   UNL     1       7.947   3.441  11.820  0.00  0.00    +0.000 HD
ATOM     28  H   UNL     1       6.794   2.818  10.789  0.00  0.00    +0.000 HD
ENDBRANCH  20  21
ENDBRANCH   1  19
TORSDOF 5
ENDMDL
MODEL 3
REMARK VINA RESULT:      -7.5      2.224      3.585
REMARK  Name = 
REMARK  7 active torsions:
REMARK  status: ('A' for Active; 'I' for Inactive)
REMARK    1  A    between atoms: C_1  and  C_2
REMARK    2  A    between atoms: C_2  and  C_8
REMARK    3  A    between atoms: N_3  and  N_4
REMARK    4  A    between atoms: N_11  and  C_12
REMARK    5  A    between atoms: C_15  and  C_16
REMARK    6  A    between atoms: C_17  and  C_18
REMARK    7  A    between atoms: C_23  and  C_24
REMARK                            x       y       z     vdW  Elec       q    Type
REMARK                         _______ _______ _______ _____ _____    ______ ____
ROOT
ATOM      1  C   UNL     1       2.909   5.981  18.912  0.00  0.00    +0.000 A 
ATOM      2  C   UNL     1       2.473   5.385  20.112  0.00  0.00    +0.000 A 
ATOM      3  N   UNL     1       1.885   6.247  20.937  0.00  0.00    +0.000 NA
ATOM      4  N   UNL     1       1.801   7.404  20.227  0.00  0.00    +0.000 N 
ATOM      5  C   UNL     1       2.457   7.296  19.010  0.00  0.00    +0.000 A 
ATOM      6  C   UNL     1       2.709   8.432  18.078  0.00  0.00    +0.000 C 
ENDROOT
BRANCH   4   7
ATOM      7  C   UNL     1       1.077   8.499  20.774  0.00  0.00    +0.000 A 
ATOM      8  C   UNL     1       1.116   8.717  22.158  0.00  0.00    +0.000 A 
ATOM      9  C   UNL     1       0.344   9.737  22.724  0.00  0.00    +0.000 A 
ATOM     10  C   UNL     1      -0.486  10.517  21.919  0.00  0.00    +0.000 A 
ATOM     11  C   UNL     1      -0.499  10.325  20.537  0.00  0.00    +0.000 A 
ATOM     12  C   UNL     1       0.278   9.315  19.964  0.00  0.00    +0.000 A 
BRANCH  10  13
ATOM     13  C   UNL     1      -1.378  11.462  22.519  0.00  0.00    +0.000 C 
ATOM     14  C   UNL     1      -2.171  12.197  23.039  0.00  0.00    +0.000 C 
BRANCH  14  15
ATOM     15  C   UNL     1      -3.116  13.059  23.689  0.00  0.00    +0.000 C 
ATOM     16  C   UNL     1      -4.543  13.077  23.211  0.00  0.00    +0.000 C 
ATOM     17  C   UNL     1      -4.208  12.458  24.538  0.00  0.00    +0.000 C 
ENDBRANCH  14  15
ENDBRANCH  10  13
ENDBRANCH   4   7
BRANCH   1  19
ATOM     18  C   UNL     1       3.164   4.191  17.095  0.00  0.00    +0.000 C 
ATOM     19  C   UNL     1       3.705   5.393  17.831  0.00  0.00    +0.000 C 
ATOM     20  N   UNL     1       4.856   5.958  17.623  0.00  0.00    +0.000 NA
BRANCH  20  21
ATOM     21  N   UNL     1       5.718   5.508  16.676  0.00  0.00    +0.000 N 
ATOM     22  C   UNL     1       6.830   4.791  17.014  0.00  0.00    +0.000 C 
ATOM     23  N   UNL     1       7.124   4.417  18.213  0.00  0.00    +0.000 NA
ATOM     24  N   UNL     1       7.638   4.467  15.986  0.00  0.00    +0.000 N 
ATOM     25  H   UNL     1       5.794   5.982  15.784  0.00  0.00    +0.000 HD
ATOM     26  H   UNL     1       6.356   4.800  18.784  0.00  0.00    +0.000 HD
ATOM     27  H   UNL     1       7.155   4.113  15.175  0.00  0.00    +0.000 HD
ATOM     28  H   UNL     1       8.324   3.790  16.317  0.00  0.00    +0.000 HD
ENDBRANCH  20  21
ENDBRANCH   1  19
TORSDOF 5
ENDMDL
MODEL 4
REMARK VINA RESULT:      -7.5      2.940      4.091
REMARK  Name = 
REMARK  7 active torsions:
REMARK  status: ('A' for Active; 'I' for Inactive)
REMARK    1  A    between atoms: C_1  and  C_2
REMARK    2  A    between atoms: C_2  and  C_8
REMARK    3  A    between atoms: N_3  and  N_4
REMARK    4  A    between atoms: N_11  and  C_12
REMARK    5  A    between atoms: C_15  and  C_16
REMARK    6  A    between atoms: C_17  and  C_18
REMARK    7  A    between atoms: C_23  and  C_24
REMARK                            x       y       z     vdW  Elec       q    Type
REMARK                         _______ _______ _______ _____ _____    ______ ____
ROOT
ATOM      1  C   UNL     1       3.372   6.342  18.729  0.00  0.00    +0.000 A 
ATOM      2  C   UNL     1       3.399   7.489  17.911  0.00  0.00    +0.000 A 
ATOM      3  N   UNL     1       2.504   8.405  18.272  0.00  0.00    +0.000 NA
ATOM      4  N   UNL     1       1.966   7.930  19.427  0.00  0.00    +0.000 N 
ATOM      5  C   UNL     1       2.434   6.655  19.711  0.00  0.00    +0.000 A 
ATOM      6  C   UNL     1       1.907   5.782  20.799  0.00  0.00    +0.000 C 
ENDROOT
BRANCH   4   7
ATOM      7  C   UNL     1       1.073   8.754  20.163  0.00  0.00    +0.000 A 
ATOM      8  C   UNL     1       0.303   9.705  19.479  0.00  0.00    +0.000 A 
ATOM      9  C   UNL     1      -0.519  10.581  20.194  0.00  0.00    +0.000 A 
ATOM     10  C   UNL     1      -0.551  10.531  21.587  0.00  0.00    +0.000 A 
ATOM     11  C   UNL     1       0.187   9.563  22.269  0.00  0.00    +0.000 A 
ATOM     12  C   UNL     1       1.001   8.677  21.559  0.00  0.00    +0.000 A 
BRANCH  10  13
ATOM     13  C   UNL     1      -1.283  11.521  22.319  0.00  0.00    +0.000 C 
ATOM     14  C   UNL     1      -1.958  12.309  22.922  0.00  0.00    +0.000 C 
BRANCH  14  15
ATOM     15  C   UNL     1      -2.773  13.226  23.665  0.00  0.00    +0.000 C 
ATOM     16  C   UNL     1      -4.145  13.572  23.151  0.00  0.00    +0.000 C 
ATOM     17  C   UNL     1      -4.001  12.719  24.379  0.00  0.00    +0.000 C 
ENDBRANCH  14  15
ENDBRANCH  10  13
ENDBRANCH   4   7
BRANCH   1  19
ATOM     18  C   UNL     1       5.525   4.993  19.075  0.00  0.00    +0.000 C 
ATOM     19  C   UNL     1       4.104   5.082  18.570  0.00  0.00    +0.000 C 
ATOM     20  N   UNL     1       3.454   4.140  17.956  0.00  0.00    +0.000 NA
BRANCH  20  21
ATOM     21  N   UNL     1       4.010   2.927  17.708  0.00  0.00    +0.000 N 
ATOM     22  C   UNL     1       3.456   1.780  18.203  0.00  0.00    +0.000 C 
ATOM     23  N   UNL     1       2.353   1.727  18.868  0.00  0.00    +0.000 NA
ATOM     24  N   UNL     1       4.145   0.652  17.943  0.00  0.00    +0.000 N 
ATOM     25  H   UNL     1       4.997   2.847  17.501  0.00  0.00    +0.000 HD
ATOM     26  H   UNL     1       2.053   2.712  18.925  0.00  0.00    +0.000 HD
ATOM     27  H   UNL     1       4.465   0.573  16.990  0.00  0.00    +0.000 HD
ATOM     28  H   UNL     1       3.562  -0.146  18.193  0.00  0.00    +0.000 HD
ENDBRANCH  20  21
ENDBRANCH   1  19
TORSDOF 5
ENDMDL
MODEL 5
REMARK VINA RESULT:      -7.5      3.007      4.196
REMARK  Name = 
REMARK  7 active torsions:
REMARK  status: ('A' for Active; 'I' for Inactive)
REMARK    1  A    between atoms: C_1  and  C_2
REMARK    2  A    between atoms: C_2  and  C_8
REMARK    3  A    between atoms: N_3  and  N_4
REMARK    4  A    between atoms: N_11  and  C_12
REMARK    5  A    between atoms: C_15  and  C_16
REMARK    6  A    between atoms: C_17  and  C_18
REMARK    7  A    between atoms: C_23  and  C_24
REMARK                            x       y       z     vdW  Elec       q    Type
REMARK                         _______ _______ _______ _____ _____    ______ ____
ROOT
ATOM      1  C   UNL     1       3.123   6.582  18.629  0.00  0.00    +0.000 A 
ATOM      2  C   UNL     1       3.128   7.686  17.754  0.00  0.00    +0.000 A 
ATOM      3  N   UNL     1       2.305   8.657  18.138  0.00  0.00    +0.000 NA
ATOM      4  N   UNL     1       1.844   8.262  19.355  0.00  0.00    +0.000 N 
ATOM      5  C   UNL     1       2.281   6.982  19.666  0.00  0.00    +0.000 A 
ATOM      6  C   UNL     1       1.811   6.186  20.836  0.00  0.00    +0.000 C 
ENDROOT
BRANCH   4   7
ATOM      7  C   UNL     1       1.048   9.160  20.117  0.00  0.00    +0.000 A 
ATOM      8  C   UNL     1       1.107   9.101  21.517  0.00  0.00    +0.000 A 
ATOM      9  C   UNL     1       0.271   9.918  22.284  0.00  0.00    +0.000 A 
ATOM     10  C   UNL     1      -0.642  10.769  21.659  0.00  0.00    +0.000 A 
ATOM     11  C   UNL     1      -0.678  10.855  20.267  0.00  0.00    +0.000 A 
ATOM     12  C   UNL     1       0.163  10.049  19.496  0.00  0.00    +0.000 A 
BRANCH  10  13
ATOM     13  C   UNL     1      -1.592  11.496  22.447  0.00  0.00    +0.000 C 
ATOM     14  C   UNL     1      -2.370  12.166  23.066  0.00  0.00    +0.000 C 
BRANCH  14  15
ATOM     15  C   UNL     1      -3.320  12.974  23.777  0.00  0.00    +0.000 C 
ATOM     16  C   UNL     1      -4.764  12.951  23.355  0.00  0.00    +0.000 C 
ATOM     17  C   UNL     1      -4.355  12.309  24.649  0.00  0.00    +0.000 C 
ENDBRANCH  14  15
ENDBRANCH  10  13
ENDBRANCH   4   7
BRANCH   1  19
ATOM     18  C   UNL     1       5.222   5.140  18.926  0.00  0.00    +0.000 C 
ATOM     19  C   UNL     1       3.788   5.285  18.476  0.00  0.00    +0.000 C 
ATOM     20  N   UNL     1       3.069   4.359  17.916  0.00  0.00    +0.000 NA
BRANCH  20  21
ATOM     21  N   UNL     1       3.556   3.114  17.679  0.00  0.00    +0.000 N 
ATOM     22  C   UNL     1       3.193   2.053  18.459  0.00  0.00    +0.000 C 
ATOM     23  N   UNL     1       2.328   2.106  19.413  0.00  0.00    +0.000 NA
ATOM     24  N   UNL     1       3.803   0.888  18.162  0.00  0.00    +0.000 N 
ATOM     25  H   UNL     1       4.445   2.991  17.211  0.00  0.00    +0.000 HD
ATOM     26  H   UNL     1       2.036   3.095  19.424  0.00  0.00    +0.000 HD
ATOM     27  H   UNL     1       3.838   0.679  17.176  0.00  0.00    +0.000 HD
ATOM     28  H   UNL     1       3.333   0.140  18.670  0.00  0.00    +0.000 HD
ENDBRANCH  20  21
ENDBRANCH   1  19
TORSDOF 5
ENDMDL
MODEL 6
REMARK VINA RESULT:      -7.3      3.656      4.870
REMARK  Name = 
REMARK  7 active torsions:
REMARK  status: ('A' for Active; 'I' for Inactive)
REMARK    1  A    between atoms: C_1  and  C_2
REMARK    2  A    between atoms: C_2  and  C_8
REMARK    3  A    between atoms: N_3  and  N_4
REMARK    4  A    between atoms: N_11  and  C_12
REMARK    5  A    between atoms: C_15  and  C_16
REMARK    6  A    between atoms: C_17  and  C_18
REMARK    7  A    between atoms: C_23  and  C_24
REMARK                            x       y       z     vdW  Elec       q    Type
REMARK                         _______ _______ _______ _____ _____    ______ ____
ROOT
ATOM      1  C   UNL     1       4.234   3.801  19.334  0.00  0.00    +0.000 A 
ATOM      2  C   UNL     1       5.271   4.753  19.268  0.00  0.00    +0.000 A 
ATOM      3  N   UNL     1       4.826   5.992  19.077  0.00  0.00    +0.000 NA
ATOM      4  N   UNL     1       3.472   5.892  19.154  0.00  0.00    +0.000 N 
ATOM      5  C   UNL     1       3.072   4.567  19.261  0.00  0.00    +0.000 A 
ATOM      6  C   UNL     1       1.658   4.100  19.181  0.00  0.00    +0.000 C 
ENDROOT
BRANCH   4   7
ATOM      7  C   UNL     1       2.690   7.078  19.144  0.00  0.00    +0.000 A 
ATOM      8  C   UNL     1       2.003   7.451  20.308  0.00  0.00    +0.000 A 
ATOM      9  C   UNL     1       1.162   8.568  20.293  0.00  0.00    +0.000 A 
ATOM     10  C   UNL     1       0.983   9.294  19.116  0.00  0.00    +0.000 A 
ATOM     11  C   UNL     1       1.692   8.947  17.966  0.00  0.00    +0.000 A 
ATOM     12  C   UNL     1       2.543   7.838  17.977  0.00  0.00    +0.000 A 
BRANCH  10  13
ATOM     13  C   UNL     1       0.015  10.349  19.069  0.00  0.00    +0.000 C 
ATOM     14  C   UNL     1      -0.782  11.244  19.103  0.00  0.00    +0.000 C 
BRANCH  14  15
ATOM     15  C   UNL     1      -1.711  12.337  19.153  0.00  0.00    +0.000 C 
ATOM     16  C   UNL     1      -3.187  12.048  19.101  0.00  0.00    +0.000 C 
ATOM     17  C   UNL     1      -2.566  12.530  20.380  0.00  0.00    +0.000 C 
ENDBRANCH  14  15
ENDBRANCH  10  13
ENDBRANCH   4   7
BRANCH   1  19
ATOM     18  C   UNL     1       3.472   1.507  18.480  0.00  0.00    +0.000 C 
ATOM     19  C   UNL     1       4.331   2.340  19.401  0.00  0.00    +0.000 C 
ATOM     20  N   UNL     1       5.148   1.882  20.301  0.00  0.00    +0.000 NA
BRANCH  20  21
ATOM     21  N   UNL     1       5.324   0.551  20.503  0.00  0.00    +0.000 N 
ATOM     22  C   UNL     1       6.036   0.086  21.572  0.00  0.00    +0.000 C 
ATOM     23  N   UNL     1       6.530   0.829  22.503  0.00  0.00    +0.000 NA
ATOM     24  N   UNL     1       6.196  -1.251  21.616  0.00  0.00    +0.000 N 
ATOM     25  H   UNL     1       5.287  -0.095  19.725  0.00  0.00    +0.000 HD
ATOM     26  H   UNL     1       6.270   1.785  22.217  0.00  0.00    +0.000 HD
ATOM     27  H   UNL     1       5.355  -1.775  21.425  0.00  0.00    +0.000 HD
ATOM     28  H   UNL     1       6.572  -1.500  22.530  0.00  0.00    +0.000 HD
ENDBRANCH  20  21
ENDBRANCH   1  19
TORSDOF 5
ENDMDL
MODEL 7
REMARK VINA RESULT:      -7.3      3.509      5.019
REMARK  Name = 
REMARK  7 active torsions:
REMARK  status: ('A' for Active; 'I' for Inactive)
REMARK    1  A    between atoms: C_1  and  C_2
REMARK    2  A    between atoms: C_2  and  C_8
REMARK    3  A    between atoms: N_3  and  N_4
REMARK    4  A    between atoms: N_11  and  C_12
REMARK    5  A    between atoms: C_15  and  C_16
REMARK    6  A    between atoms: C_17  and  C_18
REMARK    7  A    between atoms: C_23  and  C_24
REMARK                            x       y       z     vdW  Elec       q    Type
REMARK                         _______ _______ _______ _____ _____    ______ ____
ROOT
ATOM      1  C   UNL     1       4.220   3.649  19.459  0.00  0.00    +0.000 A 
ATOM      2  C   UNL     1       5.151   4.630  19.065  0.00  0.00    +0.000 A 
ATOM      3  N   UNL     1       4.606   5.833  18.915  0.00  0.00    +0.000 NA
ATOM      4  N   UNL     1       3.324   5.691  19.346  0.00  0.00    +0.000 N 
ATOM      5  C   UNL     1       3.038   4.365  19.640  0.00  0.00    +0.000 A 
ATOM      6  C   UNL     1       1.679   3.842  19.960  0.00  0.00    +0.000 C 
ENDROOT
BRANCH   4   7
ATOM      7  C   UNL     1       2.502   6.844  19.462  0.00  0.00    +0.000 A 
ATOM      8  C   UNL     1       2.396   7.717  18.370  0.00  0.00    +0.000 A 
ATOM      9  C   UNL     1       1.659   8.899  18.492  0.00  0.00    +0.000 A 
ATOM     10  C   UNL     1       1.055   9.225  19.706  0.00  0.00    +0.000 A 
ATOM     11  C   UNL     1       1.128   8.342  20.783  0.00  0.00    +0.000 A 
ATOM     12  C   UNL     1       1.854   7.154  20.664  0.00  0.00    +0.000 A 
BRANCH  10  13
ATOM     13  C   UNL     1       0.423  10.501  19.867  0.00  0.00    +0.000 C 
ATOM     14  C   UNL     1      -0.170  11.532  20.018  0.00  0.00    +0.000 C 
BRANCH  14  15
ATOM     15  C   UNL     1      -0.885  12.758  20.233  0.00  0.00    +0.000 C 
ATOM     16  C   UNL     1      -2.387  12.758  20.132  0.00  0.00    +0.000 C 
ATOM     17  C   UNL     1      -1.729  12.918  21.472  0.00  0.00    +0.000 C 
ENDBRANCH  14  15
ENDBRANCH  10  13
ENDBRANCH   4   7
BRANCH   1  19
ATOM     18  C   UNL     1       3.760   1.281  18.590  0.00  0.00    +0.000 C 
ATOM     19  C   UNL     1       4.411   2.202  19.595  0.00  0.00    +0.000 C 
ATOM     20  N   UNL     1       5.116   1.832  20.620  0.00  0.00    +0.000 NA
BRANCH  20  21
ATOM     21  N   UNL     1       5.355   0.524  20.896  0.00  0.00    +0.000 N 
ATOM     22  C   UNL     1       6.228   0.157  21.879  0.00  0.00    +0.000 C 
ATOM     23  N   UNL     1       6.834   0.979  22.667  0.00  0.00    +0.000 NA
ATOM     24  N   UNL     1       6.429  -1.170  22.002  0.00  0.00    +0.000 N 
ATOM     25  H   UNL     1       5.221  -0.183  20.184  0.00  0.00    +0.000 HD
ATOM     26  H   UNL     1       6.510   1.905  22.350  0.00  0.00    +0.000 HD
ATOM     27  H   UNL     1       5.583  -1.720  21.979  0.00  0.00    +0.000 HD
ATOM     28  H   UNL     1       6.942  -1.339  22.866  0.00  0.00    +0.000 HD
ENDBRANCH  20  21
ENDBRANCH   1  19
TORSDOF 5
ENDMDL
MODEL 8
REMARK VINA RESULT:      -7.3      3.600      9.596
REMARK  Name = 
REMARK  7 active torsions:
REMARK  status: ('A' for Active; 'I' for Inactive)
REMARK    1  A    between atoms: C_1  and  C_2
REMARK    2  A    between atoms: C_2  and  C_8
REMARK    3  A    between atoms: N_3  and  N_4
REMARK    4  A    between atoms: N_11  and  C_12
REMARK    5  A    between atoms: C_15  and  C_16
REMARK    6  A    between atoms: C_17  and  C_18
REMARK    7  A    between atoms: C_23  and  C_24
REMARK                            x       y       z     vdW  Elec       q    Type
REMARK                         _______ _______ _______ _____ _____    ______ ____
ROOT
ATOM      1  C   UNL     1       1.193   8.564  20.257  0.00  0.00    +0.000 A 
ATOM      2  C   UNL     1       1.450   7.388  20.988  0.00  0.00    +0.000 A 
ATOM      3  N   UNL     1       2.114   6.474  20.285  0.00  0.00    +0.000 NA
ATOM      4  N   UNL     1       2.426   7.095  19.116  0.00  0.00    +0.000 N 
ATOM      5  C   UNL     1       1.841   8.350  19.042  0.00  0.00    +0.000 A 
ATOM      6  C   UNL     1       1.833   9.212  17.825  0.00  0.00    +0.000 C 
ENDROOT
BRANCH   4   7
ATOM      7  C   UNL     1       3.279   6.434  18.190  0.00  0.00    +0.000 A 
ATOM      8  C   UNL     1       4.150   7.199  17.401  0.00  0.00    +0.000 A 
ATOM      9  C   UNL     1       4.936   6.576  16.427  0.00  0.00    +0.000 A 
ATOM     10  C   UNL     1       4.833   5.201  16.219  0.00  0.00    +0.000 A 
ATOM     11  C   UNL     1       3.994   4.432  17.026  0.00  0.00    +0.000 A 
ATOM     12  C   UNL     1       3.214   5.047  18.009  0.00  0.00    +0.000 A 
BRANCH  10  13
ATOM     13  C   UNL     1       5.533   4.591  15.127  0.00  0.00    +0.000 C 
ATOM     14  C   UNL     1       6.070   4.025  14.217  0.00  0.00    +0.000 C 
BRANCH  14  15
ATOM     15  C   UNL     1       6.683   3.348  13.110  0.00  0.00    +0.000 C 
ATOM     16  C   UNL     1       5.913   3.196  11.826  0.00  0.00    +0.000 C 
ATOM     17  C   UNL     1       7.082   4.135  11.887  0.00  0.00    +0.000 C 
ENDBRANCH  14  15
ENDBRANCH  10  13
ENDBRANCH   4   7
BRANCH   1  19
ATOM     18  C   UNL     1       0.566  10.322  22.015  0.00  0.00    +0.000 C 
ATOM     19  C   UNL     1       0.384   9.725  20.639  0.00  0.00    +0.000 C 
ATOM     20  N   UNL     1      -0.468  10.124  19.744  0.00  0.00    +0.000 NA
BRANCH  20  21
ATOM     21  N   UNL     1      -1.307  11.168  19.963  0.00  0.00    +0.000 N 
ATOM     22  C   UNL     1      -1.365  12.223  19.097  0.00  0.00    +0.000 C 
ATOM     23  N   UNL     1      -0.711  12.298  17.988  0.00  0.00    +0.000 NA
ATOM     24  N   UNL     1      -2.185  13.225  19.468  0.00  0.00    +0.000 N 
ATOM     25  H   UNL     1      -1.611  11.394  20.901  0.00  0.00    +0.000 HD
ATOM     26  H   UNL     1      -0.170  11.421  17.963  0.00  0.00    +0.000 HD
ATOM     27  H   UNL     1      -3.087  12.920  19.802  0.00  0.00    +0.000 HD
ATOM     28  H   UNL     1      -2.293  13.862  18.679  0.00  0.00    +0.000 HD
ENDBRANCH  20  21
ENDBRANCH   1  19
TORSDOF 5
ENDMDL
MODEL 9
REMARK VINA RESULT:      -7.3      5.401     11.159
REMARK  Name = 
REMARK  7 active torsions:
REMARK  status: ('A' for Active; 'I' for Inactive)
REMARK    1  A    between atoms: C_1  and  C_2
REMARK    2  A    between atoms: C_2  and  C_8
REMARK    3  A    between atoms: N_3  and  N_4
REMARK    4  A    between atoms: N_11  and  C_12
REMARK    5  A    between atoms: C_15  and  C_16
REMARK    6  A    between atoms: C_17  and  C_18
REMARK    7  A    between atoms: C_23  and  C_24
REMARK                            x       y       z     vdW  Elec       q    Type
REMARK                         _______ _______ _______ _____ _____    ______ ____
ROOT
ATOM      1  C   UNL     1      -1.369  11.714  21.807  0.00  0.00    +0.000 A 
ATOM      2  C   UNL     1      -0.520  11.098  22.747  0.00  0.00    +0.000 A 
ATOM      3  N   UNL     1       0.258  10.163  22.210  0.00  0.00    +0.000 NA
ATOM      4  N   UNL     1       0.029  10.246  20.872  0.00  0.00    +0.000 N 
ATOM      5  C   UNL     1      -0.991  11.144  20.592  0.00  0.00    +0.000 A 
ATOM      6  C   UNL     1      -1.610  11.333  19.249  0.00  0.00    +0.000 C 
ENDROOT
BRANCH   4   7
ATOM      7  C   UNL     1       0.827   9.474  19.985  0.00  0.00    +0.000 A 
ATOM      8  C   UNL     1       1.358   8.256  20.431  0.00  0.00    +0.000 A 
ATOM      9  C   UNL     1       2.214   7.523  19.603  0.00  0.00    +0.000 A 
ATOM     10  C   UNL     1       2.563   8.017  18.346  0.00  0.00    +0.000 A 
ATOM     11  C   UNL     1       2.008   9.211  17.884  0.00  0.00    +0.000 A 
ATOM     12  C   UNL     1       1.144   9.942  18.703  0.00  0.00    +0.000 A 
BRANCH  10  13
ATOM     13  C   UNL     1       3.548   7.334  17.561  0.00  0.00    +0.000 C 
ATOM     14  C   UNL     1       4.332   6.700  16.911  0.00  0.00    +0.000 C 
BRANCH  14  15
ATOM     15  C   UNL     1       5.245   5.935  16.111  0.00  0.00    +0.000 C 
ATOM     16  C   UNL     1       6.435   5.291  16.770  0.00  0.00    +0.000 C 
ATOM     17  C   UNL     1       5.303   4.437  16.278  0.00  0.00    +0.000 C 
ENDBRANCH  14  15
ENDBRANCH  10  13
ENDBRANCH   4   7
BRANCH   1  19
ATOM     18  C   UNL     1      -2.239  14.119  21.619  0.00  0.00    +0.000 C 
ATOM     19  C   UNL     1      -2.446  12.682  22.036  0.00  0.00    +0.000 C 
ATOM     20  N   UNL     1      -3.499  12.206  22.630  0.00  0.00    +0.000 NA
BRANCH  20  21
ATOM     21  N   UNL     1      -4.566  12.986  22.937  0.00  0.00    +0.000 N 
ATOM     22  C   UNL     1      -5.228  12.844  24.123  0.00  0.00    +0.000 C 
ATOM     23  N   UNL     1      -4.876  12.039  25.067  0.00  0.00    +0.000 NA
ATOM     24  N   UNL     1      -6.312  13.629  24.273  0.00  0.00    +0.000 N 
ATOM     25  H   UNL     1      -5.128  13.399  22.203  0.00  0.00    +0.000 HD
ATOM     26  H   UNL     1      -4.040  11.568  24.688  0.00  0.00    +0.000 HD
ATOM     27  H   UNL     1      -6.170  14.589  23.996  0.00  0.00    +0.000 HD
ATOM     28  H   UNL     1      -6.615  13.578  25.245  0.00  0.00    +0.000 HD
ENDBRANCH  20  21
ENDBRANCH   1  19
TORSDOF 5
ENDMDL
