MODEL 1
REMARK VINA RESULT:      -9.0      0.000      0.000
REMARK  Name = 
REMARK  5 active torsions:
REMARK  status: ('A' for Active; 'I' for Inactive)
REMARK    1  A    between atoms: C_2  and  C_3
REMARK    2  A    between atoms: C_2  and  C_13
REMARK    3  A    between atoms: C_4  and  N_5
REMARK    4  A    between atoms: N_5  and  C_6
REMARK    5  A    between atoms: C_15  and  C_16
REMARK                            x       y       z     vdW  Elec       q    Type
REMARK                         _______ _______ _______ _____ _____    ______ ____
ROOT
ATOM      1  C   UNL     1       6.666   5.826  18.438  0.00  0.00    +0.000 A 
ATOM      2  N   UNL     1       5.772   5.536  19.457  0.00  0.00    +0.000 NA
ATOM      3  C   UNL     1       4.882   4.679  18.964  0.00  0.00    +0.000 A 
ATOM      4  N   UNL     1       5.147   4.434  17.615  0.00  0.00    +0.000 N 
ATOM      5  C   UNL     1       4.452   3.693  16.649  0.00  0.00    +0.000 A 
ATOM      6  C   UNL     1       4.950   3.571  15.408  0.00  0.00    +0.000 A 
ATOM      7  C   UNL     1       6.192   4.242  15.080  0.00  0.00    +0.000 A 
ATOM      8  C   UNL     1       6.842   4.994  15.987  0.00  0.00    +0.000 A 
ATOM      9  C   UNL     1       6.317   5.118  17.305  0.00  0.00    +0.000 A 
ENDROOT
BRANCH   3  10
ATOM     10  C   UNL     1       3.749   4.127  19.735  0.00  0.00    +0.000 A 
ATOM     11  C   UNL     1       3.860   2.845  20.302  0.00  0.00    +0.000 A 
ATOM     12  C   UNL     1       2.825   2.311  21.078  0.00  0.00    +0.000 A 
ATOM     13  C   UNL     1       1.675   3.057  21.296  0.00  0.00    +0.000 A 
ATOM     14  F   UNL     1       0.694   2.560  22.060  0.00  0.00    +0.000 F 
ATOM     15  C   UNL     1       1.525   4.311  20.722  0.00  0.00    +0.000 A 
ATOM     16  C   UNL     1       2.546   4.828  19.920  0.00  0.00    +0.000 A 
ENDBRANCH   3  10
BRANCH   1  18
ATOM     17  O   UNL     1       8.721   6.644  19.298  0.00  0.00    +0.000 OA
ATOM     18  C   UNL     1       7.772   6.777  18.526  0.00  0.00    +0.000 C 
BRANCH  18  19
ATOM     19  C   UNL     1       7.692   7.922  17.582  0.00  0.00    +0.000 C 
ATOM     20  C   UNL     1       8.249   9.104  17.888  0.00  0.00    +0.000 C 
BRANCH  20  21
ATOM     21  N   UNL     1       8.949   9.423  19.025  0.00  0.00    +0.000 N 
ATOM     22  H   UNL     1       9.036   8.648  19.690  0.00  0.00    +0.000 HD
BRANCH  21  23
ATOM     23  C   UNL     1       9.506  10.640  19.441  0.00  0.00    +0.000 A 
ATOM     24  C   UNL     1       9.420  11.126  20.751  0.00  0.00    +0.000 A 
ATOM     25  C   UNL     1       9.971  12.364  21.099  0.00  0.00    +0.000 A 
ATOM     26  C   UNL     1      10.610  13.138  20.134  0.00  0.00    +0.000 A 
ATOM     27 CL   UNL     1      11.282  14.662  20.563  0.00  0.00    +0.000 Cl
ATOM     28  C   UNL     1      10.701  12.683  18.823  0.00  0.00    +0.000 A 
ATOM     29  C   UNL     1      10.150  11.443  18.483  0.00  0.00    +0.000 A 
ENDBRANCH  21  23
ENDBRANCH  20  21
ENDBRANCH  18  19
ENDBRANCH   1  18
TORSDOF 5
ENDMDL
MODEL 2
REMARK VINA RESULT:      -8.9      3.146      3.872
REMARK  Name = 
REMARK  5 active torsions:
REMARK  status: ('A' for Active; 'I' for Inactive)
REMARK    1  A    between atoms: C_2  and  C_3
REMARK    2  A    between atoms: C_2  and  C_13
REMARK    3  A    between atoms: C_4  and  N_5
REMARK    4  A    between atoms: N_5  and  C_6
REMARK    5  A    between atoms: C_15  and  C_16
REMARK                            x       y       z     vdW  Elec       q    Type
REMARK                         _______ _______ _______ _____ _____    ______ ____
ROOT
ATOM      1  C   UNL     1       5.097   6.258  17.445  0.00  0.00    +0.000 A 
ATOM      2  N   UNL     1       4.454   7.413  17.863  0.00  0.00    +0.000 NA
ATOM      3  C   UNL     1       3.203   7.075  18.165  0.00  0.00    +0.000 A 
ATOM      4  N   UNL     1       2.996   5.718  17.907  0.00  0.00    +0.000 N 
ATOM      5  C   UNL     1       1.843   4.924  17.971  0.00  0.00    +0.000 A 
ATOM      6  C   UNL     1       1.917   3.607  17.713  0.00  0.00    +0.000 A 
ATOM      7  C   UNL     1       3.196   3.037  17.339  0.00  0.00    +0.000 A 
ATOM      8  C   UNL     1       4.299   3.799  17.229  0.00  0.00    +0.000 A 
ATOM      9  C   UNL     1       4.220   5.194  17.509  0.00  0.00    +0.000 A 
ENDROOT
BRANCH   3  10
ATOM     10  C   UNL     1       2.181   8.027  18.645  0.00  0.00    +0.000 A 
ATOM     11  C   UNL     1       1.820   8.026  20.004  0.00  0.00    +0.000 A 
ATOM     12  C   UNL     1       0.891   8.946  20.501  0.00  0.00    +0.000 A 
ATOM     13  C   UNL     1       0.320   9.878  19.645  0.00  0.00    +0.000 A 
ATOM     14  F   UNL     1      -0.549  10.777  20.122  0.00  0.00    +0.000 F 
ATOM     15  C   UNL     1       0.633   9.881  18.293  0.00  0.00    +0.000 A 
ATOM     16  C   UNL     1       1.536   8.939  17.792  0.00  0.00    +0.000 A 
ENDBRANCH   3  10
BRANCH   1  18
ATOM     17  O   UNL     1       6.770   6.178  15.763  0.00  0.00    +0.000 OA
ATOM     18  C   UNL     1       6.473   6.184  16.957  0.00  0.00    +0.000 C 
BRANCH  18  19
ATOM     19  C   UNL     1       7.513   6.147  18.017  0.00  0.00    +0.000 C 
ATOM     20  C   UNL     1       8.162   7.265  18.383  0.00  0.00    +0.000 C 
BRANCH  20  21
ATOM     21  N   UNL     1       7.972   8.533  17.893  0.00  0.00    +0.000 N 
ATOM     22  H   UNL     1       7.346   8.576  17.082  0.00  0.00    +0.000 HD
BRANCH  21  23
ATOM     23  C   UNL     1       8.534   9.755  18.285  0.00  0.00    +0.000 A 
ATOM     24  C   UNL     1       9.314   9.917  19.435  0.00  0.00    +0.000 A 
ATOM     25  C   UNL     1       9.824  11.171  19.791  0.00  0.00    +0.000 A 
ATOM     26  C   UNL     1       9.550  12.283  19.001  0.00  0.00    +0.000 A 
ATOM     27 CL   UNL     1      10.173  13.824  19.443  0.00  0.00    +0.000 Cl
ATOM     28  C   UNL     1       8.769  12.152  17.857  0.00  0.00    +0.000 A 
ATOM     29  C   UNL     1       8.266  10.895  17.506  0.00  0.00    +0.000 A 
ENDBRANCH  21  23
ENDBRANCH  20  21
ENDBRANCH  18  19
ENDBRANCH   1  18
TORSDOF 5
ENDMDL
MODEL 3
REMARK VINA RESULT:      -8.6      1.097      1.171
REMARK  Name = 
REMARK  5 active torsions:
REMARK  status: ('A' for Active; 'I' for Inactive)
REMARK    1  A    between atoms: C_2  and  C_3
REMARK    2  A    between atoms: C_2  and  C_13
REMARK    3  A    between atoms: C_4  and  N_5
REMARK    4  A    between atoms: N_5  and  C_6
REMARK    5  A    between atoms: C_15  and  C_16
REMARK                            x       y       z     vdW  Elec       q    Type
REMARK                         _______ _______ _______ _____ _____    ______ ____
ROOT
ATOM      1  C   UNL     1       6.766   6.035  17.876  0.00  0.00    +0.000 A 
ATOM      2  N   UNL     1       5.683   5.651  18.651  0.00  0.00    +0.000 NA
ATOM      3  C   UNL     1       4.972   4.789  17.930  0.00  0.00    +0.000 A 
ATOM      4  N   UNL     1       5.545   4.632  16.666  0.00  0.00    +0.000 N 
ATOM      5  C   UNL     1       5.125   3.920  15.535  0.00  0.00    +0.000 A 
ATOM      6  C   UNL     1       5.894   3.889  14.434  0.00  0.00    +0.000 A 
ATOM      7  C   UNL     1       7.141   4.628  14.429  0.00  0.00    +0.000 A 
ATOM      8  C   UNL     1       7.531   5.352  15.493  0.00  0.00    +0.000 A 
ATOM      9  C   UNL     1       6.718   5.379  16.662  0.00  0.00    +0.000 A 
ENDROOT
BRANCH   3  10
ATOM     10  C   UNL     1       3.726   4.148  18.397  0.00  0.00    +0.000 A 
ATOM     11  C   UNL     1       3.793   3.140  19.376  0.00  0.00    +0.000 A 
ATOM     12  C   UNL     1       2.629   2.546  19.876  0.00  0.00    +0.000 A 
ATOM     13  C   UNL     1       1.390   2.958  19.404  0.00  0.00    +0.000 A 
ATOM     14  F   UNL     1       0.273   2.411  19.899  0.00  0.00    +0.000 F 
ATOM     15  C   UNL     1       1.295   3.927  18.415  0.00  0.00    +0.000 A 
ATOM     16  C   UNL     1       2.461   4.495  17.894  0.00  0.00    +0.000 A 
ENDBRANCH   3  10
BRANCH   1  18
ATOM     17  O   UNL     1       8.565   6.862  19.185  0.00  0.00    +0.000 OA
ATOM     18  C   UNL     1       7.773   7.023  18.256  0.00  0.00    +0.000 C 
BRANCH  18  19
ATOM     19  C   UNL     1       7.801   8.248  17.415  0.00  0.00    +0.000 C 
ATOM     20  C   UNL     1       8.377   9.375  17.861  0.00  0.00    +0.000 C 
BRANCH  20  21
ATOM     21  N   UNL     1       9.007   9.565  19.066  0.00  0.00    +0.000 N 
ATOM     22  H   UNL     1       9.221   8.695  19.565  0.00  0.00    +0.000 HD
BRANCH  21  23
ATOM     23  C   UNL     1       9.348  10.745  19.740  0.00  0.00    +0.000 A 
ATOM     24  C   UNL     1       9.081  10.970  21.096  0.00  0.00    +0.000 A 
ATOM     25  C   UNL     1       9.419  12.183  21.706  0.00  0.00    +0.000 A 
ATOM     26  C   UNL     1      10.021  13.193  20.961  0.00  0.00    +0.000 A 
ATOM     27 CL   UNL     1      10.430  14.685  21.713  0.00  0.00    +0.000 Cl
ATOM     28  C   UNL     1      10.288  13.000  19.610  0.00  0.00    +0.000 A 
ATOM     29  C   UNL     1       9.951  11.783  19.008  0.00  0.00    +0.000 A 
ENDBRANCH  21  23
ENDBRANCH  20  21
ENDBRANCH  18  19
ENDBRANCH   1  18
TORSDOF 5
ENDMDL
MODEL 4
REMARK VINA RESULT:      -8.4      5.004      7.240
REMARK  Name = 
REMARK  5 active torsions:
REMARK  status: ('A' for Active; 'I' for Inactive)
REMARK    1  A    between atoms: C_2  and  C_3
REMARK    2  A    between atoms: C_2  and  C_13
REMARK    3  A    between atoms: C_4  and  N_5
REMARK    4  A    between atoms: N_5  and  C_6
REMARK    5  A    between atoms: C_15  and  C_16
REMARK                            x       y       z     vdW  Elec       q    Type
REMARK                         _______ _______ _______ _____ _____    ______ ____
ROOT
ATOM      1  C   UNL     1       4.470   5.448  19.245  0.00  0.00    +0.000 A 
ATOM      2  N   UNL     1       3.941   6.729  19.259  0.00  0.00    +0.000 NA
ATOM      3  C   UNL     1       2.692   6.631  19.705  0.00  0.00    +0.000 A 
ATOM      4  N   UNL     1       2.370   5.293  19.943  0.00  0.00    +0.000 N 
ATOM      5  C   UNL     1       1.169   4.678  20.321  0.00  0.00    +0.000 A 
ATOM      6  C   UNL     1       1.130   3.352  20.536  0.00  0.00    +0.000 A 
ATOM      7  C   UNL     1       2.337   2.574  20.337  0.00  0.00    +0.000 A 
ATOM      8  C   UNL     1       3.482   3.148  19.929  0.00  0.00    +0.000 A 
ATOM      9  C   UNL     1       3.524   4.555  19.708  0.00  0.00    +0.000 A 
ENDROOT
BRANCH   3  10
ATOM     10  C   UNL     1       1.776   7.779  19.860  0.00  0.00    +0.000 A 
ATOM     11  C   UNL     1       1.578   8.656  18.778  0.00  0.00    +0.000 A 
ATOM     12  C   UNL     1       0.681   9.725  18.874  0.00  0.00    +0.000 A 
ATOM     13  C   UNL     1      -0.028   9.923  20.051  0.00  0.00    +0.000 A 
ATOM     14  F   UNL     1      -0.906  10.930  20.138  0.00  0.00    +0.000 F 
ATOM     15  C   UNL     1       0.172   9.095  21.146  0.00  0.00    +0.000 A 
ATOM     16  C   UNL     1       1.093   8.047  21.058  0.00  0.00    +0.000 A 
ENDBRANCH   3  10
BRANCH   1  18
ATOM     17  O   UNL     1       6.221   3.928  18.733  0.00  0.00    +0.000 OA
ATOM     18  C   UNL     1       5.802   5.085  18.764  0.00  0.00    +0.000 C 
BRANCH  18  19
ATOM     19  C   UNL     1       6.624   6.223  18.276  0.00  0.00    +0.000 C 
ATOM     20  C   UNL     1       7.393   6.095  17.183  0.00  0.00    +0.000 C 
BRANCH  20  21
ATOM     21  N   UNL     1       7.523   4.986  16.384  0.00  0.00    +0.000 N 
ATOM     22  H   UNL     1       8.305   4.376  16.643  0.00  0.00    +0.000 HD
BRANCH  21  23
ATOM     23  C   UNL     1       6.801   4.591  15.250  0.00  0.00    +0.000 A 
ATOM     24  C   UNL     1       5.501   4.076  15.297  0.00  0.00    +0.000 A 
ATOM     25  C   UNL     1       4.842   3.670  14.132  0.00  0.00    +0.000 A 
ATOM     26  C   UNL     1       5.483   3.766  12.900  0.00  0.00    +0.000 A 
ATOM     27 CL   UNL     1       4.673   3.261  11.470  0.00  0.00    +0.000 Cl
ATOM     28  C   UNL     1       6.779   4.266  12.825  0.00  0.00    +0.000 A 
ATOM     29  C   UNL     1       7.430   4.673  13.994  0.00  0.00    +0.000 A 
ENDBRANCH  21  23
ENDBRANCH  20  21
ENDBRANCH  18  19
ENDBRANCH   1  18
TORSDOF 5
ENDMDL
MODEL 5
REMARK VINA RESULT:      -8.3      4.979      7.212
REMARK  Name = 
REMARK  5 active torsions:
REMARK  status: ('A' for Active; 'I' for Inactive)
REMARK    1  A    between atoms: C_2  and  C_3
REMARK    2  A    between atoms: C_2  and  C_13
REMARK    3  A    between atoms: C_4  and  N_5
REMARK    4  A    between atoms: N_5  and  C_6
REMARK    5  A    between atoms: C_15  and  C_16
REMARK                            x       y       z     vdW  Elec       q    Type
REMARK                         _______ _______ _______ _____ _____    ______ ____
ROOT
ATOM      1  C   UNL     1       4.559   5.242  19.087  0.00  0.00    +0.000 A 
ATOM      2  N   UNL     1       4.103   6.538  18.897  0.00  0.00    +0.000 NA
ATOM      3  C   UNL     1       2.863   6.590  19.375  0.00  0.00    +0.000 A 
ATOM      4  N   UNL     1       2.473   5.331  19.838  0.00  0.00    +0.000 N 
ATOM      5  C   UNL     1       1.251   4.859  20.336  0.00  0.00    +0.000 A 
ATOM      6  C   UNL     1       1.144   3.592  20.769  0.00  0.00    +0.000 A 
ATOM      7  C   UNL     1       2.299   2.721  20.680  0.00  0.00    +0.000 A 
ATOM      8  C   UNL     1       3.463   3.150  20.161  0.00  0.00    +0.000 A 
ATOM      9  C   UNL     1       3.578   4.496  19.709  0.00  0.00    +0.000 A 
ENDROOT
BRANCH   3  10
ATOM     10  C   UNL     1       2.018   7.800  19.354  0.00  0.00    +0.000 A 
ATOM     11  C   UNL     1       1.832   8.491  18.143  0.00  0.00    +0.000 A 
ATOM     12  C   UNL     1       0.999   9.614  18.076  0.00  0.00    +0.000 A 
ATOM     13  C   UNL     1       0.342  10.050  19.219  0.00  0.00    +0.000 A 
ATOM     14  F   UNL     1      -0.476  11.108  19.154  0.00  0.00    +0.000 F 
ATOM     15  C   UNL     1       0.532   9.408  20.434  0.00  0.00    +0.000 A 
ATOM     16  C   UNL     1       1.391   8.307  20.505  0.00  0.00    +0.000 A 
ENDBRANCH   3  10
BRANCH   1  18
ATOM     17  O   UNL     1       6.062   3.540  18.393  0.00  0.00    +0.000 OA
ATOM     18  C   UNL     1       5.854   4.727  18.649  0.00  0.00    +0.000 C 
BRANCH  18  19
ATOM     19  C   UNL     1       6.919   5.752  18.499  0.00  0.00    +0.000 C 
ATOM     20  C   UNL     1       7.043   6.453  17.360  0.00  0.00    +0.000 C 
BRANCH  20  21
ATOM     21  N   UNL     1       6.254   6.363  16.240  0.00  0.00    +0.000 N 
ATOM     22  H   UNL     1       5.488   7.045  16.216  0.00  0.00    +0.000 HD
BRANCH  21  23
ATOM     23  C   UNL     1       6.294   5.464  15.167  0.00  0.00    +0.000 A 
ATOM     24  C   UNL     1       7.352   5.391  14.254  0.00  0.00    +0.000 A 
ATOM     25  C   UNL     1       7.322   4.492  13.182  0.00  0.00    +0.000 A 
ATOM     26  C   UNL     1       6.222   3.657  13.006  0.00  0.00    +0.000 A 
ATOM     27 CL   UNL     1       6.184   2.556  11.685  0.00  0.00    +0.000 Cl
ATOM     28  C   UNL     1       5.152   3.716  13.892  0.00  0.00    +0.000 A 
ATOM     29  C   UNL     1       5.191   4.615  14.963  0.00  0.00    +0.000 A 
ENDBRANCH  21  23
ENDBRANCH  20  21
ENDBRANCH  18  19
ENDBRANCH   1  18
TORSDOF 5
ENDMDL
MODEL 6
REMARK VINA RESULT:      -8.3      0.997      1.632
REMARK  Name = 
REMARK  5 active torsions:
REMARK  status: ('A' for Active; 'I' for Inactive)
REMARK    1  A    between atoms: C_2  and  C_3
REMARK    2  A    between atoms: C_2  and  C_13
REMARK    3  A    between atoms: C_4  and  N_5
REMARK    4  A    between atoms: N_5  and  C_6
REMARK    5  A    between atoms: C_15  and  C_16
REMARK                            x       y       z     vdW  Elec       q    Type
REMARK                         _______ _______ _______ _____ _____    ______ ____
ROOT
ATOM      1  C   UNL     1       6.758   6.066  17.919  0.00  0.00    +0.000 A 
ATOM      2  N   UNL     1       5.718   5.682  18.752  0.00  0.00    +0.000 NA
ATOM      3  C   UNL     1       4.981   4.804  18.078  0.00  0.00    +0.000 A 
ATOM      4  N   UNL     1       5.493   4.635  16.789  0.00  0.00    +0.000 N 
ATOM      5  C   UNL     1       5.024   3.903  15.690  0.00  0.00    +0.000 A 
ATOM      6  C   UNL     1       5.739   3.864  14.553  0.00  0.00    +0.000 A 
ATOM      7  C   UNL     1       6.977   4.615  14.476  0.00  0.00    +0.000 A 
ATOM      8  C   UNL     1       7.411   5.357  15.510  0.00  0.00    +0.000 A 
ATOM      9  C   UNL     1       6.656   5.392  16.717  0.00  0.00    +0.000 A 
ENDROOT
BRANCH   3  10
ATOM     10  C   UNL     1       3.766   4.158  18.614  0.00  0.00    +0.000 A 
ATOM     11  C   UNL     1       2.563   4.884  18.663  0.00  0.00    +0.000 A 
ATOM     12  C   UNL     1       1.382   4.289  19.121  0.00  0.00    +0.000 A 
ATOM     13  C   UNL     1       1.395   2.962  19.527  0.00  0.00    +0.000 A 
ATOM     14  F   UNL     1       0.262   2.380  19.941  0.00  0.00    +0.000 F 
ATOM     15  C   UNL     1       2.574   2.231  19.521  0.00  0.00    +0.000 A 
ATOM     16  C   UNL     1       3.759   2.838  19.096  0.00  0.00    +0.000 A 
ENDBRANCH   3  10
BRANCH   1  18
ATOM     17  O   UNL     1       8.561   6.962  19.175  0.00  0.00    +0.000 OA
ATOM     18  C   UNL     1       7.772   7.068  18.236  0.00  0.00    +0.000 C 
BRANCH  18  19
ATOM     19  C   UNL     1       7.813   8.233  17.315  0.00  0.00    +0.000 C 
ATOM     20  C   UNL     1       8.302   9.415  17.724  0.00  0.00    +0.000 C 
BRANCH  20  21
ATOM     21  N   UNL     1       8.825   9.716  18.957  0.00  0.00    +0.000 N 
ATOM     22  H   UNL     1       8.881   8.912  19.592  0.00  0.00    +0.000 HD
BRANCH  21  23
ATOM     23  C   UNL     1       9.238  10.940  19.498  0.00  0.00    +0.000 A 
ATOM     24  C   UNL     1       9.600  12.049  18.725  0.00  0.00    +0.000 A 
ATOM     25  C   UNL     1      10.033  13.237  19.323  0.00  0.00    +0.000 A 
ATOM     26  C   UNL     1      10.118  13.327  20.709  0.00  0.00    +0.000 A 
ATOM     27 CL   UNL     1      10.656  14.787  21.443  0.00  0.00    +0.000 Cl
ATOM     28  C   UNL     1       9.774  12.238  21.502  0.00  0.00    +0.000 A 
ATOM     29  C   UNL     1       9.338  11.054  20.897  0.00  0.00    +0.000 A 
ENDBRANCH  21  23
ENDBRANCH  20  21
ENDBRANCH  18  19
ENDBRANCH   1  18
TORSDOF 5
ENDMDL
MODEL 7
REMARK VINA RESULT:      -8.3      5.085      7.136
REMARK  Name = 
REMARK  5 active torsions:
REMARK  status: ('A' for Active; 'I' for Inactive)
REMARK    1  A    between atoms: C_2  and  C_3
REMARK    2  A    between atoms: C_2  and  C_13
REMARK    3  A    between atoms: C_4  and  N_5
REMARK    4  A    between atoms: N_5  and  C_6
REMARK    5  A    between atoms: C_15  and  C_16
REMARK                            x       y       z     vdW  Elec       q    Type
REMARK                         _______ _______ _______ _____ _____    ______ ____
ROOT
ATOM      1  C   UNL     1       4.825   5.483  18.654  0.00  0.00    +0.000 A 
ATOM      2  N   UNL     1       4.279   6.673  19.111  0.00  0.00    +0.000 NA
ATOM      3  C   UNL     1       2.969   6.478  19.237  0.00  0.00    +0.000 A 
ATOM      4  N   UNL     1       2.633   5.188  18.822  0.00  0.00    +0.000 N 
ATOM      5  C   UNL     1       1.394   4.549  18.678  0.00  0.00    +0.000 A 
ATOM      6  C   UNL     1       1.339   3.262  18.300  0.00  0.00    +0.000 A 
ATOM      7  C   UNL     1       2.576   2.562  18.014  0.00  0.00    +0.000 A 
ATOM      8  C   UNL     1       3.768   3.179  18.105  0.00  0.00    +0.000 A 
ATOM      9  C   UNL     1       3.825   4.542  18.513  0.00  0.00    +0.000 A 
ENDROOT
BRANCH   3  10
ATOM     10  C   UNL     1       2.019   7.513  19.693  0.00  0.00    +0.000 A 
ATOM     11  C   UNL     1       1.739   8.609  18.858  0.00  0.00    +0.000 A 
ATOM     12  C   UNL     1       0.807   9.582  19.238  0.00  0.00    +0.000 A 
ATOM     13  C   UNL     1       0.146   9.463  20.453  0.00  0.00    +0.000 A 
ATOM     14  F   UNL     1      -0.764  10.378  20.808  0.00  0.00    +0.000 F 
ATOM     15  C   UNL     1       0.427   8.410  21.311  0.00  0.00    +0.000 A 
ATOM     16  C   UNL     1       1.382   7.457  20.944  0.00  0.00    +0.000 A 
ENDBRANCH   3  10
BRANCH   1  18
ATOM     17  O   UNL     1       6.841   4.232  18.573  0.00  0.00    +0.000 OA
ATOM     18  C   UNL     1       6.231   5.270  18.317  0.00  0.00    +0.000 C 
BRANCH  18  19
ATOM     19  C   UNL     1       6.884   6.399  17.605  0.00  0.00    +0.000 C 
ATOM     20  C   UNL     1       7.505   6.204  16.431  0.00  0.00    +0.000 C 
BRANCH  20  21
ATOM     21  N   UNL     1       7.613   5.025  15.735  0.00  0.00    +0.000 N 
ATOM     22  H   UNL     1       8.382   4.425  16.050  0.00  0.00    +0.000 HD
BRANCH  21  23
ATOM     23  C   UNL     1       6.884   4.544  14.639  0.00  0.00    +0.000 A 
ATOM     24  C   UNL     1       7.393   4.475  13.337  0.00  0.00    +0.000 A 
ATOM     25  C   UNL     1       6.605   4.013  12.278  0.00  0.00    +0.000 A 
ATOM     26  C   UNL     1       5.289   3.621  12.508  0.00  0.00    +0.000 A 
ATOM     27 CL   UNL     1       4.321   3.059  11.202  0.00  0.00    +0.000 Cl
ATOM     28  C   UNL     1       4.755   3.689  13.790  0.00  0.00    +0.000 A 
ATOM     29  C   UNL     1       5.549   4.149  14.845  0.00  0.00    +0.000 A 
ENDBRANCH  21  23
ENDBRANCH  20  21
ENDBRANCH  18  19
ENDBRANCH   1  18
TORSDOF 5
ENDMDL
MODEL 8
REMARK VINA RESULT:      -8.3      5.158      7.249
REMARK  Name = 
REMARK  5 active torsions:
REMARK  status: ('A' for Active; 'I' for Inactive)
REMARK    1  A    between atoms: C_2  and  C_3
REMARK    2  A    between atoms: C_2  and  C_13
REMARK    3  A    between atoms: C_4  and  N_5
REMARK    4  A    between atoms: N_5  and  C_6
REMARK    5  A    between atoms: C_15  and  C_16
REMARK                            x       y       z     vdW  Elec       q    Type
REMARK                         _______ _______ _______ _____ _____    ______ ____
ROOT
ATOM      1  C   UNL     1       5.037   5.617  18.286  0.00  0.00    +0.000 A 
ATOM      2  N   UNL     1       4.475   6.847  18.594  0.00  0.00    +0.000 NA
ATOM      3  C   UNL     1       3.157   6.674  18.639  0.00  0.00    +0.000 A 
ATOM      4  N   UNL     1       2.835   5.353  18.317  0.00  0.00    +0.000 N 
ATOM      5  C   UNL     1       1.601   4.713  18.138  0.00  0.00    +0.000 A 
ATOM      6  C   UNL     1       1.557   3.397  17.874  0.00  0.00    +0.000 A 
ATOM      7  C   UNL     1       2.802   2.666  17.745  0.00  0.00    +0.000 A 
ATOM      8  C   UNL     1       3.992   3.280  17.868  0.00  0.00    +0.000 A 
ATOM      9  C   UNL     1       4.037   4.674  18.156  0.00  0.00    +0.000 A 
ENDROOT
BRANCH   3  10
ATOM     10  C   UNL     1       2.190   7.751  18.929  0.00  0.00    +0.000 A 
ATOM     11  C   UNL     1       1.724   7.925  20.244  0.00  0.00    +0.000 A 
ATOM     12  C   UNL     1       0.845   8.966  20.563  0.00  0.00    +0.000 A 
ATOM     13  C   UNL     1       0.429   9.843  19.571  0.00  0.00    +0.000 A 
ATOM     14  F   UNL     1      -0.392  10.855  19.877  0.00  0.00    +0.000 F 
ATOM     15  C   UNL     1       0.846   9.675  18.258  0.00  0.00    +0.000 A 
ATOM     16  C   UNL     1       1.698   8.615  17.936  0.00  0.00    +0.000 A 
ENDBRANCH   3  10
BRANCH   1  18
ATOM     17  O   UNL     1       7.045   4.370  18.504  0.00  0.00    +0.000 OA
ATOM     18  C   UNL     1       6.461   5.365  18.075  0.00  0.00    +0.000 C 
BRANCH  18  19
ATOM     19  C   UNL     1       7.167   6.392  17.266  0.00  0.00    +0.000 C 
ATOM     20  C   UNL     1       7.696   6.082  16.072  0.00  0.00    +0.000 C 
BRANCH  20  21
ATOM     21  N   UNL     1       7.656   4.865  15.437  0.00  0.00    +0.000 N 
ATOM     22  H   UNL     1       8.359   4.198  15.773  0.00  0.00    +0.000 HD
BRANCH  21  23
ATOM     23  C   UNL     1       6.857   4.416  14.378  0.00  0.00    +0.000 A 
ATOM     24  C   UNL     1       7.329   4.223  13.075  0.00  0.00    +0.000 A 
ATOM     25  C   UNL     1       6.474   3.800  12.052  0.00  0.00    +0.000 A 
ATOM     26  C   UNL     1       5.127   3.574  12.319  0.00  0.00    +0.000 A 
ATOM     27 CL   UNL     1       4.076   3.061  11.058  0.00  0.00    +0.000 Cl
ATOM     28  C   UNL     1       4.628   3.768  13.603  0.00  0.00    +0.000 A 
ATOM     29  C   UNL     1       5.490   4.187  14.622  0.00  0.00    +0.000 A 
ENDBRANCH  21  23
ENDBRANCH  20  21
ENDBRANCH  18  19
ENDBRANCH   1  18
TORSDOF 5
ENDMDL
MODEL 9
REMARK VINA RESULT:      -8.2      4.904      7.074
REMARK  Name = 
REMARK  5 active torsions:
REMARK  status: ('A' for Active; 'I' for Inactive)
REMARK    1  A    between atoms: C_2  and  C_3
REMARK    2  A    between atoms: C_2  and  C_13
REMARK    3  A    between atoms: C_4  and  N_5
REMARK    4  A    between atoms: N_5  and  C_6
REMARK    5  A    between atoms: C_15  and  C_16
REMARK                            x       y       z     vdW  Elec       q    Type
REMARK                         _______ _______ _______ _____ _____    ______ ____
ROOT
ATOM      1  C   UNL     1       4.551   5.163  19.132  0.00  0.00    +0.000 A 
ATOM      2  N   UNL     1       4.110   6.461  18.927  0.00  0.00    +0.000 NA
ATOM      3  C   UNL     1       2.869   6.532  19.401  0.00  0.00    +0.000 A 
ATOM      4  N   UNL     1       2.464   5.282  19.875  0.00  0.00    +0.000 N 
ATOM      5  C   UNL     1       1.235   4.828  20.373  0.00  0.00    +0.000 A 
ATOM      6  C   UNL     1       1.113   3.567  20.818  0.00  0.00    +0.000 A 
ATOM      7  C   UNL     1       2.259   2.682  20.742  0.00  0.00    +0.000 A 
ATOM      8  C   UNL     1       3.430   3.094  20.223  0.00  0.00    +0.000 A 
ATOM      9  C   UNL     1       3.560   4.434  19.758  0.00  0.00    +0.000 A 
ENDROOT
BRANCH   3  10
ATOM     10  C   UNL     1       2.037   7.751  19.365  0.00  0.00    +0.000 A 
ATOM     11  C   UNL     1       1.452   8.223  20.553  0.00  0.00    +0.000 A 
ATOM     12  C   UNL     1       0.697   9.401  20.564  0.00  0.00    +0.000 A 
ATOM     13  C   UNL     1       0.526  10.119  19.388  0.00  0.00    +0.000 A 
ATOM     14  F   UNL     1      -0.173  11.260  19.399  0.00  0.00    +0.000 F 
ATOM     15  C   UNL     1       1.064   9.659  18.194  0.00  0.00    +0.000 A 
ATOM     16  C   UNL     1       1.790   8.464  18.180  0.00  0.00    +0.000 A 
ENDBRANCH   3  10
BRANCH   1  18
ATOM     17  O   UNL     1       6.009   3.464  18.343  0.00  0.00    +0.000 OA
ATOM     18  C   UNL     1       5.842   4.629  18.703  0.00  0.00    +0.000 C 
BRANCH  18  19
ATOM     19  C   UNL     1       6.957   5.611  18.698  0.00  0.00    +0.000 C 
ATOM     20  C   UNL     1       7.151   6.426  17.649  0.00  0.00    +0.000 C 
BRANCH  20  21
ATOM     21  N   UNL     1       6.397   6.500  16.504  0.00  0.00    +0.000 N 
ATOM     22  H   UNL     1       5.784   7.321  16.462  0.00  0.00    +0.000 HD
BRANCH  21  23
ATOM     23  C   UNL     1       6.291   5.613  15.425  0.00  0.00    +0.000 A 
ATOM     24  C   UNL     1       5.170   4.811  15.186  0.00  0.00    +0.000 A 
ATOM     25  C   UNL     1       5.135   3.921  14.106  0.00  0.00    +0.000 A 
ATOM     26  C   UNL     1       6.232   3.817  13.255  0.00  0.00    +0.000 A 
ATOM     27 CL   UNL     1       6.189   2.719  11.932  0.00  0.00    +0.000 Cl
ATOM     28  C   UNL     1       7.363   4.596  13.475  0.00  0.00    +0.000 A 
ATOM     29  C   UNL     1       7.388   5.486  14.554  0.00  0.00    +0.000 A 
ENDBRANCH  21  23
ENDBRANCH  20  21
ENDBRANCH  18  19
ENDBRANCH   1  18
TORSDOF 5
ENDMDL
