MODEL 1
REMARK VINA RESULT:      -7.2      0.000      0.000
REMARK  Name = 
REMARK  1 active torsions:
REMARK  status: ('A' for Active; 'I' for Inactive)
REMARK    1  A    between atoms: C_12  and  N_13
REMARK                            x       y       z     vdW  Elec       q    Type
REMARK                         _______ _______ _______ _____ _____    ______ ____
ROOT
ATOM      1  O   UNL     1       3.040   3.098  17.193  0.00  0.00    +0.000 OA
ATOM      2  C   UNL     1       4.018   3.674  17.654  0.00  0.00    +0.000 C 
ATOM      3  C   UNL     1       5.080   4.155  16.751  0.00  0.00    +0.000 A 
ATOM      4  C   UNL     1       5.089   3.769  15.408  0.00  0.00    +0.000 A 
ATOM      5  C   UNL     1       6.144   4.169  14.597  0.00  0.00    +0.000 A 
ATOM      6 BR   UNL     1       6.192   3.625  12.787  0.00  0.00    +0.000 Br
ATOM      7  C   UNL     1       7.180   4.952  15.110  0.00  0.00    +0.000 A 
ATOM      8  C   UNL     1       7.154   5.346  16.450  0.00  0.00    +0.000 A 
ATOM      9  C   UNL     1       6.100   4.955  17.273  0.00  0.00    +0.000 A 
ATOM     10  O   UNL     1       6.157   5.364  18.578  0.00  0.00    +0.000 OA
ATOM     11  C   UNL     1       4.902   5.270  19.271  0.00  0.00    +0.000 C 
ATOM     12  C   UNL     1       4.285   3.885  19.124  0.00  0.00    +0.000 C 
ENDROOT
BRANCH  12  13
ATOM     13  N   UNL     1       3.101   3.708  19.945  0.00  0.00    +0.000 N 
ATOM     14  C   UNL     1       2.888   2.700  20.848  0.00  0.00    +0.000 A 
ATOM     15  C   UNL     1       1.651   2.964  21.388  0.00  0.00    +0.000 A 
ATOM     16  N   UNL     1       1.119   4.107  20.852  0.00  0.00    +0.000 NA
ATOM     17  C   UNL     1       2.006   4.527  19.979  0.00  0.00    +0.000 A 
ENDBRANCH  12  13
TORSDOF 1
ENDMDL
MODEL 2
REMARK VINA RESULT:      -7.0      3.620      6.159
REMARK  Name = 
REMARK  1 active torsions:
REMARK  status: ('A' for Active; 'I' for Inactive)
REMARK    1  A    between atoms: C_12  and  N_13
REMARK                            x       y       z     vdW  Elec       q    Type
REMARK                         _______ _______ _______ _____ _____    ______ ____
ROOT
ATOM      1  O   UNL     1       4.584   6.915  17.007  0.00  0.00    +0.000 OA
ATOM      2  C   UNL     1       4.414   5.836  17.560  0.00  0.00    +0.000 C 
ATOM      3  C   UNL     1       3.410   5.710  18.634  0.00  0.00    +0.000 A 
ATOM      4  C   UNL     1       2.813   6.853  19.173  0.00  0.00    +0.000 A 
ATOM      5  C   UNL     1       1.931   6.716  20.238  0.00  0.00    +0.000 A 
ATOM      6 BR   UNL     1       1.143   8.253  21.006  0.00  0.00    +0.000 Br
ATOM      7  C   UNL     1       1.637   5.455  20.761  0.00  0.00    +0.000 A 
ATOM      8  C   UNL     1       2.227   4.317  20.205  0.00  0.00    +0.000 A 
ATOM      9  C   UNL     1       3.109   4.441  19.134  0.00  0.00    +0.000 A 
ATOM     10  O   UNL     1       3.662   3.282  18.658  0.00  0.00    +0.000 OA
ATOM     11  C   UNL     1       4.245   3.411  17.351  0.00  0.00    +0.000 C 
ATOM     12  C   UNL     1       5.214   4.585  17.285  0.00  0.00    +0.000 C 
ENDROOT
BRANCH  12  13
ATOM     13  N   UNL     1       5.941   4.644  16.030  0.00  0.00    +0.000 N 
ATOM     14  C   UNL     1       5.504   4.168  14.822  0.00  0.00    +0.000 A 
ATOM     15  C   UNL     1       6.515   4.468  13.938  0.00  0.00    +0.000 A 
ATOM     16  N   UNL     1       7.538   5.122  14.571  0.00  0.00    +0.000 NA
ATOM     17  C   UNL     1       7.172   5.203  15.830  0.00  0.00    +0.000 A 
ENDBRANCH  12  13
TORSDOF 1
ENDMDL
MODEL 3
REMARK VINA RESULT:      -6.9      1.403      1.588
REMARK  Name = 
REMARK  1 active torsions:
REMARK  status: ('A' for Active; 'I' for Inactive)
REMARK    1  A    between atoms: C_12  and  N_13
REMARK                            x       y       z     vdW  Elec       q    Type
REMARK                         _______ _______ _______ _____ _____    ______ ____
ROOT
ATOM      1  O   UNL     1       3.619   2.462  17.927  0.00  0.00    +0.000 OA
ATOM      2  C   UNL     1       3.826   3.656  18.102  0.00  0.00    +0.000 C 
ATOM      3  C   UNL     1       4.403   4.469  17.015  0.00  0.00    +0.000 A 
ATOM      4  C   UNL     1       4.916   3.850  15.871  0.00  0.00    +0.000 A 
ATOM      5  C   UNL     1       5.527   4.630  14.898  0.00  0.00    +0.000 A 
ATOM      6 BR   UNL     1       6.261   3.806  13.362  0.00  0.00    +0.000 Br
ATOM      7  C   UNL     1       5.623   6.014  15.050  0.00  0.00    +0.000 A 
ATOM      8  C   UNL     1       5.093   6.626  16.190  0.00  0.00    +0.000 A 
ATOM      9  C   UNL     1       4.475   5.856  17.171  0.00  0.00    +0.000 A 
ATOM     10  O   UNL     1       3.999   6.525  18.267  0.00  0.00    +0.000 OA
ATOM     11  C   UNL     1       3.057   5.769  19.046  0.00  0.00    +0.000 C 
ATOM     12  C   UNL     1       3.604   4.393  19.401  0.00  0.00    +0.000 C 
ENDROOT
BRANCH  12  13
ATOM     13  N   UNL     1       2.747   3.668  20.322  0.00  0.00    +0.000 N 
ATOM     14  C   UNL     1       1.381   3.742  20.381  0.00  0.00    +0.000 A 
ATOM     15  C   UNL     1       1.022   2.872  21.384  0.00  0.00    +0.000 A 
ATOM     16  N   UNL     1       2.127   2.265  21.920  0.00  0.00    +0.000 NA
ATOM     17  C   UNL     1       3.151   2.771  21.272  0.00  0.00    +0.000 A 
ENDBRANCH  12  13
TORSDOF 1
ENDMDL
MODEL 4
REMARK VINA RESULT:      -6.9      3.564      6.001
REMARK  Name = 
REMARK  1 active torsions:
REMARK  status: ('A' for Active; 'I' for Inactive)
REMARK    1  A    between atoms: C_12  and  N_13
REMARK                            x       y       z     vdW  Elec       q    Type
REMARK                         _______ _______ _______ _____ _____    ______ ____
ROOT
ATOM      1  O   UNL     1       4.796   3.223  17.481  0.00  0.00    +0.000 OA
ATOM      2  C   UNL     1       4.341   4.356  17.574  0.00  0.00    +0.000 C 
ATOM      3  C   UNL     1       3.470   4.707  18.711  0.00  0.00    +0.000 A 
ATOM      4  C   UNL     1       2.984   3.707  19.558  0.00  0.00    +0.000 A 
ATOM      5  C   UNL     1       2.101   4.052  20.573  0.00  0.00    +0.000 A 
ATOM      6 BR   UNL     1       1.404   2.708  21.705  0.00  0.00    +0.000 Br
ATOM      7  C   UNL     1       1.706   5.379  20.754  0.00  0.00    +0.000 A 
ATOM      8  C   UNL     1       2.210   6.375  19.912  0.00  0.00    +0.000 A 
ATOM      9  C   UNL     1       3.099   6.042  18.893  0.00  0.00    +0.000 A 
ATOM     10  O   UNL     1       3.531   7.069  18.097  0.00  0.00    +0.000 OA
ATOM     11  C   UNL     1       4.706   6.756  17.331  0.00  0.00    +0.000 C 
ATOM     12  C   UNL     1       4.536   5.455  16.557  0.00  0.00    +0.000 C 
ENDROOT
BRANCH  12  13
ATOM     13  N   UNL     1       5.638   5.194  15.648  0.00  0.00    +0.000 N 
ATOM     14  C   UNL     1       5.554   4.558  14.438  0.00  0.00    +0.000 A 
ATOM     15  C   UNL     1       6.837   4.568  13.943  0.00  0.00    +0.000 A 
ATOM     16  N   UNL     1       7.688   5.203  14.808  0.00  0.00    +0.000 NA
ATOM     17  C   UNL     1       6.944   5.559  15.829  0.00  0.00    +0.000 A 
ENDBRANCH  12  13
TORSDOF 1
ENDMDL
MODEL 5
REMARK VINA RESULT:      -6.2      4.629      5.951
REMARK  Name = 
REMARK  1 active torsions:
REMARK  status: ('A' for Active; 'I' for Inactive)
REMARK    1  A    between atoms: C_12  and  N_13
REMARK                            x       y       z     vdW  Elec       q    Type
REMARK                         _______ _______ _______ _____ _____    ______ ____
ROOT
ATOM      1  O   UNL     1       2.031   5.851  20.843  0.00  0.00    +0.000 OA
ATOM      2  C   UNL     1       2.265   6.330  19.740  0.00  0.00    +0.000 C 
ATOM      3  C   UNL     1       1.942   7.744  19.470  0.00  0.00    +0.000 A 
ATOM      4  C   UNL     1       1.175   8.476  20.381  0.00  0.00    +0.000 A 
ATOM      5  C   UNL     1       0.815   9.780  20.066  0.00  0.00    +0.000 A 
ATOM      6 BR   UNL     1      -0.254  10.772  21.269  0.00  0.00    +0.000 Br
ATOM      7  C   UNL     1       1.218  10.360  18.862  0.00  0.00    +0.000 A 
ATOM      8  C   UNL     1       1.998   9.626  17.964  0.00  0.00    +0.000 A 
ATOM      9  C   UNL     1       2.369   8.318  18.269  0.00  0.00    +0.000 A 
ATOM     10  O   UNL     1       3.116   7.658  17.331  0.00  0.00    +0.000 OA
ATOM     11  C   UNL     1       3.781   6.488  17.836  0.00  0.00    +0.000 C 
ATOM     12  C   UNL     1       2.811   5.563  18.560  0.00  0.00    +0.000 C 
ENDROOT
BRANCH  12  13
ATOM     13  N   UNL     1       3.417   4.299  18.939  0.00  0.00    +0.000 N 
ATOM     14  C   UNL     1       2.824   3.067  18.869  0.00  0.00    +0.000 A 
ATOM     15  C   UNL     1       3.784   2.186  19.309  0.00  0.00    +0.000 A 
ATOM     16  N   UNL     1       4.942   2.847  19.626  0.00  0.00    +0.000 NA
ATOM     17  C   UNL     1       4.689   4.116  19.406  0.00  0.00    +0.000 A 
ENDBRANCH  12  13
TORSDOF 1
ENDMDL
MODEL 6
REMARK VINA RESULT:      -6.1      5.007      6.765
REMARK  Name = 
REMARK  1 active torsions:
REMARK  status: ('A' for Active; 'I' for Inactive)
REMARK    1  A    between atoms: C_12  and  N_13
REMARK                            x       y       z     vdW  Elec       q    Type
REMARK                         _______ _______ _______ _____ _____    ______ ____
ROOT
ATOM      1  O   UNL     1       2.419   5.852  20.491  0.00  0.00    +0.000 OA
ATOM      2  C   UNL     1       2.268   6.687  19.608  0.00  0.00    +0.000 C 
ATOM      3  C   UNL     1       1.677   7.999  19.930  0.00  0.00    +0.000 A 
ATOM      4  C   UNL     1       1.089   8.217  21.179  0.00  0.00    +0.000 A 
ATOM      5  C   UNL     1       0.468   9.434  21.430  0.00  0.00    +0.000 A 
ATOM      6 BR   UNL     1      -0.366   9.733  23.100  0.00  0.00    +0.000 Br
ATOM      7  C   UNL     1       0.435  10.432  20.454  0.00  0.00    +0.000 A 
ATOM      8  C   UNL     1       1.039  10.211  19.213  0.00  0.00    +0.000 A 
ATOM      9  C   UNL     1       1.669   8.996  18.951  0.00  0.00    +0.000 A 
ATOM     10  O   UNL     1       2.220   8.848  17.706  0.00  0.00    +0.000 OA
ATOM     11  C   UNL     1       3.163   7.768  17.613  0.00  0.00    +0.000 C 
ATOM     12  C   UNL     1       2.577   6.467  18.146  0.00  0.00    +0.000 C 
ENDROOT
BRANCH  12  13
ATOM     13  N   UNL     1       3.444   5.325  17.917  0.00  0.00    +0.000 N 
ATOM     14  C   UNL     1       3.044   4.072  17.536  0.00  0.00    +0.000 A 
ATOM     15  C   UNL     1       4.208   3.347  17.427  0.00  0.00    +0.000 A 
ATOM     16  N   UNL     1       5.297   4.127  17.715  0.00  0.00    +0.000 NA
ATOM     17  C   UNL     1       4.808   5.308  18.018  0.00  0.00    +0.000 A 
ENDBRANCH  12  13
TORSDOF 1
ENDMDL
MODEL 7
REMARK VINA RESULT:      -6.0      4.481      6.094
REMARK  Name = 
REMARK  1 active torsions:
REMARK  status: ('A' for Active; 'I' for Inactive)
REMARK    1  A    between atoms: C_12  and  N_13
REMARK                            x       y       z     vdW  Elec       q    Type
REMARK                         _______ _______ _______ _____ _____    ______ ____
ROOT
ATOM      1  O   UNL     1       1.955   4.999  21.158  0.00  0.00    +0.000 OA
ATOM      2  C   UNL     1       2.075   5.648  20.126  0.00  0.00    +0.000 C 
ATOM      3  C   UNL     1       1.752   7.087  20.123  0.00  0.00    +0.000 A 
ATOM      4  C   UNL     1       1.106   7.665  21.220  0.00  0.00    +0.000 A 
ATOM      5  C   UNL     1       0.741   9.004  21.159  0.00  0.00    +0.000 A 
ATOM      6 BR   UNL     1      -0.167   9.793  22.618  0.00  0.00    +0.000 Br
ATOM      7  C   UNL     1       1.018   9.769  20.025  0.00  0.00    +0.000 A 
ATOM      8  C   UNL     1       1.678   9.186  18.939  0.00  0.00    +0.000 A 
ATOM      9  C   UNL     1       2.054   7.846  18.988  0.00  0.00    +0.000 A 
ATOM     10  O   UNL     1       2.678   7.343  17.878  0.00  0.00    +0.000 OA
ATOM     11  C   UNL     1       3.371   6.106  18.112  0.00  0.00    +0.000 C 
ATOM     12  C   UNL     1       2.469   5.079  18.785  0.00  0.00    +0.000 C 
ENDROOT
BRANCH  12  13
ATOM     13  N   UNL     1       3.088   3.769  18.886  0.00  0.00    +0.000 N 
ATOM     14  C   UNL     1       4.285   3.487  19.488  0.00  0.00    +0.000 A 
ATOM     15  C   UNL     1       4.438   2.127  19.352  0.00  0.00    +0.000 A 
ATOM     16  N   UNL     1       3.364   1.579  18.701  0.00  0.00    +0.000 NA
ATOM     17  C   UNL     1       2.574   2.590  18.422  0.00  0.00    +0.000 A 
ENDBRANCH  12  13
TORSDOF 1
ENDMDL
MODEL 8
REMARK VINA RESULT:      -5.8      5.437      6.578
REMARK  Name = 
REMARK  1 active torsions:
REMARK  status: ('A' for Active; 'I' for Inactive)
REMARK    1  A    between atoms: C_12  and  N_13
REMARK                            x       y       z     vdW  Elec       q    Type
REMARK                         _______ _______ _______ _____ _____    ______ ____
ROOT
ATOM      1  O   UNL     1       2.155   9.798  17.426  0.00  0.00    +0.000 OA
ATOM      2  C   UNL     1       1.832   9.083  18.366  0.00  0.00    +0.000 C 
ATOM      3  C   UNL     1       2.510   7.789  18.571  0.00  0.00    +0.000 A 
ATOM      4  C   UNL     1       3.357   7.275  17.584  0.00  0.00    +0.000 A 
ATOM      5  C   UNL     1       3.920   6.018  17.765  0.00  0.00    +0.000 A 
ATOM      6 BR   UNL     1       5.037   5.291  16.424  0.00  0.00    +0.000 Br
ATOM      7  C   UNL     1       3.653   5.277  18.917  0.00  0.00    +0.000 A 
ATOM      8  C   UNL     1       2.818   5.805  19.905  0.00  0.00    +0.000 A 
ATOM      9  C   UNL     1       2.250   7.066  19.738  0.00  0.00    +0.000 A 
ATOM     10  O   UNL     1       1.427   7.506  20.741  0.00  0.00    +0.000 OA
ATOM     11  C   UNL     1       1.181   8.921  20.711  0.00  0.00    +0.000 C 
ATOM     12  C   UNL     1       0.713   9.377  19.335  0.00  0.00    +0.000 C 
ENDROOT
BRANCH  12  13
ATOM     13  N   UNL     1       0.299  10.769  19.315  0.00  0.00    +0.000 N 
ATOM     14  C   UNL     1      -0.760  11.287  18.619  0.00  0.00    +0.000 A 
ATOM     15  C   UNL     1      -0.765  12.627  18.926  0.00  0.00    +0.000 A 
ATOM     16  N   UNL     1       0.248  12.931  19.797  0.00  0.00    +0.000 NA
ATOM     17  C   UNL     1       0.879  11.798  20.005  0.00  0.00    +0.000 A 
ENDBRANCH  12  13
TORSDOF 1
ENDMDL
MODEL 9
REMARK VINA RESULT:      -5.5      4.723      6.614
REMARK  Name = 
REMARK  1 active torsions:
REMARK  status: ('A' for Active; 'I' for Inactive)
REMARK    1  A    between atoms: C_12  and  N_13
REMARK                            x       y       z     vdW  Elec       q    Type
REMARK                         _______ _______ _______ _____ _____    ______ ____
ROOT
ATOM      1  O   UNL     1       2.960   7.885  17.291  0.00  0.00    +0.000 OA
ATOM      2  C   UNL     1       2.683   7.556  18.438  0.00  0.00    +0.000 C 
ATOM      3  C   UNL     1       1.762   8.385  19.238  0.00  0.00    +0.000 A 
ATOM      4  C   UNL     1       1.381   9.651  18.782  0.00  0.00    +0.000 A 
ATOM      5  C   UNL     1       0.578  10.446  19.590  0.00  0.00    +0.000 A 
ATOM      6 BR   UNL     1       0.083  12.175  19.006  0.00  0.00    +0.000 Br
ATOM      7  C   UNL     1       0.150   9.990  20.838  0.00  0.00    +0.000 A 
ATOM      8  C   UNL     1       0.524   8.718  21.279  0.00  0.00    +0.000 A 
ATOM      9  C   UNL     1       1.325   7.909  20.477  0.00  0.00    +0.000 A 
ATOM     10  O   UNL     1       1.665   6.685  20.987  0.00  0.00    +0.000 OA
ATOM     11  C   UNL     1       2.152   5.760  20.001  0.00  0.00    +0.000 C 
ATOM     12  C   UNL     1       3.271   6.371  19.166  0.00  0.00    +0.000 C 
ENDROOT
BRANCH  12  13
ATOM     13  N   UNL     1       3.894   5.411  18.273  0.00  0.00    +0.000 N 
ATOM     14  C   UNL     1       5.228   5.333  17.975  0.00  0.00    +0.000 A 
ATOM     15  C   UNL     1       5.337   4.267  17.114  0.00  0.00    +0.000 A 
ATOM     16  N   UNL     1       4.114   3.690  16.895  0.00  0.00    +0.000 NA
ATOM     17  C   UNL     1       3.263   4.405  17.594  0.00  0.00    +0.000 A 
ENDBRANCH  12  13
TORSDOF 1
ENDMDL
