MODEL 1
REMARK VINA RESULT:      -6.8      0.000      0.000
REMARK  Name = 
REMARK  2 active torsions:
REMARK  status: ('A' for Active; 'I' for Inactive)
REMARK    1  A    between atoms: C_4  and  C_5
REMARK    2  A    between atoms: C_5  and  N_6
REMARK                            x       y       z     vdW  Elec       q    Type
REMARK                         _______ _______ _______ _____ _____    ______ ____
ROOT
ATOM      1  N   UNL     1       4.382   4.186  16.483  0.00  0.00    +0.000 NA
ATOM      2  C   UNL     1       3.743   3.656  17.465  0.00  0.00    +0.000 C 
ATOM      3  C   UNL     1       2.238   3.919  17.436  0.00  0.00    +0.000 C 
ATOM      4  C   UNL     1       1.542   4.068  18.780  0.00  0.00    +0.000 C 
ATOM      5  C   UNL     1       1.501   2.751  19.546  0.00  0.00    +0.000 C 
ATOM      6  C   UNL     1       2.763   2.443  20.349  0.00  0.00    +0.000 C 
ATOM      7  C   UNL     1       4.064   3.055  19.844  0.00  0.00    +0.000 C 
ATOM      8  N   UNL     1       4.295   2.839  18.428  0.00  0.00    +0.000 N 
ATOM      9  H   UNL     1       4.230   1.854  18.180  0.00  0.00    +0.000 HD
ENDROOT
BRANCH   1  10
ATOM     10  C   UNL     1       5.832   3.971  16.392  0.00  0.00    +0.000 C 
BRANCH  10  14
ATOM     11  C   UNL     1       8.025   6.850  18.666  0.00  0.00    +0.000 A 
ATOM     12  C   UNL     1       7.489   7.234  17.444  0.00  0.00    +0.000 A 
ATOM     13  C   UNL     1       6.768   6.307  16.698  0.00  0.00    +0.000 A 
ATOM     14  C   UNL     1       6.613   5.008  17.187  0.00  0.00    +0.000 A 
ATOM     15  N   UNL     1       7.115   4.626  18.391  0.00  0.00    +0.000 NA
ATOM     16  C   UNL     1       7.809   5.552  19.093  0.00  0.00    +0.000 A 
ENDBRANCH  10  14
ENDBRANCH   1  10
TORSDOF 2
ENDMDL
MODEL 2
REMARK VINA RESULT:      -6.6      0.793      1.264
REMARK  Name = 
REMARK  2 active torsions:
REMARK  status: ('A' for Active; 'I' for Inactive)
REMARK    1  A    between atoms: C_4  and  C_5
REMARK    2  A    between atoms: C_5  and  N_6
REMARK                            x       y       z     vdW  Elec       q    Type
REMARK                         _______ _______ _______ _____ _____    ______ ____
ROOT
ATOM      1  N   UNL     1       4.551   4.250  16.360  0.00  0.00    +0.000 NA
ATOM      2  C   UNL     1       3.901   3.706  17.327  0.00  0.00    +0.000 C 
ATOM      3  C   UNL     1       2.389   3.904  17.243  0.00  0.00    +0.000 C 
ATOM      4  C   UNL     1       1.641   4.040  18.560  0.00  0.00    +0.000 C 
ATOM      5  C   UNL     1       1.628   2.733  19.343  0.00  0.00    +0.000 C 
ATOM      6  C   UNL     1       2.874   2.491  20.194  0.00  0.00    +0.000 C 
ATOM      7  C   UNL     1       4.164   3.151  19.725  0.00  0.00    +0.000 C 
ATOM      8  N   UNL     1       4.453   2.926  18.321  0.00  0.00    +0.000 N 
ATOM      9  H   UNL     1       4.439   1.937  18.086  0.00  0.00    +0.000 HD
ENDROOT
BRANCH   1  10
ATOM     10  C   UNL     1       6.011   4.097  16.322  0.00  0.00    +0.000 C 
BRANCH  10  14
ATOM     11  C   UNL     1       8.002   7.255  18.405  0.00  0.00    +0.000 A 
ATOM     12  C   UNL     1       7.963   5.995  18.985  0.00  0.00    +0.000 A 
ATOM     13  C   UNL     1       7.323   4.958  18.313  0.00  0.00    +0.000 A 
ATOM     14  C   UNL     1       6.721   5.211  17.079  0.00  0.00    +0.000 A 
ATOM     15  N   UNL     1       6.770   6.435  16.491  0.00  0.00    +0.000 NA
ATOM     16  C   UNL     1       7.402   7.422  17.168  0.00  0.00    +0.000 A 
ENDBRANCH  10  14
ENDBRANCH   1  10
TORSDOF 2
ENDMDL
MODEL 3
REMARK VINA RESULT:      -6.5      2.669      3.807
REMARK  Name = 
REMARK  2 active torsions:
REMARK  status: ('A' for Active; 'I' for Inactive)
REMARK    1  A    between atoms: C_4  and  C_5
REMARK    2  A    between atoms: C_5  and  N_6
REMARK                            x       y       z     vdW  Elec       q    Type
REMARK                         _______ _______ _______ _____ _____    ______ ____
ROOT
ATOM      1  N   UNL     1       5.173   3.779  16.359  0.00  0.00    +0.000 NA
ATOM      2  C   UNL     1       4.343   4.242  17.226  0.00  0.00    +0.000 C 
ATOM      3  C   UNL     1       3.136   3.338  17.471  0.00  0.00    +0.000 C 
ATOM      4  C   UNL     1       1.817   4.026  17.785  0.00  0.00    +0.000 C 
ATOM      5  C   UNL     1       1.842   4.701  19.151  0.00  0.00    +0.000 C 
ATOM      6  C   UNL     1       2.454   6.101  19.156  0.00  0.00    +0.000 C 
ATOM      7  C   UNL     1       3.485   6.402  18.076  0.00  0.00    +0.000 C 
ATOM      8  N   UNL     1       4.521   5.392  17.965  0.00  0.00    +0.000 N 
ATOM      9  H   UNL     1       4.968   5.209  18.860  0.00  0.00    +0.000 HD
ENDROOT
BRANCH   1  10
ATOM     10  C   UNL     1       6.387   4.550  16.067  0.00  0.00    +0.000 C 
BRANCH  10  14
ATOM     11  C   UNL     1       7.378   4.549  11.909  0.00  0.00    +0.000 A 
ATOM     12  C   UNL     1       6.382   3.692  12.357  0.00  0.00    +0.000 A 
ATOM     13  C   UNL     1       6.047   3.689  13.707  0.00  0.00    +0.000 A 
ATOM     14  C   UNL     1       6.730   4.535  14.584  0.00  0.00    +0.000 A 
ATOM     15  N   UNL     1       7.693   5.392  14.154  0.00  0.00    +0.000 NA
ATOM     16  C   UNL     1       7.994   5.373  12.835  0.00  0.00    +0.000 A 
ENDBRANCH  10  14
ENDBRANCH   1  10
TORSDOF 2
ENDMDL
MODEL 4
REMARK VINA RESULT:      -6.5      2.396      3.402
REMARK  Name = 
REMARK  2 active torsions:
REMARK  status: ('A' for Active; 'I' for Inactive)
REMARK    1  A    between atoms: C_4  and  C_5
REMARK    2  A    between atoms: C_5  and  N_6
REMARK                            x       y       z     vdW  Elec       q    Type
REMARK                         _______ _______ _______ _____ _____    ______ ____
ROOT
ATOM      1  N   UNL     1       4.574   4.307  16.161  0.00  0.00    +0.000 NA
ATOM      2  C   UNL     1       4.116   3.692  17.195  0.00  0.00    +0.000 C 
ATOM      3  C   UNL     1       2.601   3.502  17.180  0.00  0.00    +0.000 C 
ATOM      4  C   UNL     1       1.891   3.546  18.524  0.00  0.00    +0.000 C 
ATOM      5  C   UNL     1       2.236   2.338  19.387  0.00  0.00    +0.000 C 
ATOM      6  C   UNL     1       3.533   2.476  20.183  0.00  0.00    +0.000 C 
ATOM      7  C   UNL     1       4.598   3.399  19.604  0.00  0.00    +0.000 C 
ATOM      8  N   UNL     1       4.883   3.149  18.203  0.00  0.00    +0.000 N 
ATOM      9  H   UNL     1       5.109   2.173  18.032  0.00  0.00    +0.000 HD
ENDROOT
BRANCH   1  10
ATOM     10  C   UNL     1       6.022   4.518  16.054  0.00  0.00    +0.000 C 
BRANCH  10  14
ATOM     11  C   UNL     1       7.386   4.471  12.003  0.00  0.00    +0.000 A 
ATOM     12  C   UNL     1       6.339   3.635  12.363  0.00  0.00    +0.000 A 
ATOM     13  C   UNL     1       5.883   3.646  13.678  0.00  0.00    +0.000 A 
ATOM     14  C   UNL     1       6.498   4.486  14.608  0.00  0.00    +0.000 A 
ATOM     15  N   UNL     1       7.511   5.324  14.263  0.00  0.00    +0.000 NA
ATOM     16  C   UNL     1       7.930   5.291  12.977  0.00  0.00    +0.000 A 
ENDBRANCH  10  14
ENDBRANCH   1  10
TORSDOF 2
ENDMDL
MODEL 5
REMARK VINA RESULT:      -6.4      1.941      2.755
REMARK  Name = 
REMARK  2 active torsions:
REMARK  status: ('A' for Active; 'I' for Inactive)
REMARK    1  A    between atoms: C_4  and  C_5
REMARK    2  A    between atoms: C_5  and  N_6
REMARK                            x       y       z     vdW  Elec       q    Type
REMARK                         _______ _______ _______ _____ _____    ______ ____
ROOT
ATOM      1  N   UNL     1       4.779   5.375  18.751  0.00  0.00    +0.000 NA
ATOM      2  C   UNL     1       3.749   4.744  19.193  0.00  0.00    +0.000 C 
ATOM      3  C   UNL     1       2.570   5.652  19.540  0.00  0.00    +0.000 C 
ATOM      4  C   UNL     1       1.698   5.225  20.710  0.00  0.00    +0.000 C 
ATOM      5  C   UNL     1       0.896   3.969  20.390  0.00  0.00    +0.000 C 
ATOM      6  C   UNL     1       1.652   2.660  20.610  0.00  0.00    +0.000 C 
ATOM      7  C   UNL     1       3.169   2.715  20.487  0.00  0.00    +0.000 C 
ATOM      8  N   UNL     1       3.629   3.374  19.278  0.00  0.00    +0.000 N 
ATOM      9  H   UNL     1       3.206   2.972  18.445  0.00  0.00    +0.000 HD
ENDROOT
BRANCH   1  10
ATOM     10  C   UNL     1       5.961   4.599  18.356  0.00  0.00    +0.000 C 
BRANCH  10  14
ATOM     11  C   UNL     1       6.541   4.564  14.121  0.00  0.00    +0.000 A 
ATOM     12  C   UNL     1       5.295   4.218  14.626  0.00  0.00    +0.000 A 
ATOM     13  C   UNL     1       5.093   4.232  16.002  0.00  0.00    +0.000 A 
ATOM     14  C   UNL     1       6.151   4.578  16.845  0.00  0.00    +0.000 A 
ATOM     15  N   UNL     1       7.369   4.938  16.362  0.00  0.00    +0.000 NA
ATOM     16  C   UNL     1       7.533   4.917  15.019  0.00  0.00    +0.000 A 
ENDBRANCH  10  14
ENDBRANCH   1  10
TORSDOF 2
ENDMDL
MODEL 6
REMARK VINA RESULT:      -6.4      2.344      3.334
REMARK  Name = 
REMARK  2 active torsions:
REMARK  status: ('A' for Active; 'I' for Inactive)
REMARK    1  A    between atoms: C_4  and  C_5
REMARK    2  A    between atoms: C_5  and  N_6
REMARK                            x       y       z     vdW  Elec       q    Type
REMARK                         _______ _______ _______ _____ _____    ______ ____
ROOT
ATOM      1  N   UNL     1       5.217   5.140  16.857  0.00  0.00    +0.000 NA
ATOM      2  C   UNL     1       4.255   4.406  17.296  0.00  0.00    +0.000 C 
ATOM      3  C   UNL     1       2.974   5.182  17.596  0.00  0.00    +0.000 C 
ATOM      4  C   UNL     1       2.129   4.686  18.759  0.00  0.00    +0.000 C 
ATOM      5  C   UNL     1       1.482   3.340  18.457  0.00  0.00    +0.000 C 
ATOM      6  C   UNL     1       2.377   2.131  18.725  0.00  0.00    +0.000 C 
ATOM      7  C   UNL     1       3.880   2.356  18.630  0.00  0.00    +0.000 C 
ATOM      8  N   UNL     1       4.289   3.034  17.413  0.00  0.00    +0.000 N 
ATOM      9  H   UNL     1       3.933   2.567  16.583  0.00  0.00    +0.000 HD
ENDROOT
BRANCH   1  10
ATOM     10  C   UNL     1       6.488   4.494  16.506  0.00  0.00    +0.000 C 
BRANCH  10  14
ATOM     11  C   UNL     1       7.180   4.495  12.287  0.00  0.00    +0.000 A 
ATOM     12  C   UNL     1       6.192   3.666  12.800  0.00  0.00    +0.000 A 
ATOM     13  C   UNL     1       5.954   3.662  14.171  0.00  0.00    +0.000 A 
ATOM     14  C   UNL     1       6.723   4.480  15.002  0.00  0.00    +0.000 A 
ATOM     15  N   UNL     1       7.679   5.311  14.509  0.00  0.00    +0.000 NA
ATOM     16  C   UNL     1       7.885   5.294  13.172  0.00  0.00    +0.000 A 
ENDBRANCH  10  14
ENDBRANCH   1  10
TORSDOF 2
ENDMDL
MODEL 7
REMARK VINA RESULT:      -6.4      1.868      2.800
REMARK  Name = 
REMARK  2 active torsions:
REMARK  status: ('A' for Active; 'I' for Inactive)
REMARK    1  A    between atoms: C_4  and  C_5
REMARK    2  A    between atoms: C_5  and  N_6
REMARK                            x       y       z     vdW  Elec       q    Type
REMARK                         _______ _______ _______ _____ _____    ______ ____
ROOT
ATOM      1  N   UNL     1       3.280   6.433  18.998  0.00  0.00    +0.000 NA
ATOM      2  C   UNL     1       2.500   5.421  19.147  0.00  0.00    +0.000 C 
ATOM      3  C   UNL     1       2.163   5.112  20.605  0.00  0.00    +0.000 C 
ATOM      4  C   UNL     1       1.970   3.647  20.967  0.00  0.00    +0.000 C 
ATOM      5  C   UNL     1       0.706   3.070  20.342  0.00  0.00    +0.000 C 
ATOM      6  C   UNL     1       0.874   2.585  18.903  0.00  0.00    +0.000 C 
ATOM      7  C   UNL     1       1.962   3.256  18.076  0.00  0.00    +0.000 C 
ATOM      8  N   UNL     1       1.916   4.706  18.124  0.00  0.00    +0.000 N 
ATOM      9  H   UNL     1       0.996   5.063  17.881  0.00  0.00    +0.000 HD
ENDROOT
BRANCH   1  10
ATOM     10  C   UNL     1       3.645   6.842  17.636  0.00  0.00    +0.000 C 
BRANCH  10  14
ATOM     11  C   UNL     1       7.109   4.770  16.227  0.00  0.00    +0.000 A 
ATOM     12  C   UNL     1       7.280   5.966  16.910  0.00  0.00    +0.000 A 
ATOM     13  C   UNL     1       6.160   6.646  17.378  0.00  0.00    +0.000 A 
ATOM     14  C   UNL     1       4.889   6.119  17.138  0.00  0.00    +0.000 A 
ATOM     15  N   UNL     1       4.710   4.939  16.489  0.00  0.00    +0.000 NA
ATOM     16  C   UNL     1       5.819   4.300  16.048  0.00  0.00    +0.000 A 
ENDBRANCH  10  14
ENDBRANCH   1  10
TORSDOF 2
ENDMDL
MODEL 8
REMARK VINA RESULT:      -6.4      1.314      5.402
REMARK  Name = 
REMARK  2 active torsions:
REMARK  status: ('A' for Active; 'I' for Inactive)
REMARK    1  A    between atoms: C_4  and  C_5
REMARK    2  A    between atoms: C_5  and  N_6
REMARK                            x       y       z     vdW  Elec       q    Type
REMARK                         _______ _______ _______ _____ _____    ______ ____
ROOT
ATOM      1  N   UNL     1       3.874   3.886  17.182  0.00  0.00    +0.000 NA
ATOM      2  C   UNL     1       4.828   4.710  17.435  0.00  0.00    +0.000 C 
ATOM      3  C   UNL     1       4.770   5.994  16.608  0.00  0.00    +0.000 C 
ATOM      4  C   UNL     1       6.101   6.618  16.218  0.00  0.00    +0.000 C 
ATOM      5  C   UNL     1       6.834   7.191  17.425  0.00  0.00    +0.000 C 
ATOM      6  C   UNL     1       7.659   6.171  18.209  0.00  0.00    +0.000 C 
ATOM      7  C   UNL     1       7.199   4.721  18.144  0.00  0.00    +0.000 C 
ATOM      8  N   UNL     1       5.784   4.548  18.414  0.00  0.00    +0.000 N 
ATOM      9  H   UNL     1       5.512   4.982  19.293  0.00  0.00    +0.000 HD
ENDROOT
BRANCH   1  10
ATOM     10  C   UNL     1       3.812   2.631  17.941  0.00  0.00    +0.000 C 
BRANCH  10  14
ATOM     11  C   UNL     1       1.323   2.939  21.402  0.00  0.00    +0.000 A 
ATOM     12  C   UNL     1       0.752   3.130  20.152  0.00  0.00    +0.000 A 
ATOM     13  C   UNL     1       1.551   3.026  19.018  0.00  0.00    +0.000 A 
ATOM     14  C   UNL     1       2.912   2.747  19.163  0.00  0.00    +0.000 A 
ATOM     15  N   UNL     1       3.478   2.539  20.381  0.00  0.00    +0.000 NA
ATOM     16  C   UNL     1       2.674   2.644  21.464  0.00  0.00    +0.000 A 
ENDBRANCH  10  14
ENDBRANCH   1  10
TORSDOF 2
ENDMDL
MODEL 9
REMARK VINA RESULT:      -6.4      1.874      3.036
REMARK  Name = 
REMARK  2 active torsions:
REMARK  status: ('A' for Active; 'I' for Inactive)
REMARK    1  A    between atoms: C_4  and  C_5
REMARK    2  A    between atoms: C_5  and  N_6
REMARK                            x       y       z     vdW  Elec       q    Type
REMARK                         _______ _______ _______ _____ _____    ______ ____
ROOT
ATOM      1  N   UNL     1       5.389   3.633  19.020  0.00  0.00    +0.000 NA
ATOM      2  C   UNL     1       4.252   3.816  19.593  0.00  0.00    +0.000 C 
ATOM      3  C   UNL     1       3.647   2.545  20.187  0.00  0.00    +0.000 C 
ATOM      4  C   UNL     1       2.131   2.429  20.158  0.00  0.00    +0.000 C 
ATOM      5  C   UNL     1       1.468   3.426  21.101  0.00  0.00    +0.000 C 
ATOM      6  C   UNL     1       1.270   4.822  20.512  0.00  0.00    +0.000 C 
ATOM      7  C   UNL     1       2.242   5.251  19.421  0.00  0.00    +0.000 C 
ATOM      8  N   UNL     1       3.635   5.036  19.768  0.00  0.00    +0.000 N 
ATOM      9  H   UNL     1       3.872   5.462  20.660  0.00  0.00    +0.000 HD
ENDROOT
BRANCH   1  10
ATOM     10  C   UNL     1       6.078   4.792  18.440  0.00  0.00    +0.000 C 
BRANCH  10  14
ATOM     11  C   UNL     1       6.442   4.528  14.189  0.00  0.00    +0.000 A 
ATOM     12  C   UNL     1       5.221   4.222  14.774  0.00  0.00    +0.000 A 
ATOM     13  C   UNL     1       5.089   4.310  16.156  0.00  0.00    +0.000 A 
ATOM     14  C   UNL     1       6.191   4.690  16.925  0.00  0.00    +0.000 A 
ATOM     15  N   UNL     1       7.385   5.012  16.363  0.00  0.00    +0.000 NA
ATOM     16  C   UNL     1       7.481   4.919  15.016  0.00  0.00    +0.000 A 
ENDBRANCH  10  14
ENDBRANCH   1  10
TORSDOF 2
ENDMDL
