MODEL 1
REMARK VINA RESULT:      -8.8      0.000      0.000
REMARK  Name = 
REMARK  8 active torsions:
REMARK  status: ('A' for Active; 'I' for Inactive)
REMARK    1  A    between atoms: C_1  and  C_2
REMARK    2  A    between atoms: C_2  and  C_3
REMARK    3  A    between atoms: C_8  and  N_9
REMARK    4  A    between atoms: C_10  and  S_11
REMARK    5  A    between atoms: S_11  and  C_12
REMARK    6  A    between atoms: C_12  and  C_13
REMARK    7  A    between atoms: C_32  and  C_33
REMARK    8  A    between atoms: C_33  and  O_34
REMARK                            x       y       z     vdW  Elec       q    Type
REMARK                         _______ _______ _______ _____ _____    ______ ____
ROOT
ATOM      1  N   UNL     1       4.065   4.687  18.706  0.00  0.00    +0.000 N 
ATOM      2  C   UNL     1       3.216   5.746  18.483  0.00  0.00    +0.000 A 
ATOM      3  N   UNL     1       1.953   5.408  18.656  0.00  0.00    +0.000 NA
ATOM      4  C   UNL     1       1.969   4.069  18.931  0.00  0.00    +0.000 A 
ATOM      5  C   UNL     1       0.959   3.141  19.164  0.00  0.00    +0.000 A 
ATOM      6  N   UNL     1       1.284   1.842  19.393  0.00  0.00    +0.000 NA
ATOM      7  C   UNL     1       2.592   1.511  19.378  0.00  0.00    +0.000 A 
ATOM      8  N   UNL     1       3.657   2.316  19.176  0.00  0.00    +0.000 NA
ATOM      9  C   UNL     1       3.265   3.589  18.956  0.00  0.00    +0.000 A 
ENDROOT
BRANCH   1  17
ATOM     10  C   UNL     1       5.341   6.418  14.679  0.00  0.00    +0.000 C 
ATOM     11  C   UNL     1       6.131   5.290  15.324  0.00  0.00    +0.000 C 
ATOM     12  C   UNL     1       6.673   4.333  14.262  0.00  0.00    +0.000 C 
ATOM     13  O   UNL     1       7.206   5.833  16.089  0.00  0.00    +0.000 OA
ATOM     14  C   UNL     1       7.379   4.952  17.199  0.00  0.00    +0.000 C 
ATOM     15  C   UNL     1       6.092   4.163  17.309  0.00  0.00    +0.000 C 
ATOM     16  O   UNL     1       5.283   4.556  16.200  0.00  0.00    +0.000 OA
ATOM     17  C   UNL     1       5.507   4.567  18.663  0.00  0.00    +0.000 C 
ATOM     18  O   UNL     1       6.174   5.773  19.078  0.00  0.00    +0.000 OA
ATOM     19  C   UNL     1       7.512   5.672  18.537  0.00  0.00    +0.000 C 
BRANCH  19  20
ATOM     20  C   UNL     1       8.142   7.057  18.478  0.00  0.00    +0.000 C 
BRANCH  20  21
ATOM     21  O   UNL     1       7.279   7.936  17.751  0.00  0.00    +0.000 OA
ATOM     22  H   UNL     1       7.826   8.302  17.031  0.00  0.00    +0.000 HD
ENDBRANCH  20  21
ENDBRANCH  19  20
ENDBRANCH   1  17
BRANCH   2  23
ATOM     23  S   UNL     1       3.690   7.363  18.019  0.00  0.00    +0.000 S 
BRANCH  23  24
ATOM     24  C   UNL     1       2.040   8.110  17.824  0.00  0.00    +0.000 C 
BRANCH  24  25
ATOM     25  C   UNL     1       1.658   9.064  18.926  0.00  0.00    +0.000 A 
ATOM     26  C   UNL     1       1.161   8.632  20.098  0.00  0.00    +0.000 A 
ATOM     27  C   UNL     1       0.545   9.555  21.038  0.00  0.00    +0.000 A 
ATOM     28  C   UNL     1      -0.093   9.115  22.200  0.00  0.00    +0.000 A 
ATOM     29  C   UNL     1      -0.749  10.030  23.031  0.00  0.00    +0.000 A 
ATOM     30  C   UNL     1      -0.756  11.390  22.713  0.00  0.00    +0.000 A 
ATOM     31  C   UNL     1      -0.115  11.837  21.558  0.00  0.00    +0.000 A 
ATOM     32  C   UNL     1       0.520  10.910  20.731  0.00  0.00    +0.000 A 
ATOM     33  O   UNL     1       1.107  11.382  19.542  0.00  0.00    +0.000 OA
ATOM     34  C   UNL     1       1.639  10.512  18.589  0.00  0.00    +0.000 A 
ATOM     35  O   UNL     1       2.053  10.933  17.515  0.00  0.00    +0.000 OA
ENDBRANCH  24  25
ENDBRANCH  23  24
ENDBRANCH   2  23
TORSDOF 6
ENDMDL
MODEL 2
REMARK VINA RESULT:      -8.7      2.671      3.843
REMARK  Name = 
REMARK  8 active torsions:
REMARK  status: ('A' for Active; 'I' for Inactive)
REMARK    1  A    between atoms: C_1  and  C_2
REMARK    2  A    between atoms: C_2  and  C_3
REMARK    3  A    between atoms: C_8  and  N_9
REMARK    4  A    between atoms: C_10  and  S_11
REMARK    5  A    between atoms: S_11  and  C_12
REMARK    6  A    between atoms: C_12  and  C_13
REMARK    7  A    between atoms: C_32  and  C_33
REMARK    8  A    between atoms: C_33  and  O_34
REMARK                            x       y       z     vdW  Elec       q    Type
REMARK                         _______ _______ _______ _____ _____    ______ ____
ROOT
ATOM      1  N   UNL     1       3.358   6.292  18.068  0.00  0.00    +0.000 N 
ATOM      2  C   UNL     1       2.532   7.249  18.610  0.00  0.00    +0.000 A 
ATOM      3  N   UNL     1       2.023   6.862  19.763  0.00  0.00    +0.000 NA
ATOM      4  C   UNL     1       2.471   5.585  19.949  0.00  0.00    +0.000 A 
ATOM      5  C   UNL     1       2.247   4.641  20.947  0.00  0.00    +0.000 A 
ATOM      6  N   UNL     1       2.824   3.415  20.850  0.00  0.00    +0.000 NA
ATOM      7  C   UNL     1       3.595   3.168  19.770  0.00  0.00    +0.000 A 
ATOM      8  N   UNL     1       3.895   3.999  18.749  0.00  0.00    +0.000 NA
ATOM      9  C   UNL     1       3.292   5.196  18.907  0.00  0.00    +0.000 A 
ENDROOT
BRANCH   1  17
ATOM     10  C   UNL     1       7.691   5.782  19.409  0.00  0.00    +0.000 C 
ATOM     11  C   UNL     1       7.357   6.555  18.144  0.00  0.00    +0.000 C 
ATOM     12  C   UNL     1       8.317   7.730  17.958  0.00  0.00    +0.000 C 
ATOM     13  O   UNL     1       7.426   5.684  17.016  0.00  0.00    +0.000 OA
ATOM     14  C   UNL     1       6.430   6.146  16.103  0.00  0.00    +0.000 C 
ATOM     15  C   UNL     1       5.482   6.998  16.918  0.00  0.00    +0.000 C 
ATOM     16  O   UNL     1       6.032   7.066  18.235  0.00  0.00    +0.000 OA
ATOM     17  C   UNL     1       4.146   6.258  16.855  0.00  0.00    +0.000 C 
ATOM     18  O   UNL     1       4.418   4.916  16.410  0.00  0.00    +0.000 OA
ATOM     19  C   UNL     1       5.561   5.033  15.530  0.00  0.00    +0.000 C 
BRANCH  19  20
ATOM     20  C   UNL     1       6.236   3.675  15.393  0.00  0.00    +0.000 C 
BRANCH  20  21
ATOM     21  O   UNL     1       6.322   3.329  14.007  0.00  0.00    +0.000 OA
ATOM     22  H   UNL     1       7.028   3.894  13.640  0.00  0.00    +0.000 HD
ENDBRANCH  20  21
ENDBRANCH  19  20
ENDBRANCH   1  17
BRANCH   2  23
ATOM     23  S   UNL     1       2.158   8.803  17.903  0.00  0.00    +0.000 S 
BRANCH  23  24
ATOM     24  C   UNL     1       1.239   9.545  19.290  0.00  0.00    +0.000 C 
BRANCH  24  25
ATOM     25  C   UNL     1      -0.182   9.922  18.960  0.00  0.00    +0.000 A 
ATOM     26  C   UNL     1      -0.742   9.611  17.778  0.00  0.00    +0.000 A 
ATOM     27  C   UNL     1      -2.001  10.210  17.364  0.00  0.00    +0.000 A 
ATOM     28  C   UNL     1      -2.537  10.005  16.090  0.00  0.00    +0.000 A 
ATOM     29  C   UNL     1      -3.706  10.670  15.703  0.00  0.00    +0.000 A 
ATOM     30  C   UNL     1      -4.352  11.531  16.593  0.00  0.00    +0.000 A 
ATOM     31  C   UNL     1      -3.826  11.735  17.869  0.00  0.00    +0.000 A 
ATOM     32  C   UNL     1      -2.651  11.077  18.233  0.00  0.00    +0.000 A 
ATOM     33  O   UNL     1      -2.112  11.348  19.505  0.00  0.00    +0.000 OA
ATOM     34  C   UNL     1      -0.871  10.846  19.899  0.00  0.00    +0.000 A 
ATOM     35  O   UNL     1      -0.371  11.175  20.968  0.00  0.00    +0.000 OA
ENDBRANCH  24  25
ENDBRANCH  23  24
ENDBRANCH   2  23
TORSDOF 6
ENDMDL
MODEL 3
REMARK VINA RESULT:      -8.4      1.779      3.276
REMARK  Name = 
REMARK  8 active torsions:
REMARK  status: ('A' for Active; 'I' for Inactive)
REMARK    1  A    between atoms: C_1  and  C_2
REMARK    2  A    between atoms: C_2  and  C_3
REMARK    3  A    between atoms: C_8  and  N_9
REMARK    4  A    between atoms: C_10  and  S_11
REMARK    5  A    between atoms: S_11  and  C_12
REMARK    6  A    between atoms: C_12  and  C_13
REMARK    7  A    between atoms: C_32  and  C_33
REMARK    8  A    between atoms: C_33  and  O_34
REMARK                            x       y       z     vdW  Elec       q    Type
REMARK                         _______ _______ _______ _____ _____    ______ ____
ROOT
ATOM      1  N   UNL     1       3.470   5.434  18.359  0.00  0.00    +0.000 N 
ATOM      2  C   UNL     1       2.710   6.208  19.204  0.00  0.00    +0.000 A 
ATOM      3  N   UNL     1       2.395   5.564  20.311  0.00  0.00    +0.000 NA
ATOM      4  C   UNL     1       2.903   4.305  20.156  0.00  0.00    +0.000 A 
ATOM      5  C   UNL     1       2.862   3.165  20.954  0.00  0.00    +0.000 A 
ATOM      6  N   UNL     1       3.452   2.022  20.518  0.00  0.00    +0.000 NA
ATOM      7  C   UNL     1       4.056   2.048  19.311  0.00  0.00    +0.000 A 
ATOM      8  N   UNL     1       4.171   3.087  18.456  0.00  0.00    +0.000 NA
ATOM      9  C   UNL     1       3.565   4.188  18.949  0.00  0.00    +0.000 A 
ENDROOT
BRANCH   1  17
ATOM     10  C   UNL     1       7.967   5.722  19.085  0.00  0.00    +0.000 C 
ATOM     11  C   UNL     1       7.306   6.534  17.983  0.00  0.00    +0.000 C 
ATOM     12  C   UNL     1       7.978   7.900  17.841  0.00  0.00    +0.000 C 
ATOM     13  O   UNL     1       7.380   5.821  16.750  0.00  0.00    +0.000 OA
ATOM     14  C   UNL     1       6.190   6.154  16.034  0.00  0.00    +0.000 C 
ATOM     15  C   UNL     1       5.222   6.694  17.064  0.00  0.00    +0.000 C 
ATOM     16  O   UNL     1       5.934   6.739  18.302  0.00  0.00    +0.000 OA
ATOM     17  C   UNL     1       4.063   5.696  17.066  0.00  0.00    +0.000 C 
ATOM     18  O   UNL     1       4.526   4.497  16.417  0.00  0.00    +0.000 OA
ATOM     19  C   UNL     1       5.482   4.947  15.428  0.00  0.00    +0.000 C 
BRANCH  19  20
ATOM     20  C   UNL     1       6.385   3.786  15.031  0.00  0.00    +0.000 C 
BRANCH  20  21
ATOM     21  O   UNL     1       6.206   3.506  13.639  0.00  0.00    +0.000 OA
ATOM     22  H   UNL     1       6.929   3.977  13.183  0.00  0.00    +0.000 HD
ENDBRANCH  20  21
ENDBRANCH  19  20
ENDBRANCH   1  17
BRANCH   2  23
ATOM     23  S   UNL     1       2.186   7.849  18.903  0.00  0.00    +0.000 S 
BRANCH  23  24
ATOM     24  C   UNL     1       1.432   8.220  20.519  0.00  0.00    +0.000 C 
BRANCH  24  25
ATOM     25  C   UNL     1       0.776   9.573  20.600  0.00  0.00    +0.000 A 
ATOM     26  C   UNL     1       0.469  10.279  19.498  0.00  0.00    +0.000 A 
ATOM     27  C   UNL     1       0.094  11.682  19.586  0.00  0.00    +0.000 A 
ATOM     28  C   UNL     1      -0.102  12.470  18.450  0.00  0.00    +0.000 A 
ATOM     29  C   UNL     1      -0.376  13.836  18.580  0.00  0.00    +0.000 A 
ATOM     30  C   UNL     1      -0.470  14.417  19.847  0.00  0.00    +0.000 A 
ATOM     31  C   UNL     1      -0.281  13.634  20.986  0.00  0.00    +0.000 A 
ATOM     32  C   UNL     1       0.007  12.277  20.839  0.00  0.00    +0.000 A 
ATOM     33  O   UNL     1       0.251  11.525  22.003  0.00  0.00    +0.000 OA
ATOM     34  C   UNL     1       0.682  10.200  21.945  0.00  0.00    +0.000 A 
ATOM     35  O   UNL     1       0.988   9.593  22.965  0.00  0.00    +0.000 OA
ENDBRANCH  24  25
ENDBRANCH  23  24
ENDBRANCH   2  23
TORSDOF 6
ENDMDL
MODEL 4
REMARK VINA RESULT:      -8.0      1.459      2.281
REMARK  Name = 
REMARK  8 active torsions:
REMARK  status: ('A' for Active; 'I' for Inactive)
REMARK    1  A    between atoms: C_1  and  C_2
REMARK    2  A    between atoms: C_2  and  C_3
REMARK    3  A    between atoms: C_8  and  N_9
REMARK    4  A    between atoms: C_10  and  S_11
REMARK    5  A    between atoms: S_11  and  C_12
REMARK    6  A    between atoms: C_12  and  C_13
REMARK    7  A    between atoms: C_32  and  C_33
REMARK    8  A    between atoms: C_33  and  O_34
REMARK                            x       y       z     vdW  Elec       q    Type
REMARK                         _______ _______ _______ _____ _____    ______ ____
ROOT
ATOM      1  N   UNL     1       4.109   5.115  19.197  0.00  0.00    +0.000 N 
ATOM      2  C   UNL     1       3.223   6.107  18.845  0.00  0.00    +0.000 A 
ATOM      3  N   UNL     1       1.989   5.813  19.204  0.00  0.00    +0.000 NA
ATOM      4  C   UNL     1       2.055   4.559  19.743  0.00  0.00    +0.000 A 
ATOM      5  C   UNL     1       1.089   3.699  20.256  0.00  0.00    +0.000 A 
ATOM      6  N   UNL     1       1.458   2.474  20.713  0.00  0.00    +0.000 NA
ATOM      7  C   UNL     1       2.765   2.145  20.641  0.00  0.00    +0.000 A 
ATOM      8  N   UNL     1       3.791   2.891  20.178  0.00  0.00    +0.000 NA
ATOM      9  C   UNL     1       3.356   4.092  19.742  0.00  0.00    +0.000 A 
ENDROOT
BRANCH   1  17
ATOM     10  C   UNL     1       4.981   6.100  14.826  0.00  0.00    +0.000 C 
ATOM     11  C   UNL     1       5.844   5.103  15.583  0.00  0.00    +0.000 C 
ATOM     12  C   UNL     1       6.300   3.972  14.662  0.00  0.00    +0.000 C 
ATOM     13  O   UNL     1       6.977   5.772  16.136  0.00  0.00    +0.000 OA
ATOM     14  C   UNL     1       7.265   5.103  17.364  0.00  0.00    +0.000 C 
ATOM     15  C   UNL     1       6.006   4.348  17.732  0.00  0.00    +0.000 C 
ATOM     16  O   UNL     1       5.092   4.539  16.651  0.00  0.00    +0.000 OA
ATOM     17  C   UNL     1       5.542   4.988  19.041  0.00  0.00    +0.000 C 
ATOM     18  O   UNL     1       6.226   6.247  19.172  0.00  0.00    +0.000 OA
ATOM     19  C   UNL     1       7.510   6.049  18.534  0.00  0.00    +0.000 C 
BRANCH  19  20
ATOM     20  C   UNL     1       8.111   7.401  18.173  0.00  0.00    +0.000 C 
BRANCH  20  21
ATOM     21  O   UNL     1       7.166   8.143  17.397  0.00  0.00    +0.000 OA
ATOM     22  H   UNL     1       6.405   8.296  17.988  0.00  0.00    +0.000 HD
ENDBRANCH  20  21
ENDBRANCH  19  20
ENDBRANCH   1  17
BRANCH   2  23
ATOM     23  S   UNL     1       3.621   7.594  18.017  0.00  0.00    +0.000 S 
BRANCH  23  24
ATOM     24  C   UNL     1       1.939   8.233  17.733  0.00  0.00    +0.000 C 
BRANCH  24  25
ATOM     25  C   UNL     1       1.669   9.571  18.371  0.00  0.00    +0.000 A 
ATOM     26  C   UNL     1       2.078  10.721  17.808  0.00  0.00    +0.000 A 
ATOM     27  C   UNL     1       2.059  11.970  18.554  0.00  0.00    +0.000 A 
ATOM     28  C   UNL     1       2.598  13.150  18.037  0.00  0.00    +0.000 A 
ATOM     29  C   UNL     1       2.638  14.308  18.822  0.00  0.00    +0.000 A 
ATOM     30  C   UNL     1       2.123  14.294  20.121  0.00  0.00    +0.000 A 
ATOM     31  C   UNL     1       1.577  13.121  20.640  0.00  0.00    +0.000 A 
ATOM     32  C   UNL     1       1.560  11.971  19.851  0.00  0.00    +0.000 A 
ATOM     33  O   UNL     1       1.057  10.787  20.421  0.00  0.00    +0.000 OA
ATOM     34  C   UNL     1       1.130   9.562  19.757  0.00  0.00    +0.000 A 
ATOM     35  O   UNL     1       0.781   8.526  20.310  0.00  0.00    +0.000 OA
ENDBRANCH  24  25
ENDBRANCH  23  24
ENDBRANCH   2  23
TORSDOF 6
ENDMDL
MODEL 5
REMARK VINA RESULT:      -7.8      2.046      3.289
REMARK  Name = 
REMARK  8 active torsions:
REMARK  status: ('A' for Active; 'I' for Inactive)
REMARK    1  A    between atoms: C_1  and  C_2
REMARK    2  A    between atoms: C_2  and  C_3
REMARK    3  A    between atoms: C_8  and  N_9
REMARK    4  A    between atoms: C_10  and  S_11
REMARK    5  A    between atoms: S_11  and  C_12
REMARK    6  A    between atoms: C_12  and  C_13
REMARK    7  A    between atoms: C_32  and  C_33
REMARK    8  A    between atoms: C_33  and  O_34
REMARK                            x       y       z     vdW  Elec       q    Type
REMARK                         _______ _______ _______ _____ _____    ______ ____
ROOT
ATOM      1  N   UNL     1       3.444   5.982  17.953  0.00  0.00    +0.000 N 
ATOM      2  C   UNL     1       2.485   6.753  18.566  0.00  0.00    +0.000 A 
ATOM      3  N   UNL     1       2.045   6.198  19.679  0.00  0.00    +0.000 NA
ATOM      4  C   UNL     1       2.684   4.993  19.761  0.00  0.00    +0.000 A 
ATOM      5  C   UNL     1       2.610   3.946  20.675  0.00  0.00    +0.000 A 
ATOM      6  N   UNL     1       3.366   2.834  20.481  0.00  0.00    +0.000 NA
ATOM      7  C   UNL     1       4.162   2.799  19.390  0.00  0.00    +0.000 A 
ATOM      8  N   UNL     1       4.327   3.749  18.445  0.00  0.00    +0.000 NA
ATOM      9  C   UNL     1       3.550   4.822  18.698  0.00  0.00    +0.000 A 
ENDROOT
BRANCH   1  17
ATOM     10  C   UNL     1       7.813   5.587  19.218  0.00  0.00    +0.000 C 
ATOM     11  C   UNL     1       7.417   6.504  18.072  0.00  0.00    +0.000 C 
ATOM     12  C   UNL     1       8.294   7.755  18.053  0.00  0.00    +0.000 C 
ATOM     13  O   UNL     1       7.536   5.803  16.834  0.00  0.00    +0.000 OA
ATOM     14  C   UNL     1       6.504   6.320  15.992  0.00  0.00    +0.000 C 
ATOM     15  C   UNL     1       5.507   6.984  16.917  0.00  0.00    +0.000 C 
ATOM     16  O   UNL     1       6.062   6.906  18.231  0.00  0.00    +0.000 OA
ATOM     17  C   UNL     1       4.224   6.170  16.749  0.00  0.00    +0.000 C 
ATOM     18  O   UNL     1       4.582   4.925  16.122  0.00  0.00    +0.000 OA
ATOM     19  C   UNL     1       5.707   5.240  15.269  0.00  0.00    +0.000 C 
BRANCH  19  20
ATOM     20  C   UNL     1       6.472   3.963  14.946  0.00  0.00    +0.000 C 
BRANCH  20  21
ATOM     21  O   UNL     1       6.147   2.962  15.915  0.00  0.00    +0.000 OA
ATOM     22  H   UNL     1       6.416   2.114  15.515  0.00  0.00    +0.000 HD
ENDBRANCH  20  21
ENDBRANCH  19  20
ENDBRANCH   1  17
BRANCH   2  23
ATOM     23  S   UNL     1       1.875   8.287  17.989  0.00  0.00    +0.000 S 
BRANCH  23  24
ATOM     24  C   UNL     1       1.792   9.186  19.571  0.00  0.00    +0.000 C 
BRANCH  24  25
ATOM     25  C   UNL     1       0.467   9.852  19.835  0.00  0.00    +0.000 A 
ATOM     26  C   UNL     1      -0.498   9.907  18.900  0.00  0.00    +0.000 A 
ATOM     27  C   UNL     1      -1.652  10.779  19.063  0.00  0.00    +0.000 A 
ATOM     28  C   UNL     1      -2.599  10.952  18.052  0.00  0.00    +0.000 A 
ATOM     29  C   UNL     1      -3.646  11.867  18.217  0.00  0.00    +0.000 A 
ATOM     30  C   UNL     1      -3.757  12.600  19.401  0.00  0.00    +0.000 A 
ATOM     31  C   UNL     1      -2.818  12.427  20.417  0.00  0.00    +0.000 A 
ATOM     32  C   UNL     1      -1.772  11.524  20.230  0.00  0.00    +0.000 A 
ATOM     33  O   UNL     1      -0.806  11.413  21.248  0.00  0.00    +0.000 OA
ATOM     34  C   UNL     1       0.345  10.642  21.089  0.00  0.00    +0.000 A 
ATOM     35  O   UNL     1       1.223  10.640  21.944  0.00  0.00    +0.000 OA
ENDBRANCH  24  25
ENDBRANCH  23  24
ENDBRANCH   2  23
TORSDOF 6
ENDMDL
MODEL 6
REMARK VINA RESULT:      -7.8      1.833      2.974
REMARK  Name = 
REMARK  8 active torsions:
REMARK  status: ('A' for Active; 'I' for Inactive)
REMARK    1  A    between atoms: C_1  and  C_2
REMARK    2  A    between atoms: C_2  and  C_3
REMARK    3  A    between atoms: C_8  and  N_9
REMARK    4  A    between atoms: C_10  and  S_11
REMARK    5  A    between atoms: S_11  and  C_12
REMARK    6  A    between atoms: C_12  and  C_13
REMARK    7  A    between atoms: C_32  and  C_33
REMARK    8  A    between atoms: C_33  and  O_34
REMARK                            x       y       z     vdW  Elec       q    Type
REMARK                         _______ _______ _______ _____ _____    ______ ____
ROOT
ATOM      1  N   UNL     1       3.350   6.296  18.132  0.00  0.00    +0.000 N 
ATOM      2  C   UNL     1       2.604   7.285  18.729  0.00  0.00    +0.000 A 
ATOM      3  N   UNL     1       2.095   6.890  19.880  0.00  0.00    +0.000 NA
ATOM      4  C   UNL     1       2.458   5.579  20.008  0.00  0.00    +0.000 A 
ATOM      5  C   UNL     1       2.192   4.615  20.976  0.00  0.00    +0.000 A 
ATOM      6  N   UNL     1       2.681   3.358  20.820  0.00  0.00    +0.000 NA
ATOM      7  C   UNL     1       3.410   3.101  19.713  0.00  0.00    +0.000 A 
ATOM      8  N   UNL     1       3.744   3.948  18.716  0.00  0.00    +0.000 NA
ATOM      9  C   UNL     1       3.228   5.176  18.933  0.00  0.00    +0.000 A 
ENDROOT
BRANCH   1  17
ATOM     10  C   UNL     1       7.720   5.837  19.368  0.00  0.00    +0.000 C 
ATOM     11  C   UNL     1       7.347   6.593  18.103  0.00  0.00    +0.000 C 
ATOM     12  C   UNL     1       8.292   7.774  17.880  0.00  0.00    +0.000 C 
ATOM     13  O   UNL     1       7.395   5.710  16.984  0.00  0.00    +0.000 OA
ATOM     14  C   UNL     1       6.373   6.154  16.091  0.00  0.00    +0.000 C 
ATOM     15  C   UNL     1       5.438   7.007  16.921  0.00  0.00    +0.000 C 
ATOM     16  O   UNL     1       6.021   7.094  18.222  0.00  0.00    +0.000 OA
ATOM     17  C   UNL     1       4.107   6.255  16.900  0.00  0.00    +0.000 C 
ATOM     18  O   UNL     1       4.379   4.911  16.463  0.00  0.00    +0.000 OA
ATOM     19  C   UNL     1       5.498   5.027  15.553  0.00  0.00    +0.000 C 
BRANCH  19  20
ATOM     20  C   UNL     1       6.181   3.673  15.413  0.00  0.00    +0.000 C 
BRANCH  20  21
ATOM     21  O   UNL     1       6.310   3.351  14.025  0.00  0.00    +0.000 OA
ATOM     22  H   UNL     1       6.067   2.409  13.952  0.00  0.00    +0.000 HD
ENDBRANCH  20  21
ENDBRANCH  19  20
ENDBRANCH   1  17
BRANCH   2  23
ATOM     23  S   UNL     1       2.321   8.887  18.089  0.00  0.00    +0.000 S 
BRANCH  23  24
ATOM     24  C   UNL     1       0.501   8.860  18.018  0.00  0.00    +0.000 C 
BRANCH  24  25
ATOM     25  C   UNL     1      -0.165   9.982  18.771  0.00  0.00    +0.000 A 
ATOM     26  C   UNL     1       0.150  10.264  20.048  0.00  0.00    +0.000 A 
ATOM     27  C   UNL     1      -0.679  11.154  20.846  0.00  0.00    +0.000 A 
ATOM     28  C   UNL     1      -0.448  11.360  22.208  0.00  0.00    +0.000 A 
ATOM     29  C   UNL     1      -1.322  12.156  22.957  0.00  0.00    +0.000 A 
ATOM     30  C   UNL     1      -2.421  12.762  22.344  0.00  0.00    +0.000 A 
ATOM     31  C   UNL     1      -2.654  12.565  20.983  0.00  0.00    +0.000 A 
ATOM     32  C   UNL     1      -1.783  11.756  20.254  0.00  0.00    +0.000 A 
ATOM     33  O   UNL     1      -2.075  11.528  18.896  0.00  0.00    +0.000 OA
ATOM     34  C   UNL     1      -1.342  10.623  18.128  0.00  0.00    +0.000 A 
ATOM     35  O   UNL     1      -1.674  10.361  16.978  0.00  0.00    +0.000 OA
ENDBRANCH  24  25
ENDBRANCH  23  24
ENDBRANCH   2  23
TORSDOF 6
ENDMDL
MODEL 7
REMARK VINA RESULT:      -7.7      1.518      2.853
REMARK  Name = 
REMARK  8 active torsions:
REMARK  status: ('A' for Active; 'I' for Inactive)
REMARK    1  A    between atoms: C_1  and  C_2
REMARK    2  A    between atoms: C_2  and  C_3
REMARK    3  A    between atoms: C_8  and  N_9
REMARK    4  A    between atoms: C_10  and  S_11
REMARK    5  A    between atoms: S_11  and  C_12
REMARK    6  A    between atoms: C_12  and  C_13
REMARK    7  A    between atoms: C_32  and  C_33
REMARK    8  A    between atoms: C_33  and  O_34
REMARK                            x       y       z     vdW  Elec       q    Type
REMARK                         _______ _______ _______ _____ _____    ______ ____
ROOT
ATOM      1  N   UNL     1       3.443   5.634  18.298  0.00  0.00    +0.000 N 
ATOM      2  C   UNL     1       2.659   6.380  19.146  0.00  0.00    +0.000 A 
ATOM      3  N   UNL     1       2.319   5.702  20.225  0.00  0.00    +0.000 NA
ATOM      4  C   UNL     1       2.837   4.450  20.046  0.00  0.00    +0.000 A 
ATOM      5  C   UNL     1       2.781   3.287  20.808  0.00  0.00    +0.000 A 
ATOM      6  N   UNL     1       3.388   2.160  20.354  0.00  0.00    +0.000 NA
ATOM      7  C   UNL     1       4.021   2.224  19.163  0.00  0.00    +0.000 A 
ATOM      8  N   UNL     1       4.154   3.288  18.343  0.00  0.00    +0.000 NA
ATOM      9  C   UNL     1       3.530   4.371  18.853  0.00  0.00    +0.000 A 
ENDROOT
BRANCH   1  17
ATOM     10  C   UNL     1       7.941   5.583  19.077  0.00  0.00    +0.000 C 
ATOM     11  C   UNL     1       7.347   6.504  18.023  0.00  0.00    +0.000 C 
ATOM     12  C   UNL     1       8.107   7.829  17.972  0.00  0.00    +0.000 C 
ATOM     13  O   UNL     1       7.389   5.865  16.748  0.00  0.00    +0.000 OA
ATOM     14  C   UNL     1       6.232   6.319  16.045  0.00  0.00    +0.000 C 
ATOM     15  C   UNL     1       5.289   6.856  17.099  0.00  0.00    +0.000 C 
ATOM     16  O   UNL     1       5.987   6.777  18.343  0.00  0.00    +0.000 OA
ATOM     17  C   UNL     1       4.068   5.937  17.028  0.00  0.00    +0.000 C 
ATOM     18  O   UNL     1       4.461   4.754  16.309  0.00  0.00    +0.000 OA
ATOM     19  C   UNL     1       5.456   5.201  15.358  0.00  0.00    +0.000 C 
BRANCH  19  20
ATOM     20  C   UNL     1       6.286   4.011  14.896  0.00  0.00    +0.000 C 
BRANCH  20  21
ATOM     21  O   UNL     1       6.144   2.944  15.838  0.00  0.00    +0.000 OA
ATOM     22  H   UNL     1       5.183   2.832  15.964  0.00  0.00    +0.000 HD
ENDBRANCH  20  21
ENDBRANCH  19  20
ENDBRANCH   1  17
BRANCH   2  23
ATOM     23  S   UNL     1       2.135   8.026  18.881  0.00  0.00    +0.000 S 
BRANCH  23  24
ATOM     24  C   UNL     1       1.383   8.363  20.505  0.00  0.00    +0.000 C 
BRANCH  24  25
ATOM     25  C   UNL     1       0.571   9.630  20.561  0.00  0.00    +0.000 A 
ATOM     26  C   UNL     1       0.155  10.156  21.727  0.00  0.00    +0.000 A 
ATOM     27  C   UNL     1      -0.847  11.210  21.760  0.00  0.00    +0.000 A 
ATOM     28  C   UNL     1      -1.389  11.681  22.958  0.00  0.00    +0.000 A 
ATOM     29  C   UNL     1      -2.414  12.634  22.940  0.00  0.00    +0.000 A 
ATOM     30  C   UNL     1      -2.889  13.131  21.724  0.00  0.00    +0.000 A 
ATOM     31  C   UNL     1      -2.348  12.670  20.525  0.00  0.00    +0.000 A 
ATOM     32  C   UNL     1      -1.339  11.708  20.559  0.00  0.00    +0.000 A 
ATOM     33  O   UNL     1      -0.853  11.218  19.333  0.00  0.00    +0.000 OA
ATOM     34  C   UNL     1       0.053  10.158  19.271  0.00  0.00    +0.000 A 
ATOM     35  O   UNL     1       0.386   9.678  18.194  0.00  0.00    +0.000 OA
ENDBRANCH  24  25
ENDBRANCH  23  24
ENDBRANCH   2  23
TORSDOF 6
ENDMDL
MODEL 8
REMARK VINA RESULT:      -7.6      3.603      9.131
REMARK  Name = 
REMARK  8 active torsions:
REMARK  status: ('A' for Active; 'I' for Inactive)
REMARK    1  A    between atoms: C_1  and  C_2
REMARK    2  A    between atoms: C_2  and  C_3
REMARK    3  A    between atoms: C_8  and  N_9
REMARK    4  A    between atoms: C_10  and  S_11
REMARK    5  A    between atoms: S_11  and  C_12
REMARK    6  A    between atoms: C_12  and  C_13
REMARK    7  A    between atoms: C_32  and  C_33
REMARK    8  A    between atoms: C_33  and  O_34
REMARK                            x       y       z     vdW  Elec       q    Type
REMARK                         _______ _______ _______ _____ _____    ______ ____
ROOT
ATOM      1  N   UNL     1      -1.030  11.537  18.395  0.00  0.00    +0.000 N 
ATOM      2  C   UNL     1      -0.162  10.481  18.250  0.00  0.00    +0.000 A 
ATOM      3  N   UNL     1      -0.627   9.574  17.413  0.00  0.00    +0.000 NA
ATOM      4  C   UNL     1      -1.869  10.014  17.053  0.00  0.00    +0.000 A 
ATOM      5  C   UNL     1      -2.861   9.479  16.236  0.00  0.00    +0.000 A 
ATOM      6  N   UNL     1      -4.032  10.149  16.079  0.00  0.00    +0.000 NA
ATOM      7  C   UNL     1      -4.179  11.318  16.738  0.00  0.00    +0.000 A 
ATOM      8  N   UNL     1      -3.293  11.941  17.544  0.00  0.00    +0.000 NA
ATOM      9  C   UNL     1      -2.155  11.225  17.656  0.00  0.00    +0.000 A 
ENDROOT
BRANCH   1  17
ATOM     10  C   UNL     1      -0.300  10.240  22.711  0.00  0.00    +0.000 C 
ATOM     11  C   UNL     1      -1.093  11.501  22.403  0.00  0.00    +0.000 C 
ATOM     12  C   UNL     1      -2.218  11.694  23.419  0.00  0.00    +0.000 C 
ATOM     13  O   UNL     1      -0.221  12.631  22.417  0.00  0.00    +0.000 OA
ATOM     14  C   UNL     1      -0.736  13.533  21.437  0.00  0.00    +0.000 C 
ATOM     15  C   UNL     1      -1.632  12.707  20.541  0.00  0.00    +0.000 C 
ATOM     16  O   UNL     1      -1.669  11.396  21.106  0.00  0.00    +0.000 OA
ATOM     17  C   UNL     1      -0.960  12.758  19.169  0.00  0.00    +0.000 C 
ATOM     18  O   UNL     1       0.393  13.208  19.368  0.00  0.00    +0.000 OA
ATOM     19  C   UNL     1       0.332  14.100  20.507  0.00  0.00    +0.000 C 
BRANCH  19  20
ATOM     20  C   UNL     1       1.721  14.246  21.112  0.00  0.00    +0.000 C 
BRANCH  20  21
ATOM     21  O   UNL     1       2.299  12.948  21.284  0.00  0.00    +0.000 OA
ATOM     22  H   UNL     1       2.980  13.055  21.974  0.00  0.00    +0.000 HD
ENDBRANCH  20  21
ENDBRANCH  19  20
ENDBRANCH   1  17
BRANCH   2  23
ATOM     23  S   UNL     1       1.380  10.299  19.054  0.00  0.00    +0.000 S 
BRANCH  23  24
ATOM     24  C   UNL     1       1.185   8.602  19.688  0.00  0.00    +0.000 C 
BRANCH  24  25
ATOM     25  C   UNL     1       2.245   7.641  19.219  0.00  0.00    +0.000 A 
ATOM     26  C   UNL     1       3.010   7.897  18.143  0.00  0.00    +0.000 A 
ATOM     27  C   UNL     1       3.829   6.858  17.540  0.00  0.00    +0.000 A 
ATOM     28  C   UNL     1       4.529   7.063  16.349  0.00  0.00    +0.000 A 
ATOM     29  C   UNL     1       5.235   6.010  15.756  0.00  0.00    +0.000 A 
ATOM     30  C   UNL     1       5.256   4.751  16.362  0.00  0.00    +0.000 A 
ATOM     31  C   UNL     1       4.565   4.541  17.554  0.00  0.00    +0.000 A 
ATOM     32  C   UNL     1       3.853   5.597  18.123  0.00  0.00    +0.000 A 
ATOM     33  O   UNL     1       3.116   5.341  19.295  0.00  0.00    +0.000 OA
ATOM     34  C   UNL     1       2.266   6.296  19.852  0.00  0.00    +0.000 A 
ATOM     35  O   UNL     1       1.556   6.021  20.812  0.00  0.00    +0.000 OA
ENDBRANCH  24  25
ENDBRANCH  23  24
ENDBRANCH   2  23
TORSDOF 6
ENDMDL
MODEL 9
REMARK VINA RESULT:      -7.6      3.538      8.852
REMARK  Name = 
REMARK  8 active torsions:
REMARK  status: ('A' for Active; 'I' for Inactive)
REMARK    1  A    between atoms: C_1  and  C_2
REMARK    2  A    between atoms: C_2  and  C_3
REMARK    3  A    between atoms: C_8  and  N_9
REMARK    4  A    between atoms: C_10  and  S_11
REMARK    5  A    between atoms: S_11  and  C_12
REMARK    6  A    between atoms: C_12  and  C_13
REMARK    7  A    between atoms: C_32  and  C_33
REMARK    8  A    between atoms: C_33  and  O_34
REMARK                            x       y       z     vdW  Elec       q    Type
REMARK                         _______ _______ _______ _____ _____    ______ ____
ROOT
ATOM      1  N   UNL     1      -0.952  11.244  18.234  0.00  0.00    +0.000 N 
ATOM      2  C   UNL     1      -0.178  10.195  17.796  0.00  0.00    +0.000 A 
ATOM      3  N   UNL     1      -0.796   9.479  16.877  0.00  0.00    +0.000 NA
ATOM      4  C   UNL     1      -2.040  10.032  16.760  0.00  0.00    +0.000 A 
ATOM      5  C   UNL     1      -3.153   9.700  15.993  0.00  0.00    +0.000 A 
ATOM      6  N   UNL     1      -4.288  10.438  16.107  0.00  0.00    +0.000 NA
ATOM      7  C   UNL     1      -4.280  11.471  16.976  0.00  0.00    +0.000 A 
ATOM      8  N   UNL     1      -3.267  11.896  17.761  0.00  0.00    +0.000 NA
ATOM      9  C   UNL     1      -2.174  11.122  17.599  0.00  0.00    +0.000 A 
ENDROOT
BRANCH   1  17
ATOM     10  C   UNL     1       0.764   9.188  21.931  0.00  0.00    +0.000 C 
ATOM     11  C   UNL     1      -0.085  10.442  22.065  0.00  0.00    +0.000 C 
ATOM     12  C   UNL     1      -0.947  10.381  23.326  0.00  0.00    +0.000 C 
ATOM     13  O   UNL     1       0.759  11.592  22.104  0.00  0.00    +0.000 OA
ATOM     14  C   UNL     1       0.026  12.637  21.462  0.00  0.00    +0.000 C 
ATOM     15  C   UNL     1      -1.048  11.951  20.647  0.00  0.00    +0.000 C 
ATOM     16  O   UNL     1      -0.946  10.556  20.937  0.00  0.00    +0.000 OA
ATOM     17  C   UNL     1      -0.712  12.297  19.196  0.00  0.00    +0.000 C 
ATOM     18  O   UNL     1       0.647  12.770  19.170  0.00  0.00    +0.000 OA
ATOM     19  C   UNL     1       0.846  13.424  20.446  0.00  0.00    +0.000 C 
BRANCH  19  20
ATOM     20  C   UNL     1       2.337  13.523  20.738  0.00  0.00    +0.000 C 
BRANCH  20  21
ATOM     21  O   UNL     1       2.525  14.106  22.031  0.00  0.00    +0.000 OA
ATOM     22  H   UNL     1       1.727  13.873  22.542  0.00  0.00    +0.000 HD
ENDBRANCH  20  21
ENDBRANCH  19  20
ENDBRANCH   1  17
BRANCH   2  23
ATOM     23  S   UNL     1       1.431   9.801  18.353  0.00  0.00    +0.000 S 
BRANCH  23  24
ATOM     24  C   UNL     1       1.397   7.997  18.106  0.00  0.00    +0.000 C 
BRANCH  24  25
ATOM     25  C   UNL     1       2.722   7.316  18.329  0.00  0.00    +0.000 A 
ATOM     26  C   UNL     1       3.714   7.381  17.425  0.00  0.00    +0.000 A 
ATOM     27  C   UNL     1       4.873   6.507  17.517  0.00  0.00    +0.000 A 
ATOM     28  C   UNL     1       5.852   6.464  16.522  0.00  0.00    +0.000 A 
ATOM     29  C   UNL     1       6.904   5.546  16.608  0.00  0.00    +0.000 A 
ATOM     30  C   UNL     1       6.991   4.677  17.699  0.00  0.00    +0.000 A 
ATOM     31  C   UNL     1       6.020   4.719  18.700  0.00  0.00    +0.000 A 
ATOM     32  C   UNL     1       4.969   5.629  18.590  0.00  0.00    +0.000 A 
ATOM     33  O   UNL     1       3.973   5.609  19.584  0.00  0.00    +0.000 OA
ATOM     34  C   UNL     1       2.816   6.383  19.483  0.00  0.00    +0.000 A 
ATOM     35  O   UNL     1       1.914   6.275  20.305  0.00  0.00    +0.000 OA
ENDBRANCH  24  25
ENDBRANCH  23  24
ENDBRANCH   2  23
TORSDOF 6
ENDMDL
