MODEL 1
REMARK VINA RESULT:      -7.7      0.000      0.000
REMARK  Name = 
REMARK  3 active torsions:
REMARK  status: ('A' for Active; 'I' for Inactive)
REMARK    1  A    between atoms: C_1  and  C_2
REMARK    2  A    between atoms: C_6  and  S_7
REMARK    3  A    between atoms: S_7  and  C_8
REMARK                            x       y       z     vdW  Elec       q    Type
REMARK                         _______ _______ _______ _____ _____    ______ ____
ROOT
ATOM      1  C   UNL     1       3.580   5.654  17.560  0.00  0.00    +0.000 C 
ATOM      2  C   UNL     1       3.213   6.767  18.213  0.00  0.00    +0.000 C 
ATOM      3  C   UNL     1       2.358   6.720  19.413  0.00  0.00    +0.000 C 
ATOM      4  O   UNL     1       2.071   7.742  20.019  0.00  0.00    +0.000 OA
ATOM      5  C   UNL     1       1.915   5.360  19.915  0.00  0.00    +0.000 C 
ATOM      6  O   UNL     1       1.096   5.259  20.821  0.00  0.00    +0.000 OA
ATOM      7  C   UNL     1       2.465   4.167  19.244  0.00  0.00    +0.000 A 
ATOM      8  C   UNL     1       2.263   2.907  19.829  0.00  0.00    +0.000 A 
ATOM      9  C   UNL     1       2.678   1.759  19.162  0.00  0.00    +0.000 A 
ATOM     10  C   UNL     1       3.227   1.868  17.890  0.00  0.00    +0.000 A 
ATOM     11  C   UNL     1       3.452   3.128  17.325  0.00  0.00    +0.000 A 
ATOM     12  C   UNL     1       3.148   4.310  18.025  0.00  0.00    +0.000 A 
ENDROOT
BRANCH   1  13
ATOM     13  S   UNL     1       4.942   5.724  16.478  0.00  0.00    +0.000 S 
BRANCH  13  19
ATOM     14  C   UNL     1       8.486   9.466  18.002  0.00  0.00    +0.000 C 
ATOM     15  C   UNL     1       7.966   8.061  18.055  0.00  0.00    +0.000 A 
ATOM     16  C   UNL     1       8.502   7.168  18.993  0.00  0.00    +0.000 A 
ATOM     17  C   UNL     1       7.973   5.890  19.121  0.00  0.00    +0.000 A 
ATOM     18  C   UNL     1       6.890   5.512  18.325  0.00  0.00    +0.000 A 
ATOM     19  C   UNL     1       6.326   6.385  17.384  0.00  0.00    +0.000 A 
ATOM     20  C   UNL     1       6.886   7.659  17.243  0.00  0.00    +0.000 A 
ENDBRANCH  13  19
ENDBRANCH   1  13
TORSDOF 2
ENDMDL
MODEL 2
REMARK VINA RESULT:      -7.6      0.934      1.219
REMARK  Name = 
REMARK  3 active torsions:
REMARK  status: ('A' for Active; 'I' for Inactive)
REMARK    1  A    between atoms: C_1  and  C_2
REMARK    2  A    between atoms: C_6  and  S_7
REMARK    3  A    between atoms: S_7  and  C_8
REMARK                            x       y       z     vdW  Elec       q    Type
REMARK                         _______ _______ _______ _____ _____    ______ ____
ROOT
ATOM      1  C   UNL     1       3.224   5.776  18.005  0.00  0.00    +0.000 C 
ATOM      2  C   UNL     1       2.865   7.063  18.120  0.00  0.00    +0.000 C 
ATOM      3  C   UNL     1       2.067   7.551  19.261  0.00  0.00    +0.000 C 
ATOM      4  O   UNL     1       1.787   8.735  19.370  0.00  0.00    +0.000 OA
ATOM      5  C   UNL     1       1.677   6.550  20.331  0.00  0.00    +0.000 C 
ATOM      6  O   UNL     1       0.903   6.859  21.230  0.00  0.00    +0.000 OA
ATOM      7  C   UNL     1       2.220   5.183  20.225  0.00  0.00    +0.000 A 
ATOM      8  C   UNL     1       2.072   4.308  21.314  0.00  0.00    +0.000 A 
ATOM      9  C   UNL     1       2.480   2.984  21.198  0.00  0.00    +0.000 A 
ATOM     10  C   UNL     1       2.967   2.521  19.981  0.00  0.00    +0.000 A 
ATOM     11  C   UNL     1       3.139   3.404  18.910  0.00  0.00    +0.000 A 
ATOM     12  C   UNL     1       2.842   4.774  19.035  0.00  0.00    +0.000 A 
ENDROOT
BRANCH   1  13
ATOM     13  S   UNL     1       4.532   5.361  16.934  0.00  0.00    +0.000 S 
BRANCH  13  19
ATOM     14  C   UNL     1       8.257   9.156  17.718  0.00  0.00    +0.000 C 
ATOM     15  C   UNL     1       7.747   7.763  17.933  0.00  0.00    +0.000 A 
ATOM     16  C   UNL     1       8.402   6.927  18.848  0.00  0.00    +0.000 A 
ATOM     17  C   UNL     1       7.893   5.667  19.130  0.00  0.00    +0.000 A 
ATOM     18  C   UNL     1       6.712   5.249  18.513  0.00  0.00    +0.000 A 
ATOM     19  C   UNL     1       6.027   6.065  17.601  0.00  0.00    +0.000 A 
ATOM     20  C   UNL     1       6.566   7.321  17.302  0.00  0.00    +0.000 A 
ENDBRANCH  13  19
ENDBRANCH   1  13
TORSDOF 2
ENDMDL
MODEL 3
REMARK VINA RESULT:      -7.2      3.115      4.208
REMARK  Name = 
REMARK  3 active torsions:
REMARK  status: ('A' for Active; 'I' for Inactive)
REMARK    1  A    between atoms: C_1  and  C_2
REMARK    2  A    between atoms: C_6  and  S_7
REMARK    3  A    between atoms: S_7  and  C_8
REMARK                            x       y       z     vdW  Elec       q    Type
REMARK                         _______ _______ _______ _____ _____    ______ ____
ROOT
ATOM      1  C   UNL     1       4.960   5.212  16.823  0.00  0.00    +0.000 C 
ATOM      2  C   UNL     1       4.769   6.534  16.942  0.00  0.00    +0.000 C 
ATOM      3  C   UNL     1       3.598   7.093  17.645  0.00  0.00    +0.000 C 
ATOM      4  O   UNL     1       3.466   8.300  17.780  0.00  0.00    +0.000 OA
ATOM      5  C   UNL     1       2.612   6.121  18.261  0.00  0.00    +0.000 C 
ATOM      6  O   UNL     1       1.554   6.515  18.737  0.00  0.00    +0.000 OA
ATOM      7  C   UNL     1       2.947   4.685  18.223  0.00  0.00    +0.000 A 
ATOM      8  C   UNL     1       2.179   3.789  18.985  0.00  0.00    +0.000 A 
ATOM      9  C   UNL     1       2.406   2.421  18.883  0.00  0.00    +0.000 A 
ATOM     10  C   UNL     1       3.347   1.950  17.975  0.00  0.00    +0.000 A 
ATOM     11  C   UNL     1       4.129   2.848  17.240  0.00  0.00    +0.000 A 
ATOM     12  C   UNL     1       3.999   4.239  17.408  0.00  0.00    +0.000 A 
ENDROOT
BRANCH   1  13
ATOM     13  S   UNL     1       6.549   4.624  16.427  0.00  0.00    +0.000 S 
BRANCH  13  19
ATOM     14  C   UNL     1       4.997   2.798  11.616  0.00  0.00    +0.000 C 
ATOM     15  C   UNL     1       5.961   3.561  12.475  0.00  0.00    +0.000 A 
ATOM     16  C   UNL     1       6.973   4.314  11.866  0.00  0.00    +0.000 A 
ATOM     17  C   UNL     1       7.820   5.099  12.637  0.00  0.00    +0.000 A 
ATOM     18  C   UNL     1       7.638   5.149  14.020  0.00  0.00    +0.000 A 
ATOM     19  C   UNL     1       6.630   4.415  14.660  0.00  0.00    +0.000 A 
ATOM     20  C   UNL     1       5.802   3.604  13.875  0.00  0.00    +0.000 A 
ENDBRANCH  13  19
ENDBRANCH   1  13
TORSDOF 2
ENDMDL
MODEL 4
REMARK VINA RESULT:      -7.2      1.628      3.042
REMARK  Name = 
REMARK  3 active torsions:
REMARK  status: ('A' for Active; 'I' for Inactive)
REMARK    1  A    between atoms: C_1  and  C_2
REMARK    2  A    between atoms: C_6  and  S_7
REMARK    3  A    between atoms: S_7  and  C_8
REMARK                            x       y       z     vdW  Elec       q    Type
REMARK                         _______ _______ _______ _____ _____    ______ ____
ROOT
ATOM      1  C   UNL     1       4.095   4.487  18.063  0.00  0.00    +0.000 C 
ATOM      2  C   UNL     1       4.140   3.164  17.844  0.00  0.00    +0.000 C 
ATOM      3  C   UNL     1       3.296   2.219  18.599  0.00  0.00    +0.000 C 
ATOM      4  O   UNL     1       3.321   1.023  18.354  0.00  0.00    +0.000 OA
ATOM      5  C   UNL     1       2.341   2.790  19.629  0.00  0.00    +0.000 C 
ATOM      6  O   UNL     1       1.715   2.055  20.382  0.00  0.00    +0.000 OA
ATOM      7  C   UNL     1       2.230   4.258  19.725  0.00  0.00    +0.000 A 
ATOM      8  C   UNL     1       1.194   4.811  20.494  0.00  0.00    +0.000 A 
ATOM      9  C   UNL     1       1.133   6.186  20.687  0.00  0.00    +0.000 A 
ATOM     10  C   UNL     1       2.139   6.995  20.173  0.00  0.00    +0.000 A 
ATOM     11  C   UNL     1       3.153   6.442  19.383  0.00  0.00    +0.000 A 
ATOM     12  C   UNL     1       3.176   5.069  19.076  0.00  0.00    +0.000 A 
ENDROOT
BRANCH   1  13
ATOM     13  S   UNL     1       4.729   5.562  16.850  0.00  0.00    +0.000 S 
BRANCH  13  19
ATOM     14  C   UNL     1       8.234   9.563  17.624  0.00  0.00    +0.000 C 
ATOM     15  C   UNL     1       7.796   8.148  17.855  0.00  0.00    +0.000 A 
ATOM     16  C   UNL     1       8.482   7.362  18.790  0.00  0.00    +0.000 A 
ATOM     17  C   UNL     1       8.037   6.080  19.085  0.00  0.00    +0.000 A 
ATOM     18  C   UNL     1       6.889   5.591  18.459  0.00  0.00    +0.000 A 
ATOM     19  C   UNL     1       6.175   6.355  17.525  0.00  0.00    +0.000 A 
ATOM     20  C   UNL     1       6.649   7.634  17.215  0.00  0.00    +0.000 A 
ENDBRANCH  13  19
ENDBRANCH   1  13
TORSDOF 2
ENDMDL
MODEL 5
REMARK VINA RESULT:      -7.0      2.864      4.980
REMARK  Name = 
REMARK  3 active torsions:
REMARK  status: ('A' for Active; 'I' for Inactive)
REMARK    1  A    between atoms: C_1  and  C_2
REMARK    2  A    between atoms: C_6  and  S_7
REMARK    3  A    between atoms: S_7  and  C_8
REMARK                            x       y       z     vdW  Elec       q    Type
REMARK                         _______ _______ _______ _____ _____    ______ ____
ROOT
ATOM      1  C   UNL     1       3.463   5.817  18.562  0.00  0.00    +0.000 C 
ATOM      2  C   UNL     1       4.782   5.852  18.804  0.00  0.00    +0.000 C 
ATOM      3  C   UNL     1       5.517   4.668  19.288  0.00  0.00    +0.000 C 
ATOM      4  O   UNL     1       6.726   4.708  19.460  0.00  0.00    +0.000 OA
ATOM      5  C   UNL     1       4.738   3.383  19.485  0.00  0.00    +0.000 C 
ATOM      6  O   UNL     1       5.258   2.406  20.012  0.00  0.00    +0.000 OA
ATOM      7  C   UNL     1       3.324   3.365  19.068  0.00  0.00    +0.000 A 
ATOM      8  C   UNL     1       2.647   2.135  19.017  0.00  0.00    +0.000 A 
ATOM      9  C   UNL     1       1.287   2.104  18.731  0.00  0.00    +0.000 A 
ATOM     10  C   UNL     1       0.595   3.299  18.565  0.00  0.00    +0.000 A 
ATOM     11  C   UNL     1       1.280   4.518  18.588  0.00  0.00    +0.000 A 
ATOM     12  C   UNL     1       2.675   4.572  18.761  0.00  0.00    +0.000 A 
ENDROOT
BRANCH   1  13
ATOM     13  S   UNL     1       2.758   7.055  17.562  0.00  0.00    +0.000 S 
BRANCH  13  19
ATOM     14  C   UNL     1       0.954   9.023  22.227  0.00  0.00    +0.000 C 
ATOM     15  C   UNL     1       1.089   9.114  20.737  0.00  0.00    +0.000 A 
ATOM     16  C   UNL     1       0.673  10.279  20.080  0.00  0.00    +0.000 A 
ATOM     17  C   UNL     1       0.872  10.420  18.714  0.00  0.00    +0.000 A 
ATOM     18  C   UNL     1       1.512   9.402  18.005  0.00  0.00    +0.000 A 
ATOM     19  C   UNL     1       1.950   8.228  18.633  0.00  0.00    +0.000 A 
ATOM     20  C   UNL     1       1.716   8.084  20.005  0.00  0.00    +0.000 A 
ENDBRANCH  13  19
ENDBRANCH   1  13
TORSDOF 2
ENDMDL
MODEL 6
REMARK VINA RESULT:      -6.9      2.972      5.316
REMARK  Name = 
REMARK  3 active torsions:
REMARK  status: ('A' for Active; 'I' for Inactive)
REMARK    1  A    between atoms: C_1  and  C_2
REMARK    2  A    between atoms: C_6  and  S_7
REMARK    3  A    between atoms: S_7  and  C_8
REMARK                            x       y       z     vdW  Elec       q    Type
REMARK                         _______ _______ _______ _____ _____    ______ ____
ROOT
ATOM      1  C   UNL     1       4.487   4.415  17.973  0.00  0.00    +0.000 C 
ATOM      2  C   UNL     1       5.100   4.708  19.130  0.00  0.00    +0.000 C 
ATOM      3  C   UNL     1       6.554   4.942  19.205  0.00  0.00    +0.000 C 
ATOM      4  O   UNL     1       7.085   5.251  20.261  0.00  0.00    +0.000 OA
ATOM      5  C   UNL     1       7.351   4.868  17.918  0.00  0.00    +0.000 C 
ATOM      6  O   UNL     1       8.575   4.917  17.931  0.00  0.00    +0.000 OA
ATOM      7  C   UNL     1       6.606   4.686  16.658  0.00  0.00    +0.000 A 
ATOM      8  C   UNL     1       7.285   4.848  15.439  0.00  0.00    +0.000 A 
ATOM      9  C   UNL     1       6.633   4.576  14.241  0.00  0.00    +0.000 A 
ATOM     10  C   UNL     1       5.334   4.080  14.266  0.00  0.00    +0.000 A 
ATOM     11  C   UNL     1       4.654   3.948  15.482  0.00  0.00    +0.000 A 
ATOM     12  C   UNL     1       5.250   4.324  16.700  0.00  0.00    +0.000 A 
ENDROOT
BRANCH   1  13
ATOM     13  S   UNL     1       2.763   4.623  17.857  0.00  0.00    +0.000 S 
BRANCH  13  19
ATOM     14  C   UNL     1       1.820   9.913  18.005  0.00  0.00    +0.000 C 
ATOM     15  C   UNL     1       1.959   8.591  18.699  0.00  0.00    +0.000 A 
ATOM     16  C   UNL     1       1.614   8.488  20.053  0.00  0.00    +0.000 A 
ATOM     17  C   UNL     1       1.649   7.256  20.691  0.00  0.00    +0.000 A 
ATOM     18  C   UNL     1       2.008   6.118  19.967  0.00  0.00    +0.000 A 
ATOM     19  C   UNL     1       2.350   6.185  18.609  0.00  0.00    +0.000 A 
ATOM     20  C   UNL     1       2.340   7.437  17.985  0.00  0.00    +0.000 A 
ENDBRANCH  13  19
ENDBRANCH   1  13
TORSDOF 2
ENDMDL
MODEL 7
REMARK VINA RESULT:      -6.9      2.545      5.511
REMARK  Name = 
REMARK  3 active torsions:
REMARK  status: ('A' for Active; 'I' for Inactive)
REMARK    1  A    between atoms: C_1  and  C_2
REMARK    2  A    between atoms: C_6  and  S_7
REMARK    3  A    between atoms: S_7  and  C_8
REMARK                            x       y       z     vdW  Elec       q    Type
REMARK                         _______ _______ _______ _____ _____    ______ ____
ROOT
ATOM      1  C   UNL     1       3.408   6.334  17.867  0.00  0.00    +0.000 C 
ATOM      2  C   UNL     1       2.574   5.443  18.424  0.00  0.00    +0.000 C 
ATOM      3  C   UNL     1       3.069   4.251  19.137  0.00  0.00    +0.000 C 
ATOM      4  O   UNL     1       2.294   3.475  19.675  0.00  0.00    +0.000 OA
ATOM      5  C   UNL     1       4.570   4.064  19.247  0.00  0.00    +0.000 C 
ATOM      6  O   UNL     1       5.043   3.031  19.704  0.00  0.00    +0.000 OA
ATOM      7  C   UNL     1       5.436   5.145  18.743  0.00  0.00    +0.000 A 
ATOM      8  C   UNL     1       6.808   5.110  19.041  0.00  0.00    +0.000 A 
ATOM      9  C   UNL     1       7.662   6.058  18.487  0.00  0.00    +0.000 A 
ATOM     10  C   UNL     1       7.158   6.991  17.588  0.00  0.00    +0.000 A 
ATOM     11  C   UNL     1       5.786   7.038  17.317  0.00  0.00    +0.000 A 
ATOM     12  C   UNL     1       4.883   6.165  17.951  0.00  0.00    +0.000 A 
ENDROOT
BRANCH   1  13
ATOM     13  S   UNL     1       2.808   7.920  17.478  0.00  0.00    +0.000 S 
BRANCH  13  19
ATOM     14  C   UNL     1      -0.835  10.963  20.001  0.00  0.00    +0.000 C 
ATOM     15  C   UNL     1       0.209   9.886  20.023  0.00  0.00    +0.000 A 
ATOM     16  C   UNL     1       0.382   9.125  21.186  0.00  0.00    +0.000 A 
ATOM     17  C   UNL     1       1.279   8.065  21.199  0.00  0.00    +0.000 A 
ATOM     18  C   UNL     1       1.987   7.750  20.038  0.00  0.00    +0.000 A 
ATOM     19  C   UNL     1       1.829   8.487  18.855  0.00  0.00    +0.000 A 
ATOM     20  C   UNL     1       0.946   9.571  18.863  0.00  0.00    +0.000 A 
ENDBRANCH  13  19
ENDBRANCH   1  13
TORSDOF 2
ENDMDL
MODEL 8
REMARK VINA RESULT:      -6.9      2.519      5.596
REMARK  Name = 
REMARK  3 active torsions:
REMARK  status: ('A' for Active; 'I' for Inactive)
REMARK    1  A    between atoms: C_1  and  C_2
REMARK    2  A    between atoms: C_6  and  S_7
REMARK    3  A    between atoms: S_7  and  C_8
REMARK                            x       y       z     vdW  Elec       q    Type
REMARK                         _______ _______ _______ _____ _____    ______ ____
ROOT
ATOM      1  C   UNL     1       3.442   6.519  17.842  0.00  0.00    +0.000 C 
ATOM      2  C   UNL     1       2.547   5.722  18.444  0.00  0.00    +0.000 C 
ATOM      3  C   UNL     1       2.955   4.522  19.198  0.00  0.00    +0.000 C 
ATOM      4  O   UNL     1       2.128   3.834  19.776  0.00  0.00    +0.000 OA
ATOM      5  C   UNL     1       4.437   4.218  19.298  0.00  0.00    +0.000 C 
ATOM      6  O   UNL     1       4.833   3.168  19.790  0.00  0.00    +0.000 OA
ATOM      7  C   UNL     1       5.380   5.205  18.739  0.00  0.00    +0.000 A 
ATOM      8  C   UNL     1       6.749   5.070  19.022  0.00  0.00    +0.000 A 
ATOM      9  C   UNL     1       7.668   5.923  18.420  0.00  0.00    +0.000 A 
ATOM     10  C   UNL     1       7.228   6.857  17.490  0.00  0.00    +0.000 A 
ATOM     11  C   UNL     1       5.860   7.006  17.235  0.00  0.00    +0.000 A 
ATOM     12  C   UNL     1       4.899   6.235  17.915  0.00  0.00    +0.000 A 
ENDROOT
BRANCH   1  13
ATOM     13  S   UNL     1       2.966   8.133  17.397  0.00  0.00    +0.000 S 
BRANCH  13  19
ATOM     14  C   UNL     1       0.957   8.881  22.326  0.00  0.00    +0.000 C 
ATOM     15  C   UNL     1       0.850   9.023  20.837  0.00  0.00    +0.000 A 
ATOM     16  C   UNL     1      -0.187   9.793  20.294  0.00  0.00    +0.000 A 
ATOM     17  C   UNL     1      -0.251  10.011  18.924  0.00  0.00    +0.000 A 
ATOM     18  C   UNL     1       0.739   9.477  18.097  0.00  0.00    +0.000 A 
ATOM     19  C   UNL     1       1.795   8.711  18.609  0.00  0.00    +0.000 A 
ATOM     20  C   UNL     1       1.832   8.472  19.987  0.00  0.00    +0.000 A 
ENDBRANCH  13  19
ENDBRANCH   1  13
TORSDOF 2
ENDMDL
MODEL 9
REMARK VINA RESULT:      -6.8      2.911      4.922
REMARK  Name = 
REMARK  3 active torsions:
REMARK  status: ('A' for Active; 'I' for Inactive)
REMARK    1  A    between atoms: C_1  and  C_2
REMARK    2  A    between atoms: C_6  and  S_7
REMARK    3  A    between atoms: S_7  and  C_8
REMARK                            x       y       z     vdW  Elec       q    Type
REMARK                         _______ _______ _______ _____ _____    ______ ____
ROOT
ATOM      1  C   UNL     1       3.495   5.882  18.588  0.00  0.00    +0.000 C 
ATOM      2  C   UNL     1       4.809   5.910  18.860  0.00  0.00    +0.000 C 
ATOM      3  C   UNL     1       5.535   4.713  19.321  0.00  0.00    +0.000 C 
ATOM      4  O   UNL     1       6.740   4.749  19.521  0.00  0.00    +0.000 OA
ATOM      5  C   UNL     1       4.755   3.420  19.461  0.00  0.00    +0.000 C 
ATOM      6  O   UNL     1       5.265   2.428  19.967  0.00  0.00    +0.000 OA
ATOM      7  C   UNL     1       3.350   3.414  19.012  0.00  0.00    +0.000 A 
ATOM      8  C   UNL     1       2.677   2.186  18.908  0.00  0.00    +0.000 A 
ATOM      9  C   UNL     1       1.323   2.163  18.591  0.00  0.00    +0.000 A 
ATOM     10  C   UNL     1       0.633   3.361  18.448  0.00  0.00    +0.000 A 
ATOM     11  C   UNL     1       1.315   4.580  18.524  0.00  0.00    +0.000 A 
ATOM     12  C   UNL     1       2.706   4.630  18.730  0.00  0.00    +0.000 A 
ENDROOT
BRANCH   1  13
ATOM     13  S   UNL     1       2.811   7.150  17.613  0.00  0.00    +0.000 S 
BRANCH  13  19
ATOM     14  C   UNL     1      -0.225  11.398  18.892  0.00  0.00    +0.000 C 
ATOM     15  C   UNL     1       0.571  10.192  19.295  0.00  0.00    +0.000 A 
ATOM     16  C   UNL     1       0.533   9.760  20.627  0.00  0.00    +0.000 A 
ATOM     17  C   UNL     1       1.189   8.596  21.002  0.00  0.00    +0.000 A 
ATOM     18  C   UNL     1       1.865   7.847  20.037  0.00  0.00    +0.000 A 
ATOM     19  C   UNL     1       1.914   8.247  18.694  0.00  0.00    +0.000 A 
ATOM     20  C   UNL     1       1.275   9.438  18.334  0.00  0.00    +0.000 A 
ENDBRANCH  13  19
ENDBRANCH   1  13
TORSDOF 2
ENDMDL
