MODEL 1
REMARK VINA RESULT:      -7.4      0.000      0.000
REMARK  Name = 
REMARK  7 active torsions:
REMARK  status: ('A' for Active; 'I' for Inactive)
REMARK    1  A    between atoms: C_1  and  O_2
REMARK    2  A    between atoms: O_2  and  C_3
REMARK    3  A    between atoms: C_5  and  C_6
REMARK    4  A    between atoms: C_10  and  O_11
REMARK    5  A    between atoms: O_11  and  C_12
REMARK    6  A    between atoms: C_12  and  C_13
REMARK    7  A    between atoms: C_13  and  C_15
REMARK                            x       y       z     vdW  Elec       q    Type
REMARK                         _______ _______ _______ _____ _____    ______ ____
ROOT
ATOM      1  C   UNL     1       2.871   4.360  18.644  0.00  0.00    +0.000 C 
ENDROOT
BRANCH   1   2
ATOM      2  C   UNL     1       2.467   5.292  19.786  0.00  0.00    +0.000 C 
ATOM      3  O   UNL     1       2.357   4.926  20.954  0.00  0.00    +0.000 OA
BRANCH   2   4
ATOM      4  C   UNL     1       2.203   6.726  19.434  0.00  0.00    +0.000 A 
ATOM      5  C   UNL     1       2.490   7.174  18.135  0.00  0.00    +0.000 A 
ATOM      6  C   UNL     1       2.221   8.496  17.767  0.00  0.00    +0.000 A 
ATOM      7  C   UNL     1       1.672   9.380  18.694  0.00  0.00    +0.000 A 
ATOM      8  C   UNL     1       1.382   8.939  19.986  0.00  0.00    +0.000 A 
ATOM      9  C   UNL     1       1.659   7.625  20.362  0.00  0.00    +0.000 A 
ATOM     10  O   UNL     1       0.826   9.741  20.950  0.00  0.00    +0.000 OA
ATOM     11  C   UNL     1       0.250  10.920  20.380  0.00  0.00    +0.000 C 
ATOM     12  C   UNL     1       1.190  11.547  19.364  0.00  0.00    +0.000 C 
ATOM     13  O   UNL     1       1.429  10.658  18.265  0.00  0.00    +0.000 OA
ENDBRANCH   2   4
ENDBRANCH   1   2
BRANCH   1  14
ATOM     14  O   UNL     1       4.187   3.847  18.742  0.00  0.00    +0.000 OA
BRANCH  14  20
ATOM     15  C   UNL     1       6.421   4.590  17.875  0.00  0.00    +0.000 A 
ATOM     16  C   UNL     1       7.157   4.882  16.715  0.00  0.00    +0.000 A 
ATOM     17  C   UNL     1       6.571   4.799  15.448  0.00  0.00    +0.000 A 
ATOM     18  C   UNL     1       5.243   4.398  15.325  0.00  0.00    +0.000 A 
ATOM     19  C   UNL     1       4.509   4.087  16.471  0.00  0.00    +0.000 A 
ATOM     20  C   UNL     1       5.079   4.178  17.750  0.00  0.00    +0.000 A 
BRANCH  15  22
ATOM     21  C   UNL     1       7.795   5.805  19.395  0.00  0.00    +0.000 C 
ATOM     22  O   UNL     1       6.994   4.657  19.119  0.00  0.00    +0.000 OA
ENDBRANCH  15  22
BRANCH  17  23
ATOM     23  C   UNL     1       7.345   5.131  14.290  0.00  0.00    +0.000 C 
ATOM     24  N   UNL     1       7.970   5.433  13.358  0.00  0.00    +0.000 NA
ENDBRANCH  17  23
ENDBRANCH  14  20
ENDBRANCH   1  14
TORSDOF 6
ENDMDL
MODEL 2
REMARK VINA RESULT:      -7.2      3.427      7.265
REMARK  Name = 
REMARK  7 active torsions:
REMARK  status: ('A' for Active; 'I' for Inactive)
REMARK    1  A    between atoms: C_1  and  O_2
REMARK    2  A    between atoms: O_2  and  C_3
REMARK    3  A    between atoms: C_5  and  C_6
REMARK    4  A    between atoms: C_10  and  O_11
REMARK    5  A    between atoms: O_11  and  C_12
REMARK    6  A    between atoms: C_12  and  C_13
REMARK    7  A    between atoms: C_13  and  C_15
REMARK                            x       y       z     vdW  Elec       q    Type
REMARK                         _______ _______ _______ _____ _____    ______ ____
ROOT
ATOM      1  C   UNL     1       3.346   2.828  17.906  0.00  0.00    +0.000 C 
ENDROOT
BRANCH   1   2
ATOM      2  C   UNL     1       4.692   3.466  18.253  0.00  0.00    +0.000 C 
ATOM      3  O   UNL     1       5.125   3.554  19.400  0.00  0.00    +0.000 OA
BRANCH   2   4
ATOM      4  C   UNL     1       5.508   3.999  17.113  0.00  0.00    +0.000 A 
ATOM      5  C   UNL     1       6.527   4.925  17.378  0.00  0.00    +0.000 A 
ATOM      6  C   UNL     1       7.329   5.412  16.340  0.00  0.00    +0.000 A 
ATOM      7  C   UNL     1       7.112   4.984  15.032  0.00  0.00    +0.000 A 
ATOM      8  C   UNL     1       6.101   4.060  14.763  0.00  0.00    +0.000 A 
ATOM      9  C   UNL     1       5.291   3.580  15.793  0.00  0.00    +0.000 A 
ATOM     10  O   UNL     1       5.835   3.576  13.507  0.00  0.00    +0.000 OA
ATOM     11  C   UNL     1       6.920   3.828  12.610  0.00  0.00    +0.000 C 
ATOM     12  C   UNL     1       7.419   5.257  12.751  0.00  0.00    +0.000 C 
ATOM     13  O   UNL     1       7.936   5.496  14.066  0.00  0.00    +0.000 OA
ENDBRANCH   2   4
ENDBRANCH   1   2
BRANCH   1  14
ATOM     14  O   UNL     1       2.297   3.753  17.685  0.00  0.00    +0.000 OA
BRANCH  14  20
ATOM     15  C   UNL     1       1.500   4.555  19.924  0.00  0.00    +0.000 A 
ATOM     16  C   UNL     1       1.366   5.680  20.754  0.00  0.00    +0.000 A 
ATOM     17  C   UNL     1       1.764   6.948  20.320  0.00  0.00    +0.000 A 
ATOM     18  C   UNL     1       2.325   7.102  19.055  0.00  0.00    +0.000 A 
ATOM     19  C   UNL     1       2.480   5.987  18.230  0.00  0.00    +0.000 A 
ATOM     20  C   UNL     1       2.074   4.709  18.646  0.00  0.00    +0.000 A 
BRANCH  15  22
ATOM     21  C   UNL     1       1.892   2.728  21.402  0.00  0.00    +0.000 C 
ATOM     22  O   UNL     1       1.123   3.306  20.349  0.00  0.00    +0.000 OA
ENDBRANCH  15  22
BRANCH  17  23
ATOM     23  C   UNL     1       1.586   8.076  21.184  0.00  0.00    +0.000 C 
ATOM     24  N   UNL     1       1.430   9.009  21.859  0.00  0.00    +0.000 NA
ENDBRANCH  17  23
ENDBRANCH  14  20
ENDBRANCH   1  14
TORSDOF 6
ENDMDL
MODEL 3
REMARK VINA RESULT:      -7.1      2.137      3.467
REMARK  Name = 
REMARK  7 active torsions:
REMARK  status: ('A' for Active; 'I' for Inactive)
REMARK    1  A    between atoms: C_1  and  O_2
REMARK    2  A    between atoms: O_2  and  C_3
REMARK    3  A    between atoms: C_5  and  C_6
REMARK    4  A    between atoms: C_10  and  O_11
REMARK    5  A    between atoms: O_11  and  C_12
REMARK    6  A    between atoms: C_12  and  C_13
REMARK    7  A    between atoms: C_13  and  C_15
REMARK                            x       y       z     vdW  Elec       q    Type
REMARK                         _______ _______ _______ _____ _____    ______ ____
ROOT
ATOM      1  C   UNL     1       4.879   3.759  18.747  0.00  0.00    +0.000 C 
ENDROOT
BRANCH   1   2
ATOM      2  C   UNL     1       3.585   4.219  18.073  0.00  0.00    +0.000 C 
ATOM      3  O   UNL     1       3.046   3.608  17.153  0.00  0.00    +0.000 OA
BRANCH   2   4
ATOM      4  C   UNL     1       2.961   5.481  18.587  0.00  0.00    +0.000 A 
ATOM      5  C   UNL     1       2.518   5.530  19.918  0.00  0.00    +0.000 A 
ATOM      6  C   UNL     1       1.964   6.706  20.437  0.00  0.00    +0.000 A 
ATOM      7  C   UNL     1       1.843   7.835  19.630  0.00  0.00    +0.000 A 
ATOM      8  C   UNL     1       2.285   7.793  18.306  0.00  0.00    +0.000 A 
ATOM      9  C   UNL     1       2.827   6.619  17.780  0.00  0.00    +0.000 A 
ATOM     10  O   UNL     1       2.217   8.865  17.453  0.00  0.00    +0.000 OA
ATOM     11  C   UNL     1       2.004  10.087  18.166  0.00  0.00    +0.000 C 
ATOM     12  C   UNL     1       0.918   9.920  19.216  0.00  0.00    +0.000 C 
ATOM     13  O   UNL     1       1.297   8.953  20.202  0.00  0.00    +0.000 OA
ENDBRANCH   2   4
ENDBRANCH   1   2
BRANCH   1  14
ATOM     14  O   UNL     1       6.045   3.939  17.964  0.00  0.00    +0.000 OA
BRANCH  14  20
ATOM     15  C   UNL     1       6.358   6.158  16.835  0.00  0.00    +0.000 A 
ATOM     16  C   UNL     1       6.982   7.411  16.932  0.00  0.00    +0.000 A 
ATOM     17  C   UNL     1       7.817   7.720  18.011  0.00  0.00    +0.000 A 
ATOM     18  C   UNL     1       8.018   6.783  19.021  0.00  0.00    +0.000 A 
ATOM     19  C   UNL     1       7.386   5.541  18.943  0.00  0.00    +0.000 A 
ATOM     20  C   UNL     1       6.555   5.211  17.860  0.00  0.00    +0.000 A 
BRANCH  15  22
ATOM     21  C   UNL     1       6.066   5.018  14.764  0.00  0.00    +0.000 C 
ATOM     22  O   UNL     1       5.528   5.854  15.786  0.00  0.00    +0.000 OA
ENDBRANCH  15  22
BRANCH  17  23
ATOM     23  C   UNL     1       8.459   8.999  18.062  0.00  0.00    +0.000 C 
ATOM     24  N   UNL     1       8.959  10.046  18.126  0.00  0.00    +0.000 NA
ENDBRANCH  17  23
ENDBRANCH  14  20
ENDBRANCH   1  14
TORSDOF 6
ENDMDL
MODEL 4
REMARK VINA RESULT:      -7.1      0.700      1.511
REMARK  Name = 
REMARK  7 active torsions:
REMARK  status: ('A' for Active; 'I' for Inactive)
REMARK    1  A    between atoms: C_1  and  O_2
REMARK    2  A    between atoms: O_2  and  C_3
REMARK    3  A    between atoms: C_5  and  C_6
REMARK    4  A    between atoms: C_10  and  O_11
REMARK    5  A    between atoms: O_11  and  C_12
REMARK    6  A    between atoms: C_12  and  C_13
REMARK    7  A    between atoms: C_13  and  C_15
REMARK                            x       y       z     vdW  Elec       q    Type
REMARK                         _______ _______ _______ _____ _____    ______ ____
ROOT
ATOM      1  C   UNL     1       2.983   4.507  18.499  0.00  0.00    +0.000 C 
ENDROOT
BRANCH   1   2
ATOM      2  C   UNL     1       2.577   5.115  19.841  0.00  0.00    +0.000 C 
ATOM      3  O   UNL     1       2.626   4.503  20.906  0.00  0.00    +0.000 OA
BRANCH   2   4
ATOM      4  C   UNL     1       2.104   6.539  19.829  0.00  0.00    +0.000 A 
ATOM      5  C   UNL     1       1.433   7.044  20.953  0.00  0.00    +0.000 A 
ATOM      6  C   UNL     1       1.013   8.378  20.985  0.00  0.00    +0.000 A 
ATOM      7  C   UNL     1       1.251   9.211  19.895  0.00  0.00    +0.000 A 
ATOM      8  C   UNL     1       1.921   8.714  18.775  0.00  0.00    +0.000 A 
ATOM      9  C   UNL     1       2.332   7.381  18.733  0.00  0.00    +0.000 A 
ATOM     10  O   UNL     1       2.210   9.473  17.669  0.00  0.00    +0.000 OA
ATOM     11  C   UNL     1       2.089  10.871  17.949  0.00  0.00    +0.000 C 
ATOM     12  C   UNL     1       0.812  11.161  18.720  0.00  0.00    +0.000 C 
ATOM     13  O   UNL     1       0.818  10.506  19.995  0.00  0.00    +0.000 OA
ENDBRANCH   2   4
ENDBRANCH   1   2
BRANCH   1  14
ATOM     14  O   UNL     1       4.242   3.858  18.505  0.00  0.00    +0.000 OA
BRANCH  14  20
ATOM     15  C   UNL     1       6.488   4.595  17.665  0.00  0.00    +0.000 A 
ATOM     16  C   UNL     1       7.234   4.903  16.516  0.00  0.00    +0.000 A 
ATOM     17  C   UNL     1       6.654   4.852  15.244  0.00  0.00    +0.000 A 
ATOM     18  C   UNL     1       5.323   4.468  15.106  0.00  0.00    +0.000 A 
ATOM     19  C   UNL     1       4.579   4.142  16.241  0.00  0.00    +0.000 A 
ATOM     20  C   UNL     1       5.143   4.200  17.525  0.00  0.00    +0.000 A 
BRANCH  15  22
ATOM     21  C   UNL     1       7.728   5.833  19.278  0.00  0.00    +0.000 C 
ATOM     22  O   UNL     1       7.055   4.630  18.913  0.00  0.00    +0.000 OA
ENDBRANCH  15  22
BRANCH  17  23
ATOM     23  C   UNL     1       7.439   5.200  14.098  0.00  0.00    +0.000 C 
ATOM     24  N   UNL     1       8.097   5.497  13.187  0.00  0.00    +0.000 NA
ENDBRANCH  17  23
ENDBRANCH  14  20
ENDBRANCH   1  14
TORSDOF 6
ENDMDL
MODEL 5
REMARK VINA RESULT:      -7.1      1.262      2.067
REMARK  Name = 
REMARK  7 active torsions:
REMARK  status: ('A' for Active; 'I' for Inactive)
REMARK    1  A    between atoms: C_1  and  O_2
REMARK    2  A    between atoms: O_2  and  C_3
REMARK    3  A    between atoms: C_5  and  C_6
REMARK    4  A    between atoms: C_10  and  O_11
REMARK    5  A    between atoms: O_11  and  C_12
REMARK    6  A    between atoms: C_12  and  C_13
REMARK    7  A    between atoms: C_13  and  C_15
REMARK                            x       y       z     vdW  Elec       q    Type
REMARK                         _______ _______ _______ _____ _____    ______ ____
ROOT
ATOM      1  C   UNL     1       3.904   3.131  18.642  0.00  0.00    +0.000 C 
ENDROOT
BRANCH   1   2
ATOM      2  C   UNL     1       2.512   3.688  18.345  0.00  0.00    +0.000 C 
ATOM      3  O   UNL     1       1.633   3.048  17.772  0.00  0.00    +0.000 OA
BRANCH   2   4
ATOM      4  C   UNL     1       2.229   5.091  18.795  0.00  0.00    +0.000 A 
ATOM      5  C   UNL     1       1.989   5.336  20.155  0.00  0.00    +0.000 A 
ATOM      6  C   UNL     1       1.759   6.638  20.610  0.00  0.00    +0.000 A 
ATOM      7  C   UNL     1       1.758   7.701  19.709  0.00  0.00    +0.000 A 
ATOM      8  C   UNL     1       1.999   7.464  18.355  0.00  0.00    +0.000 A 
ATOM      9  C   UNL     1       2.217   6.165  17.894  0.00  0.00    +0.000 A 
ATOM     10  O   UNL     1       2.032   8.456  17.408  0.00  0.00    +0.000 OA
ATOM     11  C   UNL     1       2.167   9.747  18.010  0.00  0.00    +0.000 C 
ATOM     12  C   UNL     1       1.222   9.897  19.191  0.00  0.00    +0.000 C 
ATOM     13  O   UNL     1       1.531   8.951  20.222  0.00  0.00    +0.000 OA
ENDBRANCH   2   4
ENDBRANCH   1   2
BRANCH   1  14
ATOM     14  O   UNL     1       4.933   4.105  18.666  0.00  0.00    +0.000 OA
BRANCH  14  20
ATOM     15  C   UNL     1       7.021   4.589  17.362  0.00  0.00    +0.000 A 
ATOM     16  C   UNL     1       7.549   4.761  16.072  0.00  0.00    +0.000 A 
ATOM     17  C   UNL     1       6.731   4.687  14.941  0.00  0.00    +0.000 A 
ATOM     18  C   UNL     1       5.373   4.415  15.087  0.00  0.00    +0.000 A 
ATOM     19  C   UNL     1       4.842   4.223  16.363  0.00  0.00    +0.000 A 
ATOM     20  C   UNL     1       5.648   4.307  17.510  0.00  0.00    +0.000 A 
BRANCH  15  22
ATOM     21  C   UNL     1       7.882   5.899  19.156  0.00  0.00    +0.000 C 
ATOM     22  O   UNL     1       7.822   4.648  18.474  0.00  0.00    +0.000 OA
ENDBRANCH  15  22
BRANCH  17  23
ATOM     23  C   UNL     1       7.300   4.895  13.644  0.00  0.00    +0.000 C 
ATOM     24  N   UNL     1       7.764   5.097  12.598  0.00  0.00    +0.000 NA
ENDBRANCH  17  23
ENDBRANCH  14  20
ENDBRANCH   1  14
TORSDOF 6
ENDMDL
MODEL 6
REMARK VINA RESULT:      -7.0      3.028      7.412
REMARK  Name = 
REMARK  7 active torsions:
REMARK  status: ('A' for Active; 'I' for Inactive)
REMARK    1  A    between atoms: C_1  and  O_2
REMARK    2  A    between atoms: O_2  and  C_3
REMARK    3  A    between atoms: C_5  and  C_6
REMARK    4  A    between atoms: C_10  and  O_11
REMARK    5  A    between atoms: O_11  and  C_12
REMARK    6  A    between atoms: C_12  and  C_13
REMARK    7  A    between atoms: C_13  and  C_15
REMARK                            x       y       z     vdW  Elec       q    Type
REMARK                         _______ _______ _______ _____ _____    ______ ____
ROOT
ATOM      1  C   UNL     1       2.227   5.709  19.448  0.00  0.00    +0.000 C 
ENDROOT
BRANCH   1   2
ATOM      2  C   UNL     1       3.273   4.596  19.510  0.00  0.00    +0.000 C 
ATOM      3  O   UNL     1       3.227   3.666  20.312  0.00  0.00    +0.000 OA
BRANCH   2   4
ATOM      4  C   UNL     1       4.401   4.664  18.523  0.00  0.00    +0.000 A 
ATOM      5  C   UNL     1       5.702   4.902  18.989  0.00  0.00    +0.000 A 
ATOM      6  C   UNL     1       6.779   4.934  18.096  0.00  0.00    +0.000 A 
ATOM      7  C   UNL     1       6.561   4.737  16.734  0.00  0.00    +0.000 A 
ATOM      8  C   UNL     1       5.269   4.496  16.265  0.00  0.00    +0.000 A 
ATOM      9  C   UNL     1       4.190   4.475  17.150  0.00  0.00    +0.000 A 
ATOM     10  O   UNL     1       4.974   4.275  14.944  0.00  0.00    +0.000 OA
ATOM     11  C   UNL     1       6.149   3.953  14.194  0.00  0.00    +0.000 C 
ATOM     12  C   UNL     1       7.289   4.897  14.539  0.00  0.00    +0.000 C 
ATOM     13  O   UNL     1       7.660   4.777  15.917  0.00  0.00    +0.000 OA
ENDBRANCH   2   4
ENDBRANCH   1   2
BRANCH   1  14
ATOM     14  O   UNL     1       2.729   7.002  19.736  0.00  0.00    +0.000 OA
BRANCH  14  20
ATOM     15  C   UNL     1       1.098   8.741  20.521  0.00  0.00    +0.000 A 
ATOM     16  C   UNL     1       0.296   9.820  20.116  0.00  0.00    +0.000 A 
ATOM     17  C   UNL     1       0.240  10.216  18.776  0.00  0.00    +0.000 A 
ATOM     18  C   UNL     1       1.009   9.550  17.826  0.00  0.00    +0.000 A 
ATOM     19  C   UNL     1       1.825   8.488  18.221  0.00  0.00    +0.000 A 
ATOM     20  C   UNL     1       1.882   8.070  19.560  0.00  0.00    +0.000 A 
BRANCH  15  22
ATOM     21  C   UNL     1       0.756   9.316  22.806  0.00  0.00    +0.000 C 
ATOM     22  O   UNL     1       1.167   8.356  21.835  0.00  0.00    +0.000 OA
ENDBRANCH  15  22
BRANCH  17  23
ATOM     23  C   UNL     1      -0.612  11.303  18.398  0.00  0.00    +0.000 C 
ATOM     24  N   UNL     1      -1.278  12.206  18.097  0.00  0.00    +0.000 NA
ENDBRANCH  17  23
ENDBRANCH  14  20
ENDBRANCH   1  14
TORSDOF 6
ENDMDL
MODEL 7
REMARK VINA RESULT:      -6.9      1.924      3.134
REMARK  Name = 
REMARK  7 active torsions:
REMARK  status: ('A' for Active; 'I' for Inactive)
REMARK    1  A    between atoms: C_1  and  O_2
REMARK    2  A    between atoms: O_2  and  C_3
REMARK    3  A    between atoms: C_5  and  C_6
REMARK    4  A    between atoms: C_10  and  O_11
REMARK    5  A    between atoms: O_11  and  C_12
REMARK    6  A    between atoms: C_12  and  C_13
REMARK    7  A    between atoms: C_13  and  C_15
REMARK                            x       y       z     vdW  Elec       q    Type
REMARK                         _______ _______ _______ _____ _____    ______ ____
ROOT
ATOM      1  C   UNL     1       3.655   3.065  18.790  0.00  0.00    +0.000 C 
ENDROOT
BRANCH   1   2
ATOM      2  C   UNL     1       2.504   3.833  18.140  0.00  0.00    +0.000 C 
ATOM      3  O   UNL     1       1.803   3.372  17.241  0.00  0.00    +0.000 OA
BRANCH   2   4
ATOM      4  C   UNL     1       2.233   5.217  18.650  0.00  0.00    +0.000 A 
ATOM      5  C   UNL     1       2.010   5.407  20.023  0.00  0.00    +0.000 A 
ATOM      6  C   UNL     1       1.792   6.690  20.533  0.00  0.00    +0.000 A 
ATOM      7  C   UNL     1       1.787   7.790  19.678  0.00  0.00    +0.000 A 
ATOM      8  C   UNL     1       2.012   7.608  18.312  0.00  0.00    +0.000 A 
ATOM      9  C   UNL     1       2.218   6.328  17.796  0.00  0.00    +0.000 A 
ATOM     10  O   UNL     1       2.040   8.638  17.407  0.00  0.00    +0.000 OA
ATOM     11  C   UNL     1       2.189   9.902  18.060  0.00  0.00    +0.000 C 
ATOM     12  C   UNL     1       1.258  10.008  19.257  0.00  0.00    +0.000 C 
ATOM     13  O   UNL     1       1.572   9.018  20.245  0.00  0.00    +0.000 OA
ENDBRANCH   2   4
ENDBRANCH   1   2
BRANCH   1  14
ATOM     14  O   UNL     1       4.844   3.028  18.021  0.00  0.00    +0.000 OA
BRANCH  14  20
ATOM     15  C   UNL     1       5.697   4.894  16.577  0.00  0.00    +0.000 A 
ATOM     16  C   UNL     1       6.403   6.108  16.578  0.00  0.00    +0.000 A 
ATOM     17  C   UNL     1       6.933   6.634  17.760  0.00  0.00    +0.000 A 
ATOM     18  C   UNL     1       6.743   5.960  18.963  0.00  0.00    +0.000 A 
ATOM     19  C   UNL     1       6.026   4.763  18.976  0.00  0.00    +0.000 A 
ATOM     20  C   UNL     1       5.498   4.215  17.796  0.00  0.00    +0.000 A 
BRANCH  15  22
ATOM     21  C   UNL     1       6.075   4.102  14.363  0.00  0.00    +0.000 C 
ATOM     22  O   UNL     1       5.163   4.380  15.423  0.00  0.00    +0.000 OA
ENDBRANCH  15  22
BRANCH  17  23
ATOM     23  C   UNL     1       7.671   7.860  17.716  0.00  0.00    +0.000 C 
ATOM     24  N   UNL     1       8.287   8.844  17.655  0.00  0.00    +0.000 NA
ENDBRANCH  17  23
ENDBRANCH  14  20
ENDBRANCH   1  14
TORSDOF 6
ENDMDL
MODEL 8
REMARK VINA RESULT:      -6.9      1.895      3.243
REMARK  Name = 
REMARK  7 active torsions:
REMARK  status: ('A' for Active; 'I' for Inactive)
REMARK    1  A    between atoms: C_1  and  O_2
REMARK    2  A    between atoms: O_2  and  C_3
REMARK    3  A    between atoms: C_5  and  C_6
REMARK    4  A    between atoms: C_10  and  O_11
REMARK    5  A    between atoms: O_11  and  C_12
REMARK    6  A    between atoms: C_12  and  C_13
REMARK    7  A    between atoms: C_13  and  C_15
REMARK                            x       y       z     vdW  Elec       q    Type
REMARK                         _______ _______ _______ _____ _____    ______ ____
ROOT
ATOM      1  C   UNL     1       2.387   6.621  19.456  0.00  0.00    +0.000 C 
ENDROOT
BRANCH   1   2
ATOM      2  C   UNL     1       1.964   8.044  19.088  0.00  0.00    +0.000 C 
ATOM      3  O   UNL     1       2.151   8.541  17.979  0.00  0.00    +0.000 OA
BRANCH   2   4
ATOM      4  C   UNL     1       1.281   8.849  20.153  0.00  0.00    +0.000 A 
ATOM      5  C   UNL     1       1.081   8.277  21.418  0.00  0.00    +0.000 A 
ATOM      6  C   UNL     1       0.480   9.016  22.442  0.00  0.00    +0.000 A 
ATOM      7  C   UNL     1       0.068  10.326  22.207  0.00  0.00    +0.000 A 
ATOM      8  C   UNL     1       0.267  10.902  20.951  0.00  0.00    +0.000 A 
ATOM      9  C   UNL     1       0.855  10.164  19.922  0.00  0.00    +0.000 A 
ATOM     10  O   UNL     1      -0.094  12.189  20.644  0.00  0.00    +0.000 OA
ATOM     11  C   UNL     1      -0.335  12.959  21.825  0.00  0.00    +0.000 C 
ATOM     12  C   UNL     1      -1.183  12.180  22.817  0.00  0.00    +0.000 C 
ATOM     13  O   UNL     1      -0.508  10.994  23.255  0.00  0.00    +0.000 OA
ENDBRANCH   2   4
ENDBRANCH   1   2
BRANCH   1  14
ATOM     14  O   UNL     1       3.773   6.366  19.319  0.00  0.00    +0.000 OA
BRANCH  14  20
ATOM     15  C   UNL     1       4.044   4.358  17.839  0.00  0.00    +0.000 A 
ATOM     16  C   UNL     1       4.557   3.902  16.614  0.00  0.00    +0.000 A 
ATOM     17  C   UNL     1       5.237   4.766  15.750  0.00  0.00    +0.000 A 
ATOM     18  C   UNL     1       5.392   6.106  16.093  0.00  0.00    +0.000 A 
ATOM     19  C   UNL     1       4.869   6.574  17.299  0.00  0.00    +0.000 A 
ATOM     20  C   UNL     1       4.194   5.717  18.183  0.00  0.00    +0.000 A 
BRANCH  15  22
ATOM     21  C   UNL     1       4.115   2.933  19.747  0.00  0.00    +0.000 C 
ATOM     22  O   UNL     1       3.364   3.519  18.685  0.00  0.00    +0.000 OA
ENDBRANCH  15  22
BRANCH  17  23
ATOM     23  C   UNL     1       5.771   4.258  14.522  0.00  0.00    +0.000 C 
ATOM     24  N   UNL     1       6.173   3.839  13.516  0.00  0.00    +0.000 NA
ENDBRANCH  17  23
ENDBRANCH  14  20
ENDBRANCH   1  14
TORSDOF 6
ENDMDL
MODEL 9
REMARK VINA RESULT:      -6.9      1.293      1.348
REMARK  Name = 
REMARK  7 active torsions:
REMARK  status: ('A' for Active; 'I' for Inactive)
REMARK    1  A    between atoms: C_1  and  O_2
REMARK    2  A    between atoms: O_2  and  C_3
REMARK    3  A    between atoms: C_5  and  C_6
REMARK    4  A    between atoms: C_10  and  O_11
REMARK    5  A    between atoms: O_11  and  C_12
REMARK    6  A    between atoms: C_12  and  C_13
REMARK    7  A    between atoms: C_13  and  C_15
REMARK                            x       y       z     vdW  Elec       q    Type
REMARK                         _______ _______ _______ _____ _____    ______ ____
ROOT
ATOM      1  C   UNL     1       4.363   4.694  19.355  0.00  0.00    +0.000 C 
ENDROOT
BRANCH   1   2
ATOM      2  C   UNL     1       2.861   4.957  19.467  0.00  0.00    +0.000 C 
ATOM      3  O   UNL     1       2.027   4.069  19.628  0.00  0.00    +0.000 OA
BRANCH   2   4
ATOM      4  C   UNL     1       2.411   6.385  19.377  0.00  0.00    +0.000 A 
ATOM      5  C   UNL     1       2.468   7.042  18.139  0.00  0.00    +0.000 A 
ATOM      6  C   UNL     1       2.021   8.362  18.017  0.00  0.00    +0.000 A 
ATOM      7  C   UNL     1       1.523   9.035  19.130  0.00  0.00    +0.000 A 
ATOM      8  C   UNL     1       1.460   8.385  20.364  0.00  0.00    +0.000 A 
ATOM      9  C   UNL     1       1.916   7.073  20.494  0.00  0.00    +0.000 A 
ATOM     10  O   UNL     1       0.968   8.972  21.502  0.00  0.00    +0.000 OA
ATOM     11  C   UNL     1       0.204  10.142  21.198  0.00  0.00    +0.000 C 
ATOM     12  C   UNL     1       0.927  11.013  20.184  0.00  0.00    +0.000 C 
ATOM     13  O   UNL     1       1.098  10.323  18.939  0.00  0.00    +0.000 OA
ENDBRANCH   2   4
ENDBRANCH   1   2
BRANCH   1  14
ATOM     14  O   UNL     1       5.077   5.671  18.618  0.00  0.00    +0.000 OA
BRANCH  14  20
ATOM     15  C   UNL     1       6.809   5.602  16.804  0.00  0.00    +0.000 A 
ATOM     16  C   UNL     1       7.090   5.134  15.510  0.00  0.00    +0.000 A 
ATOM     17  C   UNL     1       6.138   4.416  14.779  0.00  0.00    +0.000 A 
ATOM     18  C   UNL     1       4.897   4.138  15.345  0.00  0.00    +0.000 A 
ATOM     19  C   UNL     1       4.614   4.582  16.638  0.00  0.00    +0.000 A 
ATOM     20  C   UNL     1       5.555   5.314  17.380  0.00  0.00    +0.000 A 
BRANCH  15  22
ATOM     21  C   UNL     1       7.599   7.712  17.575  0.00  0.00    +0.000 C 
ATOM     22  O   UNL     1       7.743   6.294  17.531  0.00  0.00    +0.000 OA
ENDBRANCH  15  22
BRANCH  17  23
ATOM     23  C   UNL     1       6.451   3.980  13.451  0.00  0.00    +0.000 C 
ATOM     24  N   UNL     1       6.674   3.618  12.370  0.00  0.00    +0.000 NA
ENDBRANCH  17  23
ENDBRANCH  14  20
ENDBRANCH   1  14
TORSDOF 6
ENDMDL
