MODEL 1
REMARK VINA RESULT:      -7.9      0.000      0.000
REMARK  Name = 
REMARK  2 active torsions:
REMARK  status: ('A' for Active; 'I' for Inactive)
REMARK    1  A    between atoms: C_1  and  C_2
REMARK    2  A    between atoms: C_13  and  C_15
REMARK                            x       y       z     vdW  Elec       q    Type
REMARK                         _______ _______ _______ _____ _____    ______ ____
ROOT
ATOM      1  C   UNL     1       7.833   6.712  17.075  0.00  0.00    +0.000 C 
ATOM      2  C   UNL     1       6.506   6.021  17.190  0.00  0.00    +0.000 A 
ATOM      3  C   UNL     1       6.061   5.151  16.186  0.00  0.00    +0.000 A 
ATOM      4  C   UNL     1       4.826   4.510  16.304  0.00  0.00    +0.000 A 
ATOM      5  C   UNL     1       4.030   4.745  17.426  0.00  0.00    +0.000 A 
ATOM      6  C   UNL     1       4.444   5.636  18.415  0.00  0.00    +0.000 A 
ATOM      7  C   UNL     1       5.689   6.257  18.307  0.00  0.00    +0.000 A 
ATOM      8  O   UNL     1       3.683   5.973  19.506  0.00  0.00    +0.000 OA
ATOM      9  C   UNL     1       2.265   5.737  19.358  0.00  0.00    +0.000 C 
ATOM     10  C   UNL     1       1.639   6.739  18.374  0.00  0.00    +0.000 C 
ATOM     11  C   UNL     1       1.811   8.166  18.857  0.00  0.00    +0.000 C 
ATOM     12  N   UNL     1       1.214   8.359  20.175  0.00  0.00    +0.000 N 
ATOM     13  C   UNL     1       0.283   9.351  20.520  0.00  0.00    +0.000 C 
ATOM     14  O   UNL     1      -0.325   9.350  21.592  0.00  0.00    +0.000 OA
ATOM     15  C   UNL     1       1.709   7.436  21.200  0.00  0.00    +0.000 C 
ATOM     16  C   UNL     1       1.620   5.971  20.746  0.00  0.00    +0.000 C 
ATOM     17  C   UNL     1       2.018   4.298  18.897  0.00  0.00    +0.000 C 
ATOM     18  C   UNL     1       2.726   4.071  17.585  0.00  0.00    +0.000 C 
ATOM     19  O   UNL     1       2.270   3.353  16.702  0.00  0.00    +0.000 OA
ENDROOT
BRANCH  13  20
ATOM     20  C   UNL     1      -0.056  10.434  19.548  0.00  0.00    +0.000 A 
ATOM     21  C   UNL     1      -1.065  10.314  18.575  0.00  0.00    +0.000 A 
ATOM     22  C   UNL     1      -1.501  11.409  17.831  0.00  0.00    +0.000 A 
ATOM     23  C   UNL     1      -0.833  12.631  17.913  0.00  0.00    +0.000 A 
ATOM     24  C   UNL     1       0.307  12.721  18.730  0.00  0.00    +0.000 A 
ATOM     25  C   UNL     1       1.291  13.696  18.993  0.00  0.00    +0.000 A 
ATOM     26  N   UNL     1       2.182  13.297  19.904  0.00  0.00    +0.000 NA
ATOM     27  N   UNL     1       1.770  12.053  20.226  0.00  0.00    +0.000 N 
ATOM     28  C   UNL     1       0.661  11.648  19.539  0.00  0.00    +0.000 A 
ATOM     29  H   UNL     1       2.309  11.510  20.893  0.00  0.00    +0.000 HD
ENDBRANCH  13  20
TORSDOF 1
ENDMDL
MODEL 2
REMARK VINA RESULT:      -7.6      4.958      7.313
REMARK  Name = 
REMARK  2 active torsions:
REMARK  status: ('A' for Active; 'I' for Inactive)
REMARK    1  A    between atoms: C_1  and  C_2
REMARK    2  A    between atoms: C_13  and  C_15
REMARK                            x       y       z     vdW  Elec       q    Type
REMARK                         _______ _______ _______ _____ _____    ______ ____
ROOT
ATOM      1  C   UNL     1       3.540  15.437  19.369  0.00  0.00    +0.000 C 
ATOM      2  C   UNL     1       2.863  14.098  19.308  0.00  0.00    +0.000 A 
ATOM      3  C   UNL     1       2.973  13.291  18.167  0.00  0.00    +0.000 A 
ATOM      4  C   UNL     1       2.343  12.046  18.121  0.00  0.00    +0.000 A 
ATOM      5  C   UNL     1       1.596  11.608  19.216  0.00  0.00    +0.000 A 
ATOM      6  C   UNL     1       1.450  12.416  20.342  0.00  0.00    +0.000 A 
ATOM      7  C   UNL     1       2.099  13.649  20.396  0.00  0.00    +0.000 A 
ATOM      8  O   UNL     1       0.672  12.085  21.422  0.00  0.00    +0.000 OA
ATOM      9  C   UNL     1      -0.351  11.098  21.159  0.00  0.00    +0.000 C 
ATOM     10  C   UNL     1      -1.474  11.686  20.291  0.00  0.00    +0.000 C 
ATOM     11  C   UNL     1      -2.145  12.859  20.977  0.00  0.00    +0.000 C 
ATOM     12  N   UNL     1      -2.699  12.474  22.272  0.00  0.00    +0.000 N 
ATOM     13  C   UNL     1      -4.021  12.680  22.697  0.00  0.00    +0.000 C 
ATOM     14  O   UNL     1      -4.480  12.169  23.721  0.00  0.00    +0.000 OA
ATOM     15  C   UNL     1      -1.727  11.867  23.185  0.00  0.00    +0.000 C 
ATOM     16  C   UNL     1      -0.965  10.707  22.526  0.00  0.00    +0.000 C 
ATOM     17  C   UNL     1       0.268   9.869  20.487  0.00  0.00    +0.000 C 
ATOM     18  C   UNL     1       0.931  10.291  19.201  0.00  0.00    +0.000 C 
ATOM     19  O   UNL     1       0.947   9.582  18.201  0.00  0.00    +0.000 OA
ENDROOT
BRANCH  13  20
ATOM     20  C   UNL     1      -4.958  13.499  21.868  0.00  0.00    +0.000 A 
ATOM     21  C   UNL     1      -4.911  14.903  21.806  0.00  0.00    +0.000 A 
ATOM     22  C   UNL     1      -5.649  15.622  20.867  0.00  0.00    +0.000 A 
ATOM     23  C   UNL     1      -6.588  14.976  20.061  0.00  0.00    +0.000 A 
ATOM     24  C   UNL     1      -6.797  13.598  20.244  0.00  0.00    +0.000 A 
ATOM     25  C   UNL     1      -7.691  12.634  19.737  0.00  0.00    +0.000 A 
ATOM     26  N   UNL     1      -7.456  11.410  20.217  0.00  0.00    +0.000 NA
ATOM     27  N   UNL     1      -6.404  11.591  21.043  0.00  0.00    +0.000 N 
ATOM     28  C   UNL     1      -5.979  12.887  21.114  0.00  0.00    +0.000 A 
ATOM     29  H   UNL     1      -6.043  10.799  21.566  0.00  0.00    +0.000 HD
ENDBRANCH  13  20
TORSDOF 1
ENDMDL
MODEL 3
REMARK VINA RESULT:      -7.6      1.498      1.971
REMARK  Name = 
REMARK  2 active torsions:
REMARK  status: ('A' for Active; 'I' for Inactive)
REMARK    1  A    between atoms: C_1  and  C_2
REMARK    2  A    between atoms: C_13  and  C_15
REMARK                            x       y       z     vdW  Elec       q    Type
REMARK                         _______ _______ _______ _____ _____    ______ ____
ROOT
ATOM      1  C   UNL     1       8.180   5.819  18.710  0.00  0.00    +0.000 C 
ATOM      2  C   UNL     1       6.793   5.353  18.374  0.00  0.00    +0.000 A 
ATOM      3  C   UNL     1       6.516   4.766  17.132  0.00  0.00    +0.000 A 
ATOM      4  C   UNL     1       5.223   4.333  16.829  0.00  0.00    +0.000 A 
ATOM      5  C   UNL     1       4.203   4.492  17.769  0.00  0.00    +0.000 A 
ATOM      6  C   UNL     1       4.458   5.105  18.994  0.00  0.00    +0.000 A 
ATOM      7  C   UNL     1       5.755   5.516  19.304  0.00  0.00    +0.000 A 
ATOM      8  O   UNL     1       3.493   5.363  19.934  0.00  0.00    +0.000 OA
ATOM      9  C   UNL     1       2.140   5.401  19.425  0.00  0.00    +0.000 C 
ATOM     10  C   UNL     1       1.908   6.655  18.568  0.00  0.00    +0.000 C 
ATOM     11  C   UNL     1       2.123   7.921  19.374  0.00  0.00    +0.000 C 
ATOM     12  N   UNL     1       1.240   7.971  20.536  0.00  0.00    +0.000 N 
ATOM     13  C   UNL     1       0.377   9.026  20.870  0.00  0.00    +0.000 C 
ATOM     14  O   UNL     1      -0.478   8.933  21.753  0.00  0.00    +0.000 OA
ATOM     15  C   UNL     1       1.345   6.807  21.420  0.00  0.00    +0.000 C 
ATOM     16  C   UNL     1       1.197   5.485  20.651  0.00  0.00    +0.000 C 
ATOM     17  C   UNL     1       1.847   4.132  18.620  0.00  0.00    +0.000 C 
ATOM     18  C   UNL     1       2.831   4.031  17.482  0.00  0.00    +0.000 C 
ATOM     19  O   UNL     1       2.531   3.572  16.386  0.00  0.00    +0.000 OA
ENDROOT
BRANCH  13  20
ATOM     20  C   UNL     1       0.428  10.309  20.106  0.00  0.00    +0.000 A 
ATOM     21  C   UNL     1       1.442  11.270  20.274  0.00  0.00    +0.000 A 
ATOM     22  C   UNL     1       1.582  12.349  19.402  0.00  0.00    +0.000 A 
ATOM     23  C   UNL     1       0.617  12.600  18.426  0.00  0.00    +0.000 A 
ATOM     24  C   UNL     1      -0.513  11.766  18.367  0.00  0.00    +0.000 A 
ATOM     25  C   UNL     1      -1.719  11.744  17.638  0.00  0.00    +0.000 A 
ATOM     26  N   UNL     1      -2.482  10.689  17.934  0.00  0.00    +0.000 NA
ATOM     27  N   UNL     1      -1.762  10.030  18.866  0.00  0.00    +0.000 N 
ATOM     28  C   UNL     1      -0.580  10.640  19.179  0.00  0.00    +0.000 A 
ATOM     29  H   UNL     1      -2.146   9.188  19.284  0.00  0.00    +0.000 HD
ENDBRANCH  13  20
TORSDOF 1
ENDMDL
MODEL 4
REMARK VINA RESULT:      -7.5      2.221      7.651
REMARK  Name = 
REMARK  2 active torsions:
REMARK  status: ('A' for Active; 'I' for Inactive)
REMARK    1  A    between atoms: C_1  and  C_2
REMARK    2  A    between atoms: C_13  and  C_15
REMARK                            x       y       z     vdW  Elec       q    Type
REMARK                         _______ _______ _______ _____ _____    ______ ____
ROOT
ATOM      1  C   UNL     1      -2.806  10.944  16.280  0.00  0.00    +0.000 C 
ATOM      2  C   UNL     1      -1.907  11.090  17.474  0.00  0.00    +0.000 A 
ATOM      3  C   UNL     1      -1.423  12.348  17.857  0.00  0.00    +0.000 A 
ATOM      4  C   UNL     1      -0.589  12.474  18.970  0.00  0.00    +0.000 A 
ATOM      5  C   UNL     1      -0.234  11.338  19.699  0.00  0.00    +0.000 A 
ATOM      6  C   UNL     1      -0.680  10.077  19.308  0.00  0.00    +0.000 A 
ATOM      7  C   UNL     1      -1.531   9.956  18.210  0.00  0.00    +0.000 A 
ATOM      8  O   UNL     1      -0.311   8.911  19.930  0.00  0.00    +0.000 OA
ATOM      9  C   UNL     1       0.909   8.989  20.702  0.00  0.00    +0.000 C 
ATOM     10  C   UNL     1       2.135   9.109  19.783  0.00  0.00    +0.000 C 
ATOM     11  C   UNL     1       2.258   7.908  18.866  0.00  0.00    +0.000 C 
ATOM     12  N   UNL     1       2.354   6.664  19.626  0.00  0.00    +0.000 N 
ATOM     13  C   UNL     1       3.354   5.690  19.487  0.00  0.00    +0.000 C 
ATOM     14  O   UNL     1       3.489   4.756  20.280  0.00  0.00    +0.000 OA
ATOM     15  C   UNL     1       1.251   6.449  20.566  0.00  0.00    +0.000 C 
ATOM     16  C   UNL     1       1.034   7.660  21.486  0.00  0.00    +0.000 C 
ATOM     17  C   UNL     1       0.839  10.171  21.672  0.00  0.00    +0.000 C 
ATOM     18  C   UNL     1       0.634  11.443  20.888  0.00  0.00    +0.000 C 
ATOM     19  O   UNL     1       1.131  12.513  21.221  0.00  0.00    +0.000 OA
ENDROOT
BRANCH  13  20
ATOM     20  C   UNL     1       4.351   5.789  18.378  0.00  0.00    +0.000 A 
ATOM     21  C   UNL     1       3.997   6.029  17.038  0.00  0.00    +0.000 A 
ATOM     22  C   UNL     1       4.953   6.329  16.068  0.00  0.00    +0.000 A 
ATOM     23  C   UNL     1       6.313   6.240  16.365  0.00  0.00    +0.000 A 
ATOM     24  C   UNL     1       6.695   5.807  17.647  0.00  0.00    +0.000 A 
ATOM     25  C   UNL     1       7.909   5.486  18.287  0.00  0.00    +0.000 A 
ATOM     26  N   UNL     1       7.741   5.141  19.567  0.00  0.00    +0.000 NA
ATOM     27  N   UNL     1       6.407   5.235  19.747  0.00  0.00    +0.000 N 
ATOM     28  C   UNL     1       5.727   5.611  18.624  0.00  0.00    +0.000 A 
ATOM     29  H   UNL     1       6.012   4.990  20.650  0.00  0.00    +0.000 HD
ENDBRANCH  13  20
TORSDOF 1
ENDMDL
MODEL 5
REMARK VINA RESULT:      -7.3      3.891      9.512
REMARK  Name = 
REMARK  2 active torsions:
REMARK  status: ('A' for Active; 'I' for Inactive)
REMARK    1  A    between atoms: C_1  and  C_2
REMARK    2  A    between atoms: C_13  and  C_15
REMARK                            x       y       z     vdW  Elec       q    Type
REMARK                         _______ _______ _______ _____ _____    ______ ____
ROOT
ATOM      1  C   UNL     1      -7.638  11.699  19.833  0.00  0.00    +0.000 C 
ATOM      2  C   UNL     1      -6.496  12.610  20.182  0.00  0.00    +0.000 A 
ATOM      3  C   UNL     1      -6.405  13.892  19.621  0.00  0.00    +0.000 A 
ATOM      4  C   UNL     1      -5.342  14.733  19.954  0.00  0.00    +0.000 A 
ATOM      5  C   UNL     1      -4.363  14.291  20.845  0.00  0.00    +0.000 A 
ATOM      6  C   UNL     1      -4.422  13.006  21.382  0.00  0.00    +0.000 A 
ATOM      7  C   UNL     1      -5.498  12.175  21.067  0.00  0.00    +0.000 A 
ATOM      8  O   UNL     1      -3.459  12.477  22.203  0.00  0.00    +0.000 OA
ATOM      9  C   UNL     1      -2.165  13.116  22.118  0.00  0.00    +0.000 C 
ATOM     10  C   UNL     1      -1.476  12.790  20.783  0.00  0.00    +0.000 C 
ATOM     11  C   UNL     1      -1.253  11.299  20.627  0.00  0.00    +0.000 C 
ATOM     12  N   UNL     1      -0.448  10.762  21.721  0.00  0.00    +0.000 N 
ATOM     13  C   UNL     1       0.722   9.999  21.584  0.00  0.00    +0.000 C 
ATOM     14  O   UNL     1       1.460   9.734  22.536  0.00  0.00    +0.000 OA
ATOM     15  C   UNL     1      -0.987  11.037  23.055  0.00  0.00    +0.000 C 
ATOM     16  C   UNL     1      -1.294  12.529  23.256  0.00  0.00    +0.000 C 
ATOM     17  C   UNL     1      -2.316  14.630  22.295  0.00  0.00    +0.000 C 
ATOM     18  C   UNL     1      -3.235  15.163  21.225  0.00  0.00    +0.000 C 
ATOM     19  O   UNL     1      -3.082  16.265  20.711  0.00  0.00    +0.000 OA
ENDROOT
BRANCH  13  20
ATOM     20  C   UNL     1       1.155   9.521  20.235  0.00  0.00    +0.000 A 
ATOM     21  C   UNL     1       1.054  10.302  19.069  0.00  0.00    +0.000 A 
ATOM     22  C   UNL     1       1.658   9.916  17.873  0.00  0.00    +0.000 A 
ATOM     23  C   UNL     1       2.247   8.657  17.753  0.00  0.00    +0.000 A 
ATOM     24  C   UNL     1       2.184   7.777  18.848  0.00  0.00    +0.000 A 
ATOM     25  C   UNL     1       2.539   6.435  19.090  0.00  0.00    +0.000 A 
ATOM     26  N   UNL     1       2.296   6.056  20.348  0.00  0.00    +0.000 NA
ATOM     27  N   UNL     1       1.776   7.163  20.916  0.00  0.00    +0.000 N 
ATOM     28  C   UNL     1       1.667   8.221  20.059  0.00  0.00    +0.000 A 
ATOM     29  H   UNL     1       1.474   7.127  21.885  0.00  0.00    +0.000 HD
ENDBRANCH  13  20
TORSDOF 1
ENDMDL
MODEL 6
REMARK VINA RESULT:      -7.3      4.621      8.525
REMARK  Name = 
REMARK  2 active torsions:
REMARK  status: ('A' for Active; 'I' for Inactive)
REMARK    1  A    between atoms: C_1  and  C_2
REMARK    2  A    between atoms: C_13  and  C_15
REMARK                            x       y       z     vdW  Elec       q    Type
REMARK                         _______ _______ _______ _____ _____    ______ ____
ROOT
ATOM      1  C   UNL     1       7.072  14.463  17.506  0.00  0.00    +0.000 C 
ATOM      2  C   UNL     1       5.996  15.242  18.206  0.00  0.00    +0.000 A 
ATOM      3  C   UNL     1       6.321  16.202  19.174  0.00  0.00    +0.000 A 
ATOM      4  C   UNL     1       5.314  16.924  19.817  0.00  0.00    +0.000 A 
ATOM      5  C   UNL     1       3.977  16.681  19.497  0.00  0.00    +0.000 A 
ATOM      6  C   UNL     1       3.638  15.704  18.562  0.00  0.00    +0.000 A 
ATOM      7  C   UNL     1       4.647  15.001  17.903  0.00  0.00    +0.000 A 
ATOM      8  O   UNL     1       2.348  15.359  18.253  0.00  0.00    +0.000 OA
ATOM      9  C   UNL     1       1.365  15.707  19.254  0.00  0.00    +0.000 C 
ATOM     10  C   UNL     1       1.506  14.816  20.498  0.00  0.00    +0.000 C 
ATOM     11  C   UNL     1       1.301  13.354  20.155  0.00  0.00    +0.000 C 
ATOM     12  N   UNL     1      -0.010  13.125  19.553  0.00  0.00    +0.000 N 
ATOM     13  C   UNL     1      -0.961  12.186  19.983  0.00  0.00    +0.000 C 
ATOM     14  O   UNL     1      -2.118  12.167  19.557  0.00  0.00    +0.000 OA
ATOM     15  C   UNL     1      -0.279  13.945  18.369  0.00  0.00    +0.000 C 
ATOM     16  C   UNL     1      -0.028  15.438  18.634  0.00  0.00    +0.000 C 
ATOM     17  C   UNL     1       1.500  17.186  19.628  0.00  0.00    +0.000 C 
ATOM     18  C   UNL     1       2.892  17.438  20.150  0.00  0.00    +0.000 C 
ATOM     19  O   UNL     1       3.127  18.241  21.047  0.00  0.00    +0.000 OA
ENDROOT
BRANCH  13  20
ATOM     20  C   UNL     1      -0.610  11.191  21.041  0.00  0.00    +0.000 A 
ATOM     21  C   UNL     1      -1.009  11.317  22.384  0.00  0.00    +0.000 A 
ATOM     22  C   UNL     1      -0.852  10.275  23.297  0.00  0.00    +0.000 A 
ATOM     23  C   UNL     1      -0.142   9.127  22.945  0.00  0.00    +0.000 A 
ATOM     24  C   UNL     1       0.441   9.062  21.667  0.00  0.00    +0.000 A 
ATOM     25  C   UNL     1       1.295   8.170  20.988  0.00  0.00    +0.000 A 
ATOM     26  N   UNL     1       1.547   8.552  19.734  0.00  0.00    +0.000 NA
ATOM     27  N   UNL     1       0.853   9.703  19.608  0.00  0.00    +0.000 N 
ATOM     28  C   UNL     1       0.186  10.067  20.742  0.00  0.00    +0.000 A 
ATOM     29  H   UNL     1       0.904  10.219  18.735  0.00  0.00    +0.000 HD
ENDBRANCH  13  20
TORSDOF 1
ENDMDL
MODEL 7
REMARK VINA RESULT:      -7.3      2.305      4.049
REMARK  Name = 
REMARK  2 active torsions:
REMARK  status: ('A' for Active; 'I' for Inactive)
REMARK    1  A    between atoms: C_1  and  C_2
REMARK    2  A    between atoms: C_13  and  C_15
REMARK                            x       y       z     vdW  Elec       q    Type
REMARK                         _______ _______ _______ _____ _____    ______ ____
ROOT
ATOM      1  C   UNL     1       0.706   1.401  18.557  0.00  0.00    +0.000 C 
ATOM      2  C   UNL     1       1.847   2.366  18.706  0.00  0.00    +0.000 A 
ATOM      3  C   UNL     1       2.999   2.009  19.421  0.00  0.00    +0.000 A 
ATOM      4  C   UNL     1       4.056   2.912  19.552  0.00  0.00    +0.000 A 
ATOM      5  C   UNL     1       3.960   4.178  18.972  0.00  0.00    +0.000 A 
ATOM      6  C   UNL     1       2.806   4.558  18.288  0.00  0.00    +0.000 A 
ATOM      7  C   UNL     1       1.761   3.646  18.138  0.00  0.00    +0.000 A 
ATOM      8  O   UNL     1       2.611   5.808  17.757  0.00  0.00    +0.000 OA
ATOM      9  C   UNL     1       3.434   6.850  18.329  0.00  0.00    +0.000 C 
ATOM     10  C   UNL     1       2.988   7.181  19.762  0.00  0.00    +0.000 C 
ATOM     11  C   UNL     1       1.554   7.670  19.794  0.00  0.00    +0.000 C 
ATOM     12  N   UNL     1       1.375   8.853  18.956  0.00  0.00    +0.000 N 
ATOM     13  C   UNL     1       0.810  10.072  19.362  0.00  0.00    +0.000 C 
ATOM     14  O   UNL     1       0.856  11.091  18.669  0.00  0.00    +0.000 OA
ATOM     15  C   UNL     1       1.797   8.673  17.564  0.00  0.00    +0.000 C 
ATOM     16  C   UNL     1       3.226   8.117  17.464  0.00  0.00    +0.000 C 
ATOM     17  C   UNL     1       4.906   6.428  18.302  0.00  0.00    +0.000 C 
ATOM     18  C   UNL     1       5.067   5.147  19.081  0.00  0.00    +0.000 C 
ATOM     19  O   UNL     1       6.064   4.901  19.751  0.00  0.00    +0.000 OA
ENDROOT
BRANCH  13  20
ATOM     20  C   UNL     1       0.171  10.193  20.707  0.00  0.00    +0.000 A 
ATOM     21  C   UNL     1       0.460   9.333  21.782  0.00  0.00    +0.000 A 
ATOM     22  C   UNL     1       0.015   9.599  23.076  0.00  0.00    +0.000 A 
ATOM     23  C   UNL     1      -0.874  10.647  23.316  0.00  0.00    +0.000 A 
ATOM     24  C   UNL     1      -1.337  11.400  22.223  0.00  0.00    +0.000 A 
ATOM     25  C   UNL     1      -2.285  12.425  22.029  0.00  0.00    +0.000 A 
ATOM     26  N   UNL     1      -2.338  12.844  20.762  0.00  0.00    +0.000 NA
ATOM     27  N   UNL     1      -1.420  12.078  20.136  0.00  0.00    +0.000 N 
ATOM     28  C   UNL     1      -0.802  11.181  20.960  0.00  0.00    +0.000 A 
ATOM     29  H   UNL     1      -1.286  12.184  19.136  0.00  0.00    +0.000 HD
ENDBRANCH  13  20
TORSDOF 1
ENDMDL
MODEL 8
REMARK VINA RESULT:      -7.2      4.998      7.314
REMARK  Name = 
REMARK  2 active torsions:
REMARK  status: ('A' for Active; 'I' for Inactive)
REMARK    1  A    between atoms: C_1  and  C_2
REMARK    2  A    between atoms: C_13  and  C_15
REMARK                            x       y       z     vdW  Elec       q    Type
REMARK                         _______ _______ _______ _____ _____    ______ ____
ROOT
ATOM      1  C   UNL     1       3.494  15.486  19.381  0.00  0.00    +0.000 C 
ATOM      2  C   UNL     1       2.807  14.155  19.280  0.00  0.00    +0.000 A 
ATOM      3  C   UNL     1       2.807  13.438  18.075  0.00  0.00    +0.000 A 
ATOM      4  C   UNL     1       2.169  12.199  17.992  0.00  0.00    +0.000 A 
ATOM      5  C   UNL     1       1.522  11.678  19.114  0.00  0.00    +0.000 A 
ATOM      6  C   UNL     1       1.484  12.396  20.308  0.00  0.00    +0.000 A 
ATOM      7  C   UNL     1       2.143  13.623  20.396  0.00  0.00    +0.000 A 
ATOM      8  O   UNL     1       0.806  11.982  21.425  0.00  0.00    +0.000 OA
ATOM      9  C   UNL     1      -0.242  11.017  21.182  0.00  0.00    +0.000 C 
ATOM     10  C   UNL     1      -1.437  11.669  20.467  0.00  0.00    +0.000 C 
ATOM     11  C   UNL     1      -2.035  12.785  21.300  0.00  0.00    +0.000 C 
ATOM     12  N   UNL     1      -2.471  12.301  22.607  0.00  0.00    +0.000 N 
ATOM     13  C   UNL     1      -3.748  12.472  23.165  0.00  0.00    +0.000 C 
ATOM     14  O   UNL     1      -4.114  11.883  24.184  0.00  0.00    +0.000 OA
ATOM     15  C   UNL     1      -1.423  11.627  23.378  0.00  0.00    +0.000 C 
ATOM     16  C   UNL     1      -0.732  10.521  22.565  0.00  0.00    +0.000 C 
ATOM     17  C   UNL     1       0.306   9.844  20.364  0.00  0.00    +0.000 C 
ATOM     18  C   UNL     1       0.851  10.364  19.058  0.00  0.00    +0.000 C 
ATOM     19  O   UNL     1       0.772   9.734  18.010  0.00  0.00    +0.000 OA
ENDROOT
BRANCH  13  20
ATOM     20  C   UNL     1      -4.751  13.350  22.490  0.00  0.00    +0.000 A 
ATOM     21  C   UNL     1      -5.280  13.083  21.214  0.00  0.00    +0.000 A 
ATOM     22  C   UNL     1      -6.364  13.796  20.704  0.00  0.00    +0.000 A 
ATOM     23  C   UNL     1      -6.858  14.911  21.381  0.00  0.00    +0.000 A 
ATOM     24  C   UNL     1      -6.216  15.320  22.563  0.00  0.00    +0.000 A 
ATOM     25  C   UNL     1      -6.324  16.410  23.449  0.00  0.00    +0.000 A 
ATOM     26  N   UNL     1      -5.477  16.324  24.478  0.00  0.00    +0.000 NA
ATOM     27  N   UNL     1      -4.815  15.171  24.248  0.00  0.00    +0.000 N 
ATOM     28  C   UNL     1      -5.203  14.536  23.103  0.00  0.00    +0.000 A 
ATOM     29  H   UNL     1      -4.079  14.887  24.886  0.00  0.00    +0.000 HD
ENDBRANCH  13  20
TORSDOF 1
ENDMDL
MODEL 9
REMARK VINA RESULT:      -7.1      1.543      1.713
REMARK  Name = 
REMARK  2 active torsions:
REMARK  status: ('A' for Active; 'I' for Inactive)
REMARK    1  A    between atoms: C_1  and  C_2
REMARK    2  A    between atoms: C_13  and  C_15
REMARK                            x       y       z     vdW  Elec       q    Type
REMARK                         _______ _______ _______ _____ _____    ______ ____
ROOT
ATOM      1  C   UNL     1       8.245   5.279  18.434  0.00  0.00    +0.000 C 
ATOM      2  C   UNL     1       6.851   4.851  18.079  0.00  0.00    +0.000 A 
ATOM      3  C   UNL     1       6.551   4.381  16.794  0.00  0.00    +0.000 A 
ATOM      4  C   UNL     1       5.252   3.981  16.474  0.00  0.00    +0.000 A 
ATOM      5  C   UNL     1       4.247   4.058  17.440  0.00  0.00    +0.000 A 
ATOM      6  C   UNL     1       4.525   4.556  18.712  0.00  0.00    +0.000 A 
ATOM      7  C   UNL     1       5.828   4.932  19.037  0.00  0.00    +0.000 A 
ATOM      8  O   UNL     1       3.575   4.730  19.687  0.00  0.00    +0.000 OA
ATOM      9  C   UNL     1       2.215   4.819  19.206  0.00  0.00    +0.000 C 
ATOM     10  C   UNL     1       1.976   6.148  18.471  0.00  0.00    +0.000 C 
ATOM     11  C   UNL     1       2.210   7.334  19.385  0.00  0.00    +0.000 C 
ATOM     12  N   UNL     1       1.345   7.281  20.561  0.00  0.00    +0.000 N 
ATOM     13  C   UNL     1       0.494   8.304  21.003  0.00  0.00    +0.000 C 
ATOM     14  O   UNL     1      -0.348   8.135  21.888  0.00  0.00    +0.000 OA
ATOM     15  C   UNL     1       1.458   6.041  21.333  0.00  0.00    +0.000 C 
ATOM     16  C   UNL     1       1.293   4.795  20.450  0.00  0.00    +0.000 C 
ATOM     17  C   UNL     1       1.903   3.630  18.293  0.00  0.00    +0.000 C 
ATOM     18  C   UNL     1       2.869   3.630  17.135  0.00  0.00    +0.000 C 
ATOM     19  O   UNL     1       2.548   3.274  16.007  0.00  0.00    +0.000 OA
ENDROOT
BRANCH  13  20
ATOM     20  C   UNL     1       0.539   9.652  20.358  0.00  0.00    +0.000 A 
ATOM     21  C   UNL     1       0.972   9.863  19.036  0.00  0.00    +0.000 A 
ATOM     22  C   UNL     1       0.802  11.089  18.395  0.00  0.00    +0.000 A 
ATOM     23  C   UNL     1       0.342  12.199  19.103  0.00  0.00    +0.000 A 
ATOM     24  C   UNL     1       0.091  12.063  20.480  0.00  0.00    +0.000 A 
ATOM     25  C   UNL     1      -0.261  12.928  21.535  0.00  0.00    +0.000 A 
ATOM     26  N   UNL     1      -0.417  12.287  22.697  0.00  0.00    +0.000 NA
ATOM     27  N   UNL     1      -0.158  11.000  22.385  0.00  0.00    +0.000 N 
ATOM     28  C   UNL     1       0.171  10.809  21.073  0.00  0.00    +0.000 A 
ATOM     29  H   UNL     1      -0.181  10.298  23.118  0.00  0.00    +0.000 HD
ENDBRANCH  13  20
TORSDOF 1
ENDMDL
