MODEL 1
REMARK VINA RESULT:      -8.7      0.000      0.000
REMARK  Name = 
REMARK  5 active torsions:
REMARK  status: ('A' for Active; 'I' for Inactive)
REMARK    1  A    between atoms: C_5  and  N_6
REMARK    2  A    between atoms: N_6  and  C_7
REMARK    3  A    between atoms: C_7  and  C_8
REMARK    4  A    between atoms: C_8  and  C_9
REMARK    5  A    between atoms: N_17  and  C_18
REMARK                            x       y       z     vdW  Elec       q    Type
REMARK                         _______ _______ _______ _____ _____    ______ ____
ROOT
ATOM      1  O   UNL     1       5.544   3.888  19.794  0.00  0.00    +0.000 OA
ATOM      2  C   UNL     1       5.339   4.836  19.033  0.00  0.00    +0.000 A 
ATOM      3  C   UNL     1       6.460   5.753  18.634  0.00  0.00    +0.000 A 
ATOM      4 BR   UNL     1       8.092   5.490  19.532  0.00  0.00    +0.000 Br
ATOM      5  C   UNL     1       6.275   6.730  17.728  0.00  0.00    +0.000 A 
ATOM      6  C   UNL     1       4.882   6.828  17.213  0.00  0.00    +0.000 A 
ATOM      7  N   UNL     1       3.873   6.093  17.533  0.00  0.00    +0.000 NA
ATOM      8  N   UNL     1       4.102   5.105  18.451  0.00  0.00    +0.000 N 
ENDROOT
BRANCH   8   9
ATOM      9  C   UNL     1       2.950   4.331  18.765  0.00  0.00    +0.000 A 
ATOM     10  C   UNL     1       2.741   3.069  18.176  0.00  0.00    +0.000 A 
ATOM     11 CL   UNL     1       3.898   2.331  17.115  0.00  0.00    +0.000 Cl
ATOM     12  C   UNL     1       1.622   2.298  18.517  0.00  0.00    +0.000 A 
ATOM     13  C   UNL     1       0.700   2.768  19.449  0.00  0.00    +0.000 A 
ATOM     14  C   UNL     1       0.890   4.014  20.040  0.00  0.00    +0.000 A 
ATOM     15  C   UNL     1       2.003   4.794  19.700  0.00  0.00    +0.000 A 
ATOM     16 CL   UNL     1       2.089   6.374  20.411  0.00  0.00    +0.000 Cl
ENDBRANCH   8   9
BRANCH   5  17
ATOM     17  N   UNL     1       7.172   7.645  17.202  0.00  0.00    +0.000 N 
ATOM     18  H   UNL     1       7.056   7.872  16.218  0.00  0.00    +0.000 HD
BRANCH  17  19
ATOM     19  C   UNL     1       8.235   8.325  17.928  0.00  0.00    +0.000 C 
BRANCH  19  20
ATOM     20  C   UNL     1       8.083   9.846  17.808  0.00  0.00    +0.000 C 
BRANCH  20  21
ATOM     21  C   UNL     1       9.209  10.576  18.500  0.00  0.00    +0.000 A 
ATOM     22  C   UNL     1       9.247  10.645  19.899  0.00  0.00    +0.000 A 
ATOM     23  C   UNL     1      10.262  11.350  20.542  0.00  0.00    +0.000 A 
ATOM     24  C   UNL     1      11.245  11.998  19.795  0.00  0.00    +0.000 A 
ATOM     25  C   UNL     1      11.214  11.936  18.402  0.00  0.00    +0.000 A 
ATOM     26  C   UNL     1      10.199  11.228  17.760  0.00  0.00    +0.000 A 
ENDBRANCH  20  21
ENDBRANCH  19  20
ENDBRANCH  17  19
ENDBRANCH   5  17
TORSDOF 5
ENDMDL
MODEL 2
REMARK VINA RESULT:      -8.7      0.075      1.837
REMARK  Name = 
REMARK  5 active torsions:
REMARK  status: ('A' for Active; 'I' for Inactive)
REMARK    1  A    between atoms: C_5  and  N_6
REMARK    2  A    between atoms: N_6  and  C_7
REMARK    3  A    between atoms: C_7  and  C_8
REMARK    4  A    between atoms: C_8  and  C_9
REMARK    5  A    between atoms: N_17  and  C_18
REMARK                            x       y       z     vdW  Elec       q    Type
REMARK                         _______ _______ _______ _____ _____    ______ ____
ROOT
ATOM      1  O   UNL     1       5.562   3.912  19.803  0.00  0.00    +0.000 OA
ATOM      2  C   UNL     1       5.323   4.856  19.047  0.00  0.00    +0.000 A 
ATOM      3  C   UNL     1       6.419   5.790  18.619  0.00  0.00    +0.000 A 
ATOM      4 BR   UNL     1       8.078   5.553  19.475  0.00  0.00    +0.000 Br
ATOM      5  C   UNL     1       6.195   6.763  17.718  0.00  0.00    +0.000 A 
ATOM      6  C   UNL     1       4.789   6.839  17.239  0.00  0.00    +0.000 A 
ATOM      7  N   UNL     1       3.799   6.089  17.585  0.00  0.00    +0.000 NA
ATOM      8  N   UNL     1       4.067   5.106  18.498  0.00  0.00    +0.000 N 
ENDROOT
BRANCH   8   9
ATOM      9  C   UNL     1       2.935   4.314  18.841  0.00  0.00    +0.000 A 
ATOM     10  C   UNL     1       1.989   4.770  19.779  0.00  0.00    +0.000 A 
ATOM     11 CL   UNL     1       2.077   6.343  20.505  0.00  0.00    +0.000 Cl
ATOM     12  C   UNL     1       0.859   4.000  20.085  0.00  0.00    +0.000 A 
ATOM     13  C   UNL     1       0.653   2.773  19.461  0.00  0.00    +0.000 A 
ATOM     14  C   UNL     1       1.580   2.306  18.532  0.00  0.00    +0.000 A 
ATOM     15  C   UNL     1       2.715   3.066  18.225  0.00  0.00    +0.000 A 
ATOM     16 CL   UNL     1       3.859   2.347  17.138  0.00  0.00    +0.000 Cl
ENDBRANCH   8   9
BRANCH   5  17
ATOM     17  N   UNL     1       7.064   7.692  17.168  0.00  0.00    +0.000 N 
ATOM     18  H   UNL     1       6.884   7.960  16.204  0.00  0.00    +0.000 HD
BRANCH  17  19
ATOM     19  C   UNL     1       8.183   8.333  17.846  0.00  0.00    +0.000 C 
BRANCH  19  20
ATOM     20  C   UNL     1       8.032   9.858  17.809  0.00  0.00    +0.000 C 
BRANCH  20  21
ATOM     21  C   UNL     1       9.184  10.549  18.500  0.00  0.00    +0.000 A 
ATOM     22  C   UNL     1       9.217  10.633  19.898  0.00  0.00    +0.000 A 
ATOM     23  C   UNL     1      10.258  11.303  20.538  0.00  0.00    +0.000 A 
ATOM     24  C   UNL     1      11.270  11.900  19.789  0.00  0.00    +0.000 A 
ATOM     25  C   UNL     1      11.244  11.823  18.397  0.00  0.00    +0.000 A 
ATOM     26  C   UNL     1      10.204  11.150  17.757  0.00  0.00    +0.000 A 
ENDBRANCH  20  21
ENDBRANCH  19  20
ENDBRANCH  17  19
ENDBRANCH   5  17
TORSDOF 5
ENDMDL
MODEL 3
REMARK VINA RESULT:      -8.7      0.504      1.093
REMARK  Name = 
REMARK  5 active torsions:
REMARK  status: ('A' for Active; 'I' for Inactive)
REMARK    1  A    between atoms: C_5  and  N_6
REMARK    2  A    between atoms: N_6  and  C_7
REMARK    3  A    between atoms: C_7  and  C_8
REMARK    4  A    between atoms: C_8  and  C_9
REMARK    5  A    between atoms: N_17  and  C_18
REMARK                            x       y       z     vdW  Elec       q    Type
REMARK                         _______ _______ _______ _____ _____    ______ ____
ROOT
ATOM      1  O   UNL     1       5.531   3.896  19.752  0.00  0.00    +0.000 OA
ATOM      2  C   UNL     1       5.316   4.840  18.988  0.00  0.00    +0.000 A 
ATOM      3  C   UNL     1       6.438   5.736  18.545  0.00  0.00    +0.000 A 
ATOM      4 BR   UNL     1       8.093   5.457  19.395  0.00  0.00    +0.000 Br
ATOM      5  C   UNL     1       6.239   6.707  17.636  0.00  0.00    +0.000 A 
ATOM      6  C   UNL     1       4.832   6.821  17.163  0.00  0.00    +0.000 A 
ATOM      7  N   UNL     1       3.823   6.104  17.522  0.00  0.00    +0.000 NA
ATOM      8  N   UNL     1       4.066   5.122  18.442  0.00  0.00    +0.000 N 
ENDROOT
BRANCH   8   9
ATOM      9  C   UNL     1       2.912   4.368  18.799  0.00  0.00    +0.000 A 
ATOM     10  C   UNL     1       2.679   3.094  18.248  0.00  0.00    +0.000 A 
ATOM     11 CL   UNL     1       3.806   2.317  17.183  0.00  0.00    +0.000 Cl
ATOM     12  C   UNL     1       1.559   2.344  18.631  0.00  0.00    +0.000 A 
ATOM     13  C   UNL     1       0.662   2.847  19.569  0.00  0.00    +0.000 A 
ATOM     14  C   UNL     1       0.877   4.107  20.124  0.00  0.00    +0.000 A 
ATOM     15  C   UNL     1       1.990   4.866  19.741  0.00  0.00    +0.000 A 
ATOM     16 CL   UNL     1       2.107   6.462  20.409  0.00  0.00    +0.000 Cl
ENDBRANCH   8   9
BRANCH   5  17
ATOM     17  N   UNL     1       7.132   7.604  17.073  0.00  0.00    +0.000 N 
ATOM     18  H   UNL     1       7.567   7.316  16.200  0.00  0.00    +0.000 HD
BRANCH  17  19
ATOM     19  C   UNL     1       7.481   8.917  17.597  0.00  0.00    +0.000 C 
BRANCH  19  20
ATOM     20  C   UNL     1       8.715   8.826  18.501  0.00  0.00    +0.000 C 
BRANCH  20  21
ATOM     21  C   UNL     1       9.210  10.193  18.908  0.00  0.00    +0.000 A 
ATOM     22  C   UNL     1       9.673  11.091  17.937  0.00  0.00    +0.000 A 
ATOM     23  C   UNL     1      10.168  12.339  18.310  0.00  0.00    +0.000 A 
ATOM     24  C   UNL     1      10.210  12.700  19.656  0.00  0.00    +0.000 A 
ATOM     25  C   UNL     1       9.754  11.812  20.630  0.00  0.00    +0.000 A 
ATOM     26  C   UNL     1       9.256  10.564  20.254  0.00  0.00    +0.000 A 
ENDBRANCH  20  21
ENDBRANCH  19  20
ENDBRANCH  17  19
ENDBRANCH   5  17
TORSDOF 5
ENDMDL
MODEL 4
REMARK VINA RESULT:      -8.7      0.633      2.135
REMARK  Name = 
REMARK  5 active torsions:
REMARK  status: ('A' for Active; 'I' for Inactive)
REMARK    1  A    between atoms: C_5  and  N_6
REMARK    2  A    between atoms: N_6  and  C_7
REMARK    3  A    between atoms: C_7  and  C_8
REMARK    4  A    between atoms: C_8  and  C_9
REMARK    5  A    between atoms: N_17  and  C_18
REMARK                            x       y       z     vdW  Elec       q    Type
REMARK                         _______ _______ _______ _____ _____    ______ ____
ROOT
ATOM      1  O   UNL     1       5.584   3.877  19.797  0.00  0.00    +0.000 OA
ATOM      2  C   UNL     1       5.362   4.808  19.020  0.00  0.00    +0.000 A 
ATOM      3  C   UNL     1       6.475   5.709  18.567  0.00  0.00    +0.000 A 
ATOM      4 BR   UNL     1       8.132   5.459  19.423  0.00  0.00    +0.000 Br
ATOM      5  C   UNL     1       6.268   6.665  17.643  0.00  0.00    +0.000 A 
ATOM      6  C   UNL     1       4.862   6.758  17.167  0.00  0.00    +0.000 A 
ATOM      7  N   UNL     1       3.858   6.036  17.534  0.00  0.00    +0.000 NA
ATOM      8  N   UNL     1       4.109   5.069  18.468  0.00  0.00    +0.000 N 
ENDROOT
BRANCH   8   9
ATOM      9  C   UNL     1       2.963   4.309  18.834  0.00  0.00    +0.000 A 
ATOM     10  C   UNL     1       2.021   4.813  19.751  0.00  0.00    +0.000 A 
ATOM     11 CL   UNL     1       2.132   6.408  20.423  0.00  0.00    +0.000 Cl
ATOM     12  C   UNL     1       0.877   4.073  20.078  0.00  0.00    +0.000 A 
ATOM     13  C   UNL     1       0.652   2.828  19.496  0.00  0.00    +0.000 A 
ATOM     14  C   UNL     1       1.575   2.315  18.588  0.00  0.00    +0.000 A 
ATOM     15  C   UNL     1       2.724   3.045  18.260  0.00  0.00    +0.000 A 
ATOM     16 CL   UNL     1       3.861   2.270  17.203  0.00  0.00    +0.000 Cl
ENDBRANCH   8   9
BRANCH   5  17
ATOM     17  N   UNL     1       7.153   7.563  17.070  0.00  0.00    +0.000 N 
ATOM     18  H   UNL     1       7.623   7.251  16.224  0.00  0.00    +0.000 HD
BRANCH  17  19
ATOM     19  C   UNL     1       7.448   8.907  17.546  0.00  0.00    +0.000 C 
BRANCH  19  20
ATOM     20  C   UNL     1       8.647   8.888  18.503  0.00  0.00    +0.000 C 
BRANCH  20  21
ATOM     21  C   UNL     1       9.078  10.284  18.883  0.00  0.00    +0.000 A 
ATOM     22  C   UNL     1       9.022  11.319  17.940  0.00  0.00    +0.000 A 
ATOM     23  C   UNL     1       9.456  12.600  18.275  0.00  0.00    +0.000 A 
ATOM     24  C   UNL     1       9.955  12.859  19.550  0.00  0.00    +0.000 A 
ATOM     25  C   UNL     1      10.017  11.835  20.494  0.00  0.00    +0.000 A 
ATOM     26  C   UNL     1       9.580  10.553  20.160  0.00  0.00    +0.000 A 
ENDBRANCH  20  21
ENDBRANCH  19  20
ENDBRANCH  17  19
ENDBRANCH   5  17
TORSDOF 5
ENDMDL
MODEL 5
REMARK VINA RESULT:      -8.5      4.165      6.722
REMARK  Name = 
REMARK  5 active torsions:
REMARK  status: ('A' for Active; 'I' for Inactive)
REMARK    1  A    between atoms: C_5  and  N_6
REMARK    2  A    between atoms: N_6  and  C_7
REMARK    3  A    between atoms: C_7  and  C_8
REMARK    4  A    between atoms: C_8  and  C_9
REMARK    5  A    between atoms: N_17  and  C_18
REMARK                            x       y       z     vdW  Elec       q    Type
REMARK                         _______ _______ _______ _____ _____    ______ ____
ROOT
ATOM      1  O   UNL     1       5.558   5.512  19.796  0.00  0.00    +0.000 OA
ATOM      2  C   UNL     1       5.422   4.986  18.689  0.00  0.00    +0.000 A 
ATOM      3  C   UNL     1       6.429   5.225  17.601  0.00  0.00    +0.000 A 
ATOM      4 BR   UNL     1       7.741   6.522  17.968  0.00  0.00    +0.000 Br
ATOM      5  C   UNL     1       6.349   4.581  16.422  0.00  0.00    +0.000 A 
ATOM      6  C   UNL     1       5.178   3.672  16.302  0.00  0.00    +0.000 A 
ATOM      7  N   UNL     1       4.267   3.444  17.184  0.00  0.00    +0.000 NA
ATOM      8  N   UNL     1       4.385   4.111  18.373  0.00  0.00    +0.000 N 
ENDROOT
BRANCH   8   9
ATOM      9  C   UNL     1       3.349   3.819  19.304  0.00  0.00    +0.000 A 
ATOM     10  C   UNL     1       2.157   4.568  19.320  0.00  0.00    +0.000 A 
ATOM     11 CL   UNL     1       1.824   5.820  18.167  0.00  0.00    +0.000 Cl
ATOM     12  C   UNL     1       1.127   4.252  20.216  0.00  0.00    +0.000 A 
ATOM     13  C   UNL     1       1.266   3.187  21.102  0.00  0.00    +0.000 A 
ATOM     14  C   UNL     1       2.440   2.437  21.100  0.00  0.00    +0.000 A 
ATOM     15  C   UNL     1       3.477   2.750  20.212  0.00  0.00    +0.000 A 
ATOM     16 CL   UNL     1       4.935   1.824  20.365  0.00  0.00    +0.000 Cl
ENDBRANCH   8   9
BRANCH   5  17
ATOM     17  N   UNL     1       7.184   4.629  15.317  0.00  0.00    +0.000 N 
ATOM     18  H   UNL     1       8.041   4.086  15.378  0.00  0.00    +0.000 HD
BRANCH  17  19
ATOM     19  C   UNL     1       6.935   5.356  14.080  0.00  0.00    +0.000 C 
BRANCH  19  20
ATOM     20  C   UNL     1       7.667   4.692  12.908  0.00  0.00    +0.000 C 
BRANCH  20  21
ATOM     21  C   UNL     1       6.826   3.617  12.263  0.00  0.00    +0.000 A 
ATOM     22  C   UNL     1       7.441   2.530  11.627  0.00  0.00    +0.000 A 
ATOM     23  C   UNL     1       6.670   1.555  10.996  0.00  0.00    +0.000 A 
ATOM     24  C   UNL     1       5.280   1.660  10.989  0.00  0.00    +0.000 A 
ATOM     25  C   UNL     1       4.660   2.739  11.618  0.00  0.00    +0.000 A 
ATOM     26  C   UNL     1       5.432   3.712  12.251  0.00  0.00    +0.000 A 
ENDBRANCH  20  21
ENDBRANCH  19  20
ENDBRANCH  17  19
ENDBRANCH   5  17
TORSDOF 5
ENDMDL
MODEL 6
REMARK VINA RESULT:      -8.5      4.115      6.526
REMARK  Name = 
REMARK  5 active torsions:
REMARK  status: ('A' for Active; 'I' for Inactive)
REMARK    1  A    between atoms: C_5  and  N_6
REMARK    2  A    between atoms: N_6  and  C_7
REMARK    3  A    between atoms: C_7  and  C_8
REMARK    4  A    between atoms: C_8  and  C_9
REMARK    5  A    between atoms: N_17  and  C_18
REMARK                            x       y       z     vdW  Elec       q    Type
REMARK                         _______ _______ _______ _____ _____    ______ ____
ROOT
ATOM      1  O   UNL     1       5.503   5.530  19.811  0.00  0.00    +0.000 OA
ATOM      2  C   UNL     1       5.407   5.029  18.689  0.00  0.00    +0.000 A 
ATOM      3  C   UNL     1       6.450   5.292  17.640  0.00  0.00    +0.000 A 
ATOM      4 BR   UNL     1       7.746   6.583  18.081  0.00  0.00    +0.000 Br
ATOM      5  C   UNL     1       6.411   4.674  16.446  0.00  0.00    +0.000 A 
ATOM      6  C   UNL     1       5.246   3.766  16.266  0.00  0.00    +0.000 A 
ATOM      7  N   UNL     1       4.306   3.517  17.112  0.00  0.00    +0.000 NA
ATOM      8  N   UNL     1       4.383   4.159  18.319  0.00  0.00    +0.000 N 
ENDROOT
BRANCH   8   9
ATOM      9  C   UNL     1       3.316   3.845  19.207  0.00  0.00    +0.000 A 
ATOM     10  C   UNL     1       3.421   2.776  20.117  0.00  0.00    +0.000 A 
ATOM     11 CL   UNL     1       4.866   1.834  20.289  0.00  0.00    +0.000 Cl
ATOM     12  C   UNL     1       2.379   2.497  21.012  0.00  0.00    +0.000 A 
ATOM     13  C   UNL     1       1.227   3.277  21.018  0.00  0.00    +0.000 A 
ATOM     14  C   UNL     1       1.107   4.338  20.124  0.00  0.00    +0.000 A 
ATOM     15  C   UNL     1       2.140   4.620  19.221  0.00  0.00    +0.000 A 
ATOM     16 CL   UNL     1       1.846   5.892  18.079  0.00  0.00    +0.000 Cl
ENDBRANCH   8   9
BRANCH   5  17
ATOM     17  N   UNL     1       7.283   4.747  15.371  0.00  0.00    +0.000 N 
ATOM     18  H   UNL     1       8.183   4.290  15.492  0.00  0.00    +0.000 HD
BRANCH  17  19
ATOM     19  C   UNL     1       7.020   5.387  14.090  0.00  0.00    +0.000 C 
BRANCH  19  20
ATOM     20  C   UNL     1       7.760   4.659  12.962  0.00  0.00    +0.000 C 
BRANCH  20  21
ATOM     21  C   UNL     1       6.866   3.667  12.258  0.00  0.00    +0.000 A 
ATOM     22  C   UNL     1       5.473   3.808  12.321  0.00  0.00    +0.000 A 
ATOM     23  C   UNL     1       4.642   2.873  11.706  0.00  0.00    +0.000 A 
ATOM     24  C   UNL     1       5.194   1.787  11.028  0.00  0.00    +0.000 A 
ATOM     25  C   UNL     1       6.579   1.638  10.962  0.00  0.00    +0.000 A 
ATOM     26  C   UNL     1       7.409   2.575  11.576  0.00  0.00    +0.000 A 
ENDBRANCH  20  21
ENDBRANCH  19  20
ENDBRANCH  17  19
ENDBRANCH   5  17
TORSDOF 5
ENDMDL
MODEL 7
REMARK VINA RESULT:      -8.3      0.818      1.103
REMARK  Name = 
REMARK  5 active torsions:
REMARK  status: ('A' for Active; 'I' for Inactive)
REMARK    1  A    between atoms: C_5  and  N_6
REMARK    2  A    between atoms: N_6  and  C_7
REMARK    3  A    between atoms: C_7  and  C_8
REMARK    4  A    between atoms: C_8  and  C_9
REMARK    5  A    between atoms: N_17  and  C_18
REMARK                            x       y       z     vdW  Elec       q    Type
REMARK                         _______ _______ _______ _____ _____    ______ ____
ROOT
ATOM      1  O   UNL     1       5.654   3.968  19.779  0.00  0.00    +0.000 OA
ATOM      2  C   UNL     1       5.463   4.898  18.993  0.00  0.00    +0.000 A 
ATOM      3  C   UNL     1       6.591   5.809  18.597  0.00  0.00    +0.000 A 
ATOM      4 BR   UNL     1       8.204   5.570  19.536  0.00  0.00    +0.000 Br
ATOM      5  C   UNL     1       6.422   6.765  17.666  0.00  0.00    +0.000 A 
ATOM      6  C   UNL     1       5.041   6.848  17.119  0.00  0.00    +0.000 A 
ATOM      7  N   UNL     1       4.027   6.117  17.434  0.00  0.00    +0.000 NA
ATOM      8  N   UNL     1       4.238   5.151  18.379  0.00  0.00    +0.000 N 
ENDROOT
BRANCH   8   9
ATOM      9  C   UNL     1       3.081   4.381  18.685  0.00  0.00    +0.000 A 
ATOM     10  C   UNL     1       2.881   3.112  18.109  0.00  0.00    +0.000 A 
ATOM     11 CL   UNL     1       4.053   2.361  17.073  0.00  0.00    +0.000 Cl
ATOM     12  C   UNL     1       1.757   2.345  18.443  0.00  0.00    +0.000 A 
ATOM     13  C   UNL     1       0.821   2.826  19.355  0.00  0.00    +0.000 A 
ATOM     14  C   UNL     1       1.003   4.080  19.933  0.00  0.00    +0.000 A 
ATOM     15  C   UNL     1       2.121   4.856  19.600  0.00  0.00    +0.000 A 
ATOM     16 CL   UNL     1       2.198   6.444  20.293  0.00  0.00    +0.000 Cl
ENDBRANCH   8   9
BRANCH   5  17
ATOM     17  N   UNL     1       7.328   7.671  17.139  0.00  0.00    +0.000 N 
ATOM     18  H   UNL     1       7.977   7.306  16.446  0.00  0.00    +0.000 HD
BRANCH  17  19
ATOM     19  C   UNL     1       7.417   9.088  17.462  0.00  0.00    +0.000 C 
BRANCH  19  20
ATOM     20  C   UNL     1       8.616   9.358  18.379  0.00  0.00    +0.000 C 
BRANCH  20  21
ATOM     21  C   UNL     1       9.205  10.727  18.139  0.00  0.00    +0.000 A 
ATOM     22  C   UNL     1       8.364  11.820  17.893  0.00  0.00    +0.000 A 
ATOM     23  C   UNL     1       8.904  13.079  17.632  0.00  0.00    +0.000 A 
ATOM     24  C   UNL     1      10.287  13.255  17.608  0.00  0.00    +0.000 A 
ATOM     25  C   UNL     1      11.131  12.172  17.850  0.00  0.00    +0.000 A 
ATOM     26  C   UNL     1      10.590  10.914  18.114  0.00  0.00    +0.000 A 
ENDBRANCH  20  21
ENDBRANCH  19  20
ENDBRANCH  17  19
ENDBRANCH   5  17
TORSDOF 5
ENDMDL
MODEL 8
REMARK VINA RESULT:      -8.2      4.068      6.424
REMARK  Name = 
REMARK  5 active torsions:
REMARK  status: ('A' for Active; 'I' for Inactive)
REMARK    1  A    between atoms: C_5  and  N_6
REMARK    2  A    between atoms: N_6  and  C_7
REMARK    3  A    between atoms: C_7  and  C_8
REMARK    4  A    between atoms: C_8  and  C_9
REMARK    5  A    between atoms: N_17  and  C_18
REMARK                            x       y       z     vdW  Elec       q    Type
REMARK                         _______ _______ _______ _____ _____    ______ ____
ROOT
ATOM      1  O   UNL     1       5.632   4.362  19.922  0.00  0.00    +0.000 OA
ATOM      2  C   UNL     1       5.341   4.586  18.745  0.00  0.00    +0.000 A 
ATOM      3  C   UNL     1       6.385   5.065  17.777  0.00  0.00    +0.000 A 
ATOM      4 BR   UNL     1       8.056   5.501  18.523  0.00  0.00    +0.000 Br
ATOM      5  C   UNL     1       6.107   5.217  16.469  0.00  0.00    +0.000 A 
ATOM      6  C   UNL     1       4.697   4.912  16.106  0.00  0.00    +0.000 A 
ATOM      7  N   UNL     1       3.750   4.524  16.890  0.00  0.00    +0.000 NA
ATOM      8  N   UNL     1       4.072   4.372  18.211  0.00  0.00    +0.000 N 
ENDROOT
BRANCH   8   9
ATOM      9  C   UNL     1       2.985   3.945  19.024  0.00  0.00    +0.000 A 
ATOM     10  C   UNL     1       2.674   2.579  19.160  0.00  0.00    +0.000 A 
ATOM     11 CL   UNL     1       3.632   1.326  18.437  0.00  0.00    +0.000 Cl
ATOM     12  C   UNL     1       1.625   2.165  19.991  0.00  0.00    +0.000 A 
ATOM     13  C   UNL     1       0.876   3.101  20.700  0.00  0.00    +0.000 A 
ATOM     14  C   UNL     1       1.169   4.456  20.575  0.00  0.00    +0.000 A 
ATOM     15  C   UNL     1       2.212   4.879  19.742  0.00  0.00    +0.000 A 
ATOM     16 CL   UNL     1       2.425   6.592  19.574  0.00  0.00    +0.000 Cl
ENDBRANCH   8   9
BRANCH   5  17
ATOM     17  N   UNL     1       6.923   5.606  15.420  0.00  0.00    +0.000 N 
ATOM     18  H   UNL     1       7.101   6.604  15.336  0.00  0.00    +0.000 HD
BRANCH  17  19
ATOM     19  C   UNL     1       7.563   4.725  14.453  0.00  0.00    +0.000 C 
BRANCH  19  20
ATOM     20  C   UNL     1       7.051   5.015  13.037  0.00  0.00    +0.000 C 
BRANCH  20  21
ATOM     21  C   UNL     1       6.611   3.754  12.334  0.00  0.00    +0.000 A 
ATOM     22  C   UNL     1       7.564   2.889  11.780  0.00  0.00    +0.000 A 
ATOM     23  C   UNL     1       7.161   1.744  11.095  0.00  0.00    +0.000 A 
ATOM     24  C   UNL     1       5.805   1.454  10.953  0.00  0.00    +0.000 A 
ATOM     25  C   UNL     1       4.850   2.311  11.500  0.00  0.00    +0.000 A 
ATOM     26  C   UNL     1       5.254   3.455  12.187  0.00  0.00    +0.000 A 
ENDBRANCH  20  21
ENDBRANCH  19  20
ENDBRANCH  17  19
ENDBRANCH   5  17
TORSDOF 5
ENDMDL
MODEL 9
REMARK VINA RESULT:      -8.2      1.679      2.011
REMARK  Name = 
REMARK  5 active torsions:
REMARK  status: ('A' for Active; 'I' for Inactive)
REMARK    1  A    between atoms: C_5  and  N_6
REMARK    2  A    between atoms: N_6  and  C_7
REMARK    3  A    between atoms: C_7  and  C_8
REMARK    4  A    between atoms: C_8  and  C_9
REMARK    5  A    between atoms: N_17  and  C_18
REMARK                            x       y       z     vdW  Elec       q    Type
REMARK                         _______ _______ _______ _____ _____    ______ ____
ROOT
ATOM      1  O   UNL     1       3.598   4.229  16.567  0.00  0.00    +0.000 OA
ATOM      2  C   UNL     1       4.424   4.640  17.385  0.00  0.00    +0.000 A 
ATOM      3  C   UNL     1       5.717   5.250  16.926  0.00  0.00    +0.000 A 
ATOM      4 BR   UNL     1       6.068   5.135  15.082  0.00  0.00    +0.000 Br
ATOM      5  C   UNL     1       6.583   5.793  17.802  0.00  0.00    +0.000 A 
ATOM      6  C   UNL     1       6.157   5.691  19.224  0.00  0.00    +0.000 A 
ATOM      7  N   UNL     1       5.078   5.158  19.684  0.00  0.00    +0.000 NA
ATOM      8  N   UNL     1       4.218   4.624  18.763  0.00  0.00    +0.000 N 
ENDROOT
BRANCH   8   9
ATOM      9  C   UNL     1       3.048   4.049  19.333  0.00  0.00    +0.000 A 
ATOM     10  C   UNL     1       2.847   2.655  19.328  0.00  0.00    +0.000 A 
ATOM     11 CL   UNL     1       4.033   1.543  18.722  0.00  0.00    +0.000 Cl
ATOM     12  C   UNL     1       1.709   2.095  19.922  0.00  0.00    +0.000 A 
ATOM     13  C   UNL     1       0.759   2.910  20.533  0.00  0.00    +0.000 A 
ATOM     14  C   UNL     1       0.941   4.291  20.546  0.00  0.00    +0.000 A 
ATOM     15  C   UNL     1       2.073   4.859  19.948  0.00  0.00    +0.000 A 
ATOM     16 CL   UNL     1       2.150   6.592  19.925  0.00  0.00    +0.000 Cl
ENDBRANCH   8   9
BRANCH   5  17
ATOM     17  N   UNL     1       7.794   6.430  17.586  0.00  0.00    +0.000 N 
ATOM     18  H   UNL     1       8.361   6.068  16.823  0.00  0.00    +0.000 HD
BRANCH  17  19
ATOM     19  C   UNL     1       8.311   7.573  18.325  0.00  0.00    +0.000 C 
BRANCH  19  20
ATOM     20  C   UNL     1       7.971   8.881  17.601  0.00  0.00    +0.000 C 
BRANCH  20  21
ATOM     21  C   UNL     1       8.598  10.074  18.282  0.00  0.00    +0.000 A 
ATOM     22  C   UNL     1       8.562  11.333  17.668  0.00  0.00    +0.000 A 
ATOM     23  C   UNL     1       9.173  12.429  18.274  0.00  0.00    +0.000 A 
ATOM     24  C   UNL     1       9.830  12.278  19.494  0.00  0.00    +0.000 A 
ATOM     25  C   UNL     1       9.872  11.028  20.111  0.00  0.00    +0.000 A 
ATOM     26  C   UNL     1       9.258   9.932  19.505  0.00  0.00    +0.000 A 
ENDBRANCH  20  21
ENDBRANCH  19  20
ENDBRANCH  17  19
ENDBRANCH   5  17
TORSDOF 5
ENDMDL
