MODEL 1
REMARK VINA RESULT:      -8.1      0.000      0.000
REMARK  Name = 
REMARK  5 active torsions:
REMARK  status: ('A' for Active; 'I' for Inactive)
REMARK    1  A    between atoms: O_1  and  C_2
REMARK    2  A    between atoms: C_5  and  C_6
REMARK    3  A    between atoms: N_7  and  N_8
REMARK    4  A    between atoms: C_11  and  C_12
REMARK    5  A    between atoms: C_15  and  C_16
REMARK                            x       y       z     vdW  Elec       q    Type
REMARK                         _______ _______ _______ _____ _____    ______ ____
ROOT
ATOM      1  N   UNL     1       1.565   7.302  21.344  0.00  0.00    +0.000 N 
ATOM      2  C   UNL     1       1.989   6.276  20.558  0.00  0.00    +0.000 A 
ATOM      3  N   UNL     1       2.745   6.389  19.488  0.00  0.00    +0.000 NA
ATOM      4  C   UNL     1       2.941   5.158  18.893  0.00  0.00    +0.000 A 
ATOM      5  C   UNL     1       2.318   4.103  19.527  0.00  0.00    +0.000 A 
ATOM      6  S   UNL     1       1.510   4.659  20.930  0.00  0.00    +0.000 S 
ATOM      7  H   UNL     1       0.978   7.036  22.130  0.00  0.00    +0.000 HD
ENDROOT
BRANCH   4   8
ATOM      8  C   UNL     1       3.781   5.016  17.713  0.00  0.00    +0.000 A 
ATOM      9  C   UNL     1       3.982   3.751  17.148  0.00  0.00    +0.000 A 
ATOM     10  C   UNL     1       4.750   3.604  15.984  0.00  0.00    +0.000 A 
ATOM     11  C   UNL     1       5.339   4.708  15.347  0.00  0.00    +0.000 A 
ATOM     12  C   UNL     1       5.140   5.967  15.942  0.00  0.00    +0.000 A 
ATOM     13  C   UNL     1       4.383   6.121  17.108  0.00  0.00    +0.000 A 
BRANCH  11  14
ATOM     14  C   UNL     1       6.131   4.569  14.102  0.00  0.00    +0.000 A 
ATOM     15  C   UNL     1       7.274   5.352  13.862  0.00  0.00    +0.000 A 
ATOM     16  C   UNL     1       8.030   5.206  12.694  0.00  0.00    +0.000 A 
ATOM     17  C   UNL     1       7.666   4.260  11.738  0.00  0.00    +0.000 A 
ATOM     18  C   UNL     1       6.543   3.470  11.949  0.00  0.00    +0.000 A 
ATOM     19  C   UNL     1       5.782   3.631  13.111  0.00  0.00    +0.000 A 
ENDBRANCH  11  14
ENDBRANCH   4   8
BRANCH   1  21
ATOM     20  C   UNL     1       0.178   8.905  20.570  0.00  0.00    +0.000 C 
ATOM     21  N   UNL     1       1.393   8.544  20.811  0.00  0.00    +0.000 NA
BRANCH  20  25
ATOM     22  C   UNL     1      -0.575  12.613  18.630  0.00  0.00    +0.000 A 
ATOM     23  C   UNL     1       0.443  12.534  19.574  0.00  0.00    +0.000 A 
ATOM     24  C   UNL     1       0.682  11.320  20.217  0.00  0.00    +0.000 A 
ATOM     25  C   UNL     1      -0.098  10.196  19.913  0.00  0.00    +0.000 A 
ATOM     26  C   UNL     1      -1.121  10.285  18.966  0.00  0.00    +0.000 A 
ATOM     27  C   UNL     1      -1.359  11.502  18.325  0.00  0.00    +0.000 A 
BRANCH  22  28
ATOM     28  O   UNL     1      -0.840  13.776  17.972  0.00  0.00    +0.000 OA
ATOM     29  H   UNL     1      -1.676  14.139  18.310  0.00  0.00    +0.000 HD
ENDBRANCH  22  28
ENDBRANCH  20  25
ENDBRANCH   1  21
TORSDOF 5
ENDMDL
MODEL 2
REMARK VINA RESULT:      -8.1      0.898      1.123
REMARK  Name = 
REMARK  5 active torsions:
REMARK  status: ('A' for Active; 'I' for Inactive)
REMARK    1  A    between atoms: O_1  and  C_2
REMARK    2  A    between atoms: C_5  and  C_6
REMARK    3  A    between atoms: N_7  and  N_8
REMARK    4  A    between atoms: C_11  and  C_12
REMARK    5  A    between atoms: C_15  and  C_16
REMARK                            x       y       z     vdW  Elec       q    Type
REMARK                         _______ _______ _______ _____ _____    ______ ____
ROOT
ATOM      1  N   UNL     1       1.486   6.849  21.439  0.00  0.00    +0.000 N 
ATOM      2  C   UNL     1       2.071   5.862  20.708  0.00  0.00    +0.000 A 
ATOM      3  N   UNL     1       2.732   6.029  19.583  0.00  0.00    +0.000 NA
ATOM      4  C   UNL     1       3.149   4.815  19.074  0.00  0.00    +0.000 A 
ATOM      5  C   UNL     1       2.790   3.716  19.829  0.00  0.00    +0.000 A 
ATOM      6  S   UNL     1       1.957   4.223  21.236  0.00  0.00    +0.000 S 
ATOM      7  H   UNL     1       1.006   6.542  22.281  0.00  0.00    +0.000 HD
ENDROOT
BRANCH   4   8
ATOM      8  C   UNL     1       3.938   4.739  17.853  0.00  0.00    +0.000 A 
ATOM      9  C   UNL     1       4.229   3.492  17.287  0.00  0.00    +0.000 A 
ATOM     10  C   UNL     1       4.949   3.404  16.087  0.00  0.00    +0.000 A 
ATOM     11  C   UNL     1       5.399   4.552  15.414  0.00  0.00    +0.000 A 
ATOM     12  C   UNL     1       5.113   5.794  16.011  0.00  0.00    +0.000 A 
ATOM     13  C   UNL     1       4.404   5.889  17.213  0.00  0.00    +0.000 A 
BRANCH  11  14
ATOM     14  C   UNL     1       6.139   4.474  14.132  0.00  0.00    +0.000 A 
ATOM     15  C   UNL     1       7.253   5.291  13.870  0.00  0.00    +0.000 A 
ATOM     16  C   UNL     1       7.959   5.203  12.666  0.00  0.00    +0.000 A 
ATOM     17  C   UNL     1       7.573   4.283  11.695  0.00  0.00    +0.000 A 
ATOM     18  C   UNL     1       6.477   3.460  11.925  0.00  0.00    +0.000 A 
ATOM     19  C   UNL     1       5.765   3.563  13.125  0.00  0.00    +0.000 A 
ENDBRANCH  11  14
ENDBRANCH   4   8
BRANCH   1  21
ATOM     20  C   UNL     1       0.370   8.808  21.555  0.00  0.00    +0.000 C 
ATOM     21  N   UNL     1       1.033   7.977  20.824  0.00  0.00    +0.000 NA
BRANCH  20  25
ATOM     22  C   UNL     1      -1.421  12.250  19.818  0.00  0.00    +0.000 A 
ATOM     23  C   UNL     1      -0.875  11.277  18.989  0.00  0.00    +0.000 A 
ATOM     24  C   UNL     1      -0.278  10.153  19.560  0.00  0.00    +0.000 A 
ATOM     25  C   UNL     1      -0.232  10.012  20.954  0.00  0.00    +0.000 A 
ATOM     26  C   UNL     1      -0.779  10.997  21.779  0.00  0.00    +0.000 A 
ATOM     27  C   UNL     1      -1.375  12.121  21.205  0.00  0.00    +0.000 A 
BRANCH  22  28
ATOM     28  O   UNL     1      -2.020  13.361  19.304  0.00  0.00    +0.000 OA
ATOM     29  H   UNL     1      -1.917  14.090  19.939  0.00  0.00    +0.000 HD
ENDBRANCH  22  28
ENDBRANCH  20  25
ENDBRANCH   1  21
TORSDOF 5
ENDMDL
MODEL 3
REMARK VINA RESULT:      -8.0      0.588      1.097
REMARK  Name = 
REMARK  5 active torsions:
REMARK  status: ('A' for Active; 'I' for Inactive)
REMARK    1  A    between atoms: O_1  and  C_2
REMARK    2  A    between atoms: C_5  and  C_6
REMARK    3  A    between atoms: N_7  and  N_8
REMARK    4  A    between atoms: C_11  and  C_12
REMARK    5  A    between atoms: C_15  and  C_16
REMARK                            x       y       z     vdW  Elec       q    Type
REMARK                         _______ _______ _______ _____ _____    ______ ____
ROOT
ATOM      1  N   UNL     1       1.532   7.224  21.313  0.00  0.00    +0.000 N 
ATOM      2  C   UNL     1       2.077   6.194  20.610  0.00  0.00    +0.000 A 
ATOM      3  N   UNL     1       2.759   6.306  19.490  0.00  0.00    +0.000 NA
ATOM      4  C   UNL     1       3.120   5.062  19.010  0.00  0.00    +0.000 A 
ATOM      5  C   UNL     1       2.698   3.998  19.782  0.00  0.00    +0.000 A 
ATOM      6  S   UNL     1       1.874   4.574  21.168  0.00  0.00    +0.000 S 
ATOM      7  H   UNL     1       1.028   6.958  22.155  0.00  0.00    +0.000 HD
ENDROOT
BRANCH   4   8
ATOM      8  C   UNL     1       3.920   4.922  17.803  0.00  0.00    +0.000 A 
ATOM      9  C   UNL     1       4.166   3.650  17.272  0.00  0.00    +0.000 A 
ATOM     10  C   UNL     1       4.895   3.502  16.084  0.00  0.00    +0.000 A 
ATOM     11  C   UNL     1       5.400   4.613  15.387  0.00  0.00    +0.000 A 
ATOM     12  C   UNL     1       5.158   5.880  15.949  0.00  0.00    +0.000 A 
ATOM     13  C   UNL     1       4.439   6.035  17.139  0.00  0.00    +0.000 A 
BRANCH  11  14
ATOM     14  C   UNL     1       6.150   4.471  14.116  0.00  0.00    +0.000 A 
ATOM     15  C   UNL     1       5.802   3.504  13.157  0.00  0.00    +0.000 A 
ATOM     16  C   UNL     1       6.501   3.385  11.950  0.00  0.00    +0.000 A 
ATOM     17  C   UNL     1       7.562   4.243  11.670  0.00  0.00    +0.000 A 
ATOM     18  C   UNL     1       7.928   5.210  12.598  0.00  0.00    +0.000 A 
ATOM     19  C   UNL     1       7.235   5.315  13.808  0.00  0.00    +0.000 A 
ENDBRANCH  11  14
ENDBRANCH   4   8
BRANCH   1  21
ATOM     20  C   UNL     1       0.585   9.271  21.393  0.00  0.00    +0.000 C 
ATOM     21  N   UNL     1       1.144   8.360  20.670  0.00  0.00    +0.000 NA
BRANCH  20  25
ATOM     22  C   UNL     1      -0.891  12.810  19.556  0.00  0.00    +0.000 A 
ATOM     23  C   UNL     1      -0.171  12.909  20.741  0.00  0.00    +0.000 A 
ATOM     24  C   UNL     1       0.303  11.747  21.349  0.00  0.00    +0.000 A 
ATOM     25  C   UNL     1       0.055  10.497  20.767  0.00  0.00    +0.000 A 
ATOM     26  C   UNL     1      -0.671  10.406  19.577  0.00  0.00    +0.000 A 
ATOM     27  C   UNL     1      -1.146  11.570  18.972  0.00  0.00    +0.000 A 
BRANCH  22  28
ATOM     28  O   UNL     1      -1.367  13.919  18.923  0.00  0.00    +0.000 OA
ATOM     29  H   UNL     1      -0.716  14.200  18.259  0.00  0.00    +0.000 HD
ENDBRANCH  22  28
ENDBRANCH  20  25
ENDBRANCH   1  21
TORSDOF 5
ENDMDL
MODEL 4
REMARK VINA RESULT:      -8.0      4.860      7.165
REMARK  Name = 
REMARK  5 active torsions:
REMARK  status: ('A' for Active; 'I' for Inactive)
REMARK    1  A    between atoms: O_1  and  C_2
REMARK    2  A    between atoms: C_5  and  C_6
REMARK    3  A    between atoms: N_7  and  N_8
REMARK    4  A    between atoms: C_11  and  C_12
REMARK    5  A    between atoms: C_15  and  C_16
REMARK                            x       y       z     vdW  Elec       q    Type
REMARK                         _______ _______ _______ _____ _____    ______ ____
ROOT
ATOM      1  N   UNL     1      -1.886  13.242  19.350  0.00  0.00    +0.000 N 
ATOM      2  C   UNL     1      -0.715  12.566  19.193  0.00  0.00    +0.000 A 
ATOM      3  N   UNL     1      -0.516  11.298  19.481  0.00  0.00    +0.000 NA
ATOM      4  C   UNL     1       0.800  10.945  19.253  0.00  0.00    +0.000 A 
ATOM      5  C   UNL     1       1.603  11.967  18.790  0.00  0.00    +0.000 A 
ATOM      6  S   UNL     1       0.674  13.391  18.585  0.00  0.00    +0.000 S 
ATOM      7  H   UNL     1      -1.862  14.223  19.085  0.00  0.00    +0.000 HD
ENDROOT
BRANCH   4   8
ATOM      8  C   UNL     1       1.261   9.580  19.459  0.00  0.00    +0.000 A 
ATOM      9  C   UNL     1       1.000   8.930  20.671  0.00  0.00    +0.000 A 
ATOM     10  C   UNL     1       1.397   7.599  20.867  0.00  0.00    +0.000 A 
ATOM     11  C   UNL     1       2.062   6.876  19.864  0.00  0.00    +0.000 A 
ATOM     12  C   UNL     1       2.331   7.554  18.661  0.00  0.00    +0.000 A 
ATOM     13  C   UNL     1       1.948   8.884  18.462  0.00  0.00    +0.000 A 
BRANCH  11  14
ATOM     14  C   UNL     1       2.464   5.460  20.049  0.00  0.00    +0.000 A 
ATOM     15  C   UNL     1       1.925   4.668  21.078  0.00  0.00    +0.000 A 
ATOM     16  C   UNL     1       2.293   3.327  21.239  0.00  0.00    +0.000 A 
ATOM     17  C   UNL     1       3.204   2.742  20.363  0.00  0.00    +0.000 A 
ATOM     18  C   UNL     1       3.752   3.500  19.335  0.00  0.00    +0.000 A 
ATOM     19  C   UNL     1       3.392   4.843  19.188  0.00  0.00    +0.000 A 
ENDBRANCH  11  14
ENDBRANCH   4   8
BRANCH   1  21
ATOM     20  C   UNL     1      -4.007  13.155  20.117  0.00  0.00    +0.000 C 
ATOM     21  N   UNL     1      -2.766  12.865  20.319  0.00  0.00    +0.000 NA
BRANCH  20  25
ATOM     22  C   UNL     1      -6.940  12.373  23.093  0.00  0.00    +0.000 A 
ATOM     23  C   UNL     1      -5.710  12.897  23.473  0.00  0.00    +0.000 A 
ATOM     24  C   UNL     1      -4.745  13.143  22.497  0.00  0.00    +0.000 A 
ATOM     25  C   UNL     1      -5.017  12.864  21.151  0.00  0.00    +0.000 A 
ATOM     26  C   UNL     1      -6.255  12.334  20.779  0.00  0.00    +0.000 A 
ATOM     27  C   UNL     1      -7.218  12.087  21.758  0.00  0.00    +0.000 A 
BRANCH  22  28
ATOM     28  O   UNL     1      -7.916  12.123  24.011  0.00  0.00    +0.000 OA
ATOM     29  H   UNL     1      -7.530  11.607  24.739  0.00  0.00    +0.000 HD
ENDBRANCH  22  28
ENDBRANCH  20  25
ENDBRANCH   1  21
TORSDOF 5
ENDMDL
MODEL 5
REMARK VINA RESULT:      -8.0      0.777      1.715
REMARK  Name = 
REMARK  5 active torsions:
REMARK  status: ('A' for Active; 'I' for Inactive)
REMARK    1  A    between atoms: O_1  and  C_2
REMARK    2  A    between atoms: C_5  and  C_6
REMARK    3  A    between atoms: N_7  and  N_8
REMARK    4  A    between atoms: C_11  and  C_12
REMARK    5  A    between atoms: C_15  and  C_16
REMARK                            x       y       z     vdW  Elec       q    Type
REMARK                         _______ _______ _______ _____ _____    ______ ____
ROOT
ATOM      1  N   UNL     1       1.619   7.065  21.449  0.00  0.00    +0.000 N 
ATOM      2  C   UNL     1       2.117   6.050  20.693  0.00  0.00    +0.000 A 
ATOM      3  N   UNL     1       2.741   6.184  19.542  0.00  0.00    +0.000 NA
ATOM      4  C   UNL     1       3.065   4.950  19.013  0.00  0.00    +0.000 A 
ATOM      5  C   UNL     1       2.675   3.870  19.780  0.00  0.00    +0.000 A 
ATOM      6  S   UNL     1       1.930   4.417  21.221  0.00  0.00    +0.000 S 
ATOM      7  H   UNL     1       1.158   6.782  22.309  0.00  0.00    +0.000 HD
ENDROOT
BRANCH   4   8
ATOM      8  C   UNL     1       3.799   4.834  17.762  0.00  0.00    +0.000 A 
ATOM      9  C   UNL     1       4.362   5.974  17.176  0.00  0.00    +0.000 A 
ATOM     10  C   UNL     1       5.111   5.872  15.995  0.00  0.00    +0.000 A 
ATOM     11  C   UNL     1       5.324   4.635  15.363  0.00  0.00    +0.000 A 
ATOM     12  C   UNL     1       4.733   3.506  15.959  0.00  0.00    +0.000 A 
ATOM     13  C   UNL     1       3.977   3.601  17.132  0.00  0.00    +0.000 A 
BRANCH  11  14
ATOM     14  C   UNL     1       6.136   4.510  14.129  0.00  0.00    +0.000 A 
ATOM     15  C   UNL     1       5.799   3.599  13.112  0.00  0.00    +0.000 A 
ATOM     16  C   UNL     1       6.557   3.496  11.941  0.00  0.00    +0.000 A 
ATOM     17  C   UNL     1       7.668   4.315  11.753  0.00  0.00    +0.000 A 
ATOM     18  C   UNL     1       8.024   5.227  12.738  0.00  0.00    +0.000 A 
ATOM     19  C   UNL     1       7.271   5.315  13.914  0.00  0.00    +0.000 A 
ENDBRANCH  11  14
ENDBRANCH   4   8
BRANCH   1  21
ATOM     20  C   UNL     1       0.328   8.916  21.492  0.00  0.00    +0.000 C 
ATOM     21  N   UNL     1       1.208   8.220  20.855  0.00  0.00    +0.000 NA
BRANCH  20  25
ATOM     22  C   UNL     1      -1.363  12.409  19.756  0.00  0.00    +0.000 A 
ATOM     23  C   UNL     1      -1.186  11.277  18.969  0.00  0.00    +0.000 A 
ATOM     24  C   UNL     1      -0.622  10.135  19.537  0.00  0.00    +0.000 A 
ATOM     25  C   UNL     1      -0.239  10.135  20.885  0.00  0.00    +0.000 A 
ATOM     26  C   UNL     1      -0.417  11.278  21.667  0.00  0.00    +0.000 A 
ATOM     27  C   UNL     1      -0.981  12.419  21.096  0.00  0.00    +0.000 A 
BRANCH  22  28
ATOM     28  O   UNL     1      -1.917  13.545  19.245  0.00  0.00    +0.000 OA
ATOM     29  H   UNL     1      -2.127  13.392  18.308  0.00  0.00    +0.000 HD
ENDBRANCH  22  28
ENDBRANCH  20  25
ENDBRANCH   1  21
TORSDOF 5
ENDMDL
MODEL 6
REMARK VINA RESULT:      -7.9      4.830      7.134
REMARK  Name = 
REMARK  5 active torsions:
REMARK  status: ('A' for Active; 'I' for Inactive)
REMARK    1  A    between atoms: O_1  and  C_2
REMARK    2  A    between atoms: C_5  and  C_6
REMARK    3  A    between atoms: N_7  and  N_8
REMARK    4  A    between atoms: C_11  and  C_12
REMARK    5  A    between atoms: C_15  and  C_16
REMARK                            x       y       z     vdW  Elec       q    Type
REMARK                         _______ _______ _______ _____ _____    ______ ____
ROOT
ATOM      1  N   UNL     1      -1.901  13.312  19.494  0.00  0.00    +0.000 N 
ATOM      2  C   UNL     1      -0.747  12.617  19.311  0.00  0.00    +0.000 A 
ATOM      3  N   UNL     1      -0.576  11.335  19.551  0.00  0.00    +0.000 NA
ATOM      4  C   UNL     1       0.732  10.961  19.311  0.00  0.00    +0.000 A 
ATOM      5  C   UNL     1       1.558  11.982  18.885  0.00  0.00    +0.000 A 
ATOM      6  S   UNL     1       0.661  13.432  18.733  0.00  0.00    +0.000 S 
ATOM      7  H   UNL     1      -1.856  14.302  19.265  0.00  0.00    +0.000 HD
ENDROOT
BRANCH   4   8
ATOM      8  C   UNL     1       1.162   9.579  19.465  0.00  0.00    +0.000 A 
ATOM      9  C   UNL     1       1.770   8.914  18.394  0.00  0.00    +0.000 A 
ATOM     10  C   UNL     1       2.231   7.598  18.541  0.00  0.00    +0.000 A 
ATOM     11  C   UNL     1       2.104   6.906  19.757  0.00  0.00    +0.000 A 
ATOM     12  C   UNL     1       1.473   7.587  20.814  0.00  0.00    +0.000 A 
ATOM     13  C   UNL     1       1.001   8.895  20.672  0.00  0.00    +0.000 A 
BRANCH  11  14
ATOM     14  C   UNL     1       2.611   5.524  19.933  0.00  0.00    +0.000 A 
ATOM     15  C   UNL     1       3.751   5.062  19.251  0.00  0.00    +0.000 A 
ATOM     16  C   UNL     1       4.237   3.763  19.434  0.00  0.00    +0.000 A 
ATOM     17  C   UNL     1       3.599   2.895  20.315  0.00  0.00    +0.000 A 
ATOM     18  C   UNL     1       2.472   3.323  21.005  0.00  0.00    +0.000 A 
ATOM     19  C   UNL     1       1.981   4.618  20.808  0.00  0.00    +0.000 A 
ENDBRANCH  11  14
ENDBRANCH   4   8
BRANCH   1  21
ATOM     20  C   UNL     1      -4.007  13.325  20.307  0.00  0.00    +0.000 C 
ATOM     21  N   UNL     1      -2.790  12.920  20.448  0.00  0.00    +0.000 NA
BRANCH  20  25
ATOM     22  C   UNL     1      -6.939  12.508  23.275  0.00  0.00    +0.000 A 
ATOM     23  C   UNL     1      -5.705  13.016  23.662  0.00  0.00    +0.000 A 
ATOM     24  C   UNL     1      -4.740  13.274  22.689  0.00  0.00    +0.000 A 
ATOM     25  C   UNL     1      -5.017  13.022  21.338  0.00  0.00    +0.000 A 
ATOM     26  C   UNL     1      -6.259  12.508  20.958  0.00  0.00    +0.000 A 
ATOM     27  C   UNL     1      -7.222  12.250  21.935  0.00  0.00    +0.000 A 
BRANCH  22  28
ATOM     28  O   UNL     1      -7.915  12.248  24.191  0.00  0.00    +0.000 OA
ATOM     29  H   UNL     1      -8.105  13.066  24.680  0.00  0.00    +0.000 HD
ENDBRANCH  22  28
ENDBRANCH  20  25
ENDBRANCH   1  21
TORSDOF 5
ENDMDL
MODEL 7
REMARK VINA RESULT:      -7.9      4.809      7.206
REMARK  Name = 
REMARK  5 active torsions:
REMARK  status: ('A' for Active; 'I' for Inactive)
REMARK    1  A    between atoms: O_1  and  C_2
REMARK    2  A    between atoms: C_5  and  C_6
REMARK    3  A    between atoms: N_7  and  N_8
REMARK    4  A    between atoms: C_11  and  C_12
REMARK    5  A    between atoms: C_15  and  C_16
REMARK                            x       y       z     vdW  Elec       q    Type
REMARK                         _______ _______ _______ _____ _____    ______ ____
ROOT
ATOM      1  N   UNL     1      -1.948  13.246  19.389  0.00  0.00    +0.000 N 
ATOM      2  C   UNL     1      -0.776  12.567  19.261  0.00  0.00    +0.000 A 
ATOM      3  N   UNL     1      -0.603  11.283  19.490  0.00  0.00    +0.000 NA
ATOM      4  C   UNL     1       0.721  10.928  19.319  0.00  0.00    +0.000 A 
ATOM      5  C   UNL     1       1.556  11.966  18.959  0.00  0.00    +0.000 A 
ATOM      6  S   UNL     1       0.652  13.409  18.780  0.00  0.00    +0.000 S 
ATOM      7  H   UNL     1      -1.902  14.239  19.180  0.00  0.00    +0.000 HD
ENDROOT
BRANCH   4   8
ATOM      8  C   UNL     1       1.158   9.549  19.474  0.00  0.00    +0.000 A 
ATOM      9  C   UNL     1       1.822   8.905  18.423  0.00  0.00    +0.000 A 
ATOM     10  C   UNL     1       2.291   7.592  18.574  0.00  0.00    +0.000 A 
ATOM     11  C   UNL     1       2.115   6.882  19.773  0.00  0.00    +0.000 A 
ATOM     12  C   UNL     1       1.428   7.541  20.809  0.00  0.00    +0.000 A 
ATOM     13  C   UNL     1       0.949   8.847  20.663  0.00  0.00    +0.000 A 
BRANCH  11  14
ATOM     14  C   UNL     1       2.629   5.503  19.954  0.00  0.00    +0.000 A 
ATOM     15  C   UNL     1       2.010   4.593  20.830  0.00  0.00    +0.000 A 
ATOM     16  C   UNL     1       2.486   3.287  20.985  0.00  0.00    +0.000 A 
ATOM     17  C   UNL     1       3.591   2.854  20.257  0.00  0.00    +0.000 A 
ATOM     18  C   UNL     1       4.223   3.730  19.382  0.00  0.00    +0.000 A 
ATOM     19  C   UNL     1       3.751   5.039  19.242  0.00  0.00    +0.000 A 
ENDBRANCH  11  14
ENDBRANCH   4   8
BRANCH   1  21
ATOM     20  C   UNL     1      -4.017  13.447  20.270  0.00  0.00    +0.000 C 
ATOM     21  N   UNL     1      -2.886  12.826  20.284  0.00  0.00    +0.000 NA
BRANCH  20  25
ATOM     22  C   UNL     1      -6.995  12.443  23.133  0.00  0.00    +0.000 A 
ATOM     23  C   UNL     1      -7.249  12.225  21.784  0.00  0.00    +0.000 A 
ATOM     24  C   UNL     1      -6.275  12.565  20.845  0.00  0.00    +0.000 A 
ATOM     25  C   UNL     1      -5.058  13.119  21.262  0.00  0.00    +0.000 A 
ATOM     26  C   UNL     1      -4.812  13.338  22.619  0.00  0.00    +0.000 A 
ATOM     27  C   UNL     1      -5.789  12.998  23.557  0.00  0.00    +0.000 A 
BRANCH  22  28
ATOM     28  O   UNL     1      -7.914  12.120  24.086  0.00  0.00    +0.000 OA
ATOM     29  H   UNL     1      -7.614  11.318  24.546  0.00  0.00    +0.000 HD
ENDBRANCH  22  28
ENDBRANCH  20  25
ENDBRANCH   1  21
TORSDOF 5
ENDMDL
MODEL 8
REMARK VINA RESULT:      -7.9      3.186      5.329
REMARK  Name = 
REMARK  5 active torsions:
REMARK  status: ('A' for Active; 'I' for Inactive)
REMARK    1  A    between atoms: O_1  and  C_2
REMARK    2  A    between atoms: C_5  and  C_6
REMARK    3  A    between atoms: N_7  and  N_8
REMARK    4  A    between atoms: C_11  and  C_12
REMARK    5  A    between atoms: C_15  and  C_16
REMARK                            x       y       z     vdW  Elec       q    Type
REMARK                         _______ _______ _______ _____ _____    ______ ____
ROOT
ATOM      1  N   UNL     1      -0.090  12.838  21.814  0.00  0.00    +0.000 N 
ATOM      2  C   UNL     1       0.050  11.492  21.670  0.00  0.00    +0.000 A 
ATOM      3  N   UNL     1       0.786  10.889  20.761  0.00  0.00    +0.000 NA
ATOM      4  C   UNL     1       0.661   9.517  20.860  0.00  0.00    +0.000 A 
ATOM      5  C   UNL     1      -0.187   9.083  21.859  0.00  0.00    +0.000 A 
ATOM      6  S   UNL     1      -0.801  10.425  22.727  0.00  0.00    +0.000 S 
ATOM      7  H   UNL     1      -0.706  13.134  22.566  0.00  0.00    +0.000 HD
ENDROOT
BRANCH   4   8
ATOM      8  C   UNL     1       1.412   8.626  19.988  0.00  0.00    +0.000 A 
ATOM      9  C   UNL     1       1.724   9.027  18.684  0.00  0.00    +0.000 A 
ATOM     10  C   UNL     1       2.487   8.199  17.847  0.00  0.00    +0.000 A 
ATOM     11  C   UNL     1       2.962   6.951  18.282  0.00  0.00    +0.000 A 
ATOM     12  C   UNL     1       2.620   6.560  19.590  0.00  0.00    +0.000 A 
ATOM     13  C   UNL     1       1.852   7.375  20.427  0.00  0.00    +0.000 A 
BRANCH  11  14
ATOM     14  C   UNL     1       3.791   6.078  17.417  0.00  0.00    +0.000 A 
ATOM     15  C   UNL     1       3.693   4.676  17.471  0.00  0.00    +0.000 A 
ATOM     16  C   UNL     1       4.464   3.856  16.640  0.00  0.00    +0.000 A 
ATOM     17  C   UNL     1       5.346   4.421  15.723  0.00  0.00    +0.000 A 
ATOM     18  C   UNL     1       5.463   5.803  15.645  0.00  0.00    +0.000 A 
ATOM     19  C   UNL     1       4.701   6.619  16.488  0.00  0.00    +0.000 A 
ENDBRANCH  11  14
ENDBRANCH   4   8
BRANCH   1  21
ATOM     20  C   UNL     1       0.922  14.590  20.813  0.00  0.00    +0.000 C 
ATOM     21  N   UNL     1       0.035  13.656  20.732  0.00  0.00    +0.000 NA
BRANCH  20  25
ATOM     22  C   UNL     1       1.339  17.477  17.720  0.00  0.00    +0.000 A 
ATOM     23  C   UNL     1       0.069  17.172  18.198  0.00  0.00    +0.000 A 
ATOM     24  C   UNL     1      -0.067  16.217  19.205  0.00  0.00    +0.000 A 
ATOM     25  C   UNL     1       1.065  15.576  19.725  0.00  0.00    +0.000 A 
ATOM     26  C   UNL     1       2.336  15.885  19.237  0.00  0.00    +0.000 A 
ATOM     27  C   UNL     1       2.470  16.840  18.228  0.00  0.00    +0.000 A 
BRANCH  22  28
ATOM     28  O   UNL     1       1.521  18.408  16.741  0.00  0.00    +0.000 OA
ATOM     29  H   UNL     1       0.801  18.320  16.093  0.00  0.00    +0.000 HD
ENDBRANCH  22  28
ENDBRANCH  20  25
ENDBRANCH   1  21
TORSDOF 5
ENDMDL
MODEL 9
REMARK VINA RESULT:      -7.9      0.130      1.312
REMARK  Name = 
REMARK  5 active torsions:
REMARK  status: ('A' for Active; 'I' for Inactive)
REMARK    1  A    between atoms: O_1  and  C_2
REMARK    2  A    between atoms: C_5  and  C_6
REMARK    3  A    between atoms: N_7  and  N_8
REMARK    4  A    between atoms: C_11  and  C_12
REMARK    5  A    between atoms: C_15  and  C_16
REMARK                            x       y       z     vdW  Elec       q    Type
REMARK                         _______ _______ _______ _____ _____    ______ ____
ROOT
ATOM      1  N   UNL     1       1.657   7.385  21.400  0.00  0.00    +0.000 N 
ATOM      2  C   UNL     1       2.030   6.348  20.602  0.00  0.00    +0.000 A 
ATOM      3  N   UNL     1       2.735   6.445  19.496  0.00  0.00    +0.000 NA
ATOM      4  C   UNL     1       2.889   5.207  18.902  0.00  0.00    +0.000 A 
ATOM      5  C   UNL     1       2.285   4.164  19.573  0.00  0.00    +0.000 A 
ATOM      6  S   UNL     1       1.552   4.739  21.009  0.00  0.00    +0.000 S 
ATOM      7  H   UNL     1       1.105   7.131  22.214  0.00  0.00    +0.000 HD
ENDROOT
BRANCH   4   8
ATOM      8  C   UNL     1       3.669   5.047  17.684  0.00  0.00    +0.000 A 
ATOM      9  C   UNL     1       4.335   6.147  17.132  0.00  0.00    +0.000 A 
ATOM     10  C   UNL     1       5.128   5.999  15.985  0.00  0.00    +0.000 A 
ATOM     11  C   UNL     1       5.284   4.754  15.354  0.00  0.00    +0.000 A 
ATOM     12  C   UNL     1       4.590   3.665  15.915  0.00  0.00    +0.000 A 
ATOM     13  C   UNL     1       3.790   3.807  17.053  0.00  0.00    +0.000 A 
BRANCH  11  14
ATOM     14  C   UNL     1       6.140   4.578  14.157  0.00  0.00    +0.000 A 
ATOM     15  C   UNL     1       5.848   3.615  13.175  0.00  0.00    +0.000 A 
ATOM     16  C   UNL     1       6.648   3.464  12.036  0.00  0.00    +0.000 A 
ATOM     17  C   UNL     1       7.757   4.285  11.848  0.00  0.00    +0.000 A 
ATOM     18  C   UNL     1       8.069   5.247  12.800  0.00  0.00    +0.000 A 
ATOM     19  C   UNL     1       7.275   5.384  13.943  0.00  0.00    +0.000 A 
ENDBRANCH  11  14
ENDBRANCH   4   8
BRANCH   1  21
ATOM     20  C   UNL     1       0.255   8.973  20.621  0.00  0.00    +0.000 C 
ATOM     21  N   UNL     1       1.473   8.624  20.866  0.00  0.00    +0.000 NA
BRANCH  20  25
ATOM     22  C   UNL     1      -0.539  12.668  18.674  0.00  0.00    +0.000 A 
ATOM     23  C   UNL     1       0.592  12.551  19.474  0.00  0.00    +0.000 A 
ATOM     24  C   UNL     1       0.845  11.342  20.121  0.00  0.00    +0.000 A 
ATOM     25  C   UNL     1      -0.033  10.261  19.963  0.00  0.00    +0.000 A 
ATOM     26  C   UNL     1      -1.168  10.388  19.159  0.00  0.00    +0.000 A 
ATOM     27  C   UNL     1      -1.420  11.600  18.514  0.00  0.00    +0.000 A 
BRANCH  22  28
ATOM     28  O   UNL     1      -0.823  13.828  18.017  0.00  0.00    +0.000 OA
ATOM     29  H   UNL     1      -1.619  14.221  18.414  0.00  0.00    +0.000 HD
ENDBRANCH  22  28
ENDBRANCH  20  25
ENDBRANCH   1  21
TORSDOF 5
ENDMDL
