MODEL 1
REMARK VINA RESULT:      -9.4      0.000      0.000
REMARK  Name = 
REMARK  6 active torsions:
REMARK  status: ('A' for Active; 'I' for Inactive)
REMARK    1  A    between atoms: C_1  and  N_2
REMARK    2  A    between atoms: C_8  and  C_9
REMARK    3  A    between atoms: C_10  and  C_11
REMARK    4  A    between atoms: N_16  and  C_17
REMARK    5  A    between atoms: C_26  and  C_27
REMARK    6  A    between atoms: C_26  and  C_28
REMARK                            x       y       z     vdW  Elec       q    Type
REMARK                         _______ _______ _______ _____ _____    ______ ____
ROOT
ATOM      1  C   UNL     1      -2.407  11.889  19.227  0.00  0.00    +0.000 A 
ATOM      2  C   UNL     1      -3.173  11.387  18.132  0.00  0.00    +0.000 A 
ATOM      3  C   UNL     1      -4.616  11.730  17.827  0.00  0.00    +0.000 C 
ATOM      4  C   UNL     1      -2.612  10.463  17.247  0.00  0.00    +0.000 A 
ATOM      5  C   UNL     1      -1.323   9.986  17.435  0.00  0.00    +0.000 A 
ATOM      6  C   UNL     1      -0.539  10.405  18.520  0.00  0.00    +0.000 A 
ATOM      7  C   UNL     1       0.746   9.860  18.753  0.00  0.00    +0.000 A 
ATOM      8  N   UNL     1       1.325   9.008  17.777  0.00  0.00    +0.000 N 
ATOM      9  N   UNL     1       1.495  10.164  19.833  0.00  0.00    +0.000 NA
ATOM     10  C   UNL     1       1.016  11.086  20.675  0.00  0.00    +0.000 A 
ATOM     11  C   UNL     1      -0.197  11.723  20.488  0.00  0.00    +0.000 A 
ATOM     12  C   UNL     1      -1.066  11.364  19.426  0.00  0.00    +0.000 A 
ATOM     13  H   UNL     1       1.594   9.576  16.983  0.00  0.00    +0.000 HD
ENDROOT
BRANCH   1  21
ATOM     14  C   UNL     1      -6.012  17.640  24.127  0.00  0.00    +0.000 C 
ATOM     15  N   UNL     1      -5.988  16.283  24.626  0.00  0.00    +0.000 N 
ATOM     16  C   UNL     1      -5.488  15.367  23.710  0.00  0.00    +0.000 A 
ATOM     17  N   UNL     1      -6.041  14.150  23.740  0.00  0.00    +0.000 NA
ATOM     18  C   UNL     1      -5.588  13.262  22.834  0.00  0.00    +0.000 A 
ATOM     19  C   UNL     1      -4.601  13.543  21.903  0.00  0.00    +0.000 A 
ATOM     20  C   UNL     1      -4.119  12.620  20.949  0.00  0.00    +0.000 A 
ATOM     21  C   UNL     1      -2.989  12.903  20.163  0.00  0.00    +0.000 A 
ATOM     22  C   UNL     1      -2.429  14.181  20.325  0.00  0.00    +0.000 A 
ATOM     23  C   UNL     1      -3.003  15.138  21.171  0.00  0.00    +0.000 A 
ATOM     24  C   UNL     1      -4.069  14.824  21.990  0.00  0.00    +0.000 A 
ATOM     25  N   UNL     1      -4.520  15.733  22.860  0.00  0.00    +0.000 NA
ATOM     26  H   UNL     1      -6.877  15.911  24.938  0.00  0.00    +0.000 HD
ENDBRANCH   1  21
BRANCH   8  27
ATOM     27  C   UNL     1       2.215   7.943  18.030  0.00  0.00    +0.000 A 
ATOM     28  C   UNL     1       3.463   7.914  17.367  0.00  0.00    +0.000 A 
ATOM     29  C   UNL     1       4.302   6.797  17.440  0.00  0.00    +0.000 A 
ATOM     30  C   UNL     1       3.873   5.712  18.178  0.00  0.00    +0.000 A 
ATOM     31  C   UNL     1       2.679   5.774  18.887  0.00  0.00    +0.000 A 
ATOM     32  C   UNL     1       1.824   6.847  18.815  0.00  0.00    +0.000 A 
ATOM     33  N   UNL     1       2.541   4.638  19.679  0.00  0.00    +0.000 N 
ATOM     34  C   UNL     1       3.658   3.814  19.572  0.00  0.00    +0.000 C 
ATOM     35  O   UNL     1       3.874   2.816  20.236  0.00  0.00    +0.000 OA
ATOM     36  C   UNL     1       4.502   4.352  18.387  0.00  0.00    +0.000 C 
ATOM     37  C   UNL     1       4.199   3.438  17.189  0.00  0.00    +0.000 C 
ATOM     38  C   UNL     1       5.995   4.422  18.670  0.00  0.00    +0.000 C 
ATOM     39  H   UNL     1       1.803   4.482  20.348  0.00  0.00    +0.000 HD
ENDBRANCH   8  27
TORSDOF 2
ENDMDL
MODEL 2
REMARK VINA RESULT:      -9.3      0.954      1.013
REMARK  Name = 
REMARK  6 active torsions:
REMARK  status: ('A' for Active; 'I' for Inactive)
REMARK    1  A    between atoms: C_1  and  N_2
REMARK    2  A    between atoms: C_8  and  C_9
REMARK    3  A    between atoms: C_10  and  C_11
REMARK    4  A    between atoms: N_16  and  C_17
REMARK    5  A    between atoms: C_26  and  C_27
REMARK    6  A    between atoms: C_26  and  C_28
REMARK                            x       y       z     vdW  Elec       q    Type
REMARK                         _______ _______ _______ _____ _____    ______ ____
ROOT
ATOM      1  C   UNL     1      -2.839  11.570  18.794  0.00  0.00    +0.000 A 
ATOM      2  C   UNL     1      -3.374  11.169  17.532  0.00  0.00    +0.000 A 
ATOM      3  C   UNL     1      -4.764  11.476  17.020  0.00  0.00    +0.000 C 
ATOM      4  C   UNL     1      -2.609  10.388  16.662  0.00  0.00    +0.000 A 
ATOM      5  C   UNL     1      -1.341   9.954  17.018  0.00  0.00    +0.000 A 
ATOM      6  C   UNL     1      -0.781  10.275  18.264  0.00  0.00    +0.000 A 
ATOM      7  C   UNL     1       0.481   9.768  18.656  0.00  0.00    +0.000 A 
ATOM      8  N   UNL     1       1.273   9.071  17.708  0.00  0.00    +0.000 N 
ATOM      9  N   UNL     1       1.015   9.974  19.877  0.00  0.00    +0.000 NA
ATOM     10  C   UNL     1       0.339  10.763  20.720  0.00  0.00    +0.000 A 
ATOM     11  C   UNL     1      -0.867  11.359  20.396  0.00  0.00    +0.000 A 
ATOM     12  C   UNL     1      -1.517  11.091  19.164  0.00  0.00    +0.000 A 
ATOM     13  H   UNL     1       1.632   9.744  17.042  0.00  0.00    +0.000 HD
ENDROOT
BRANCH   1  21
ATOM     14  C   UNL     1      -7.551  16.563  23.583  0.00  0.00    +0.000 C 
ATOM     15  N   UNL     1      -7.694  15.139  23.791  0.00  0.00    +0.000 N 
ATOM     16  C   UNL     1      -6.977  14.375  22.880  0.00  0.00    +0.000 A 
ATOM     17  N   UNL     1      -7.541  13.218  22.516  0.00  0.00    +0.000 NA
ATOM     18  C   UNL     1      -6.871  12.482  21.609  0.00  0.00    +0.000 A 
ATOM     19  C   UNL     1      -5.658  12.858  21.053  0.00  0.00    +0.000 A 
ATOM     20  C   UNL     1      -4.948  12.094  20.100  0.00  0.00    +0.000 A 
ATOM     21  C   UNL     1      -3.639  12.433  19.721  0.00  0.00    +0.000 A 
ATOM     22  C   UNL     1      -3.120  13.614  20.279  0.00  0.00    +0.000 A 
ATOM     23  C   UNL     1      -3.888  14.436  21.111  0.00  0.00    +0.000 A 
ATOM     24  C   UNL     1      -5.146  14.056  21.534  0.00  0.00    +0.000 A 
ATOM     25  N   UNL     1      -5.803  14.819  22.412  0.00  0.00    +0.000 NA
ATOM     26  H   UNL     1      -8.642  14.783  23.771  0.00  0.00    +0.000 HD
ENDBRANCH   1  21
BRANCH   8  27
ATOM     27  C   UNL     1       2.179   8.028  17.992  0.00  0.00    +0.000 A 
ATOM     28  C   UNL     1       3.457   8.039  17.388  0.00  0.00    +0.000 A 
ATOM     29  C   UNL     1       4.322   6.944  17.491  0.00  0.00    +0.000 A 
ATOM     30  C   UNL     1       3.887   5.840  18.196  0.00  0.00    +0.000 A 
ATOM     31  C   UNL     1       2.660   5.862  18.848  0.00  0.00    +0.000 A 
ATOM     32  C   UNL     1       1.781   6.913  18.746  0.00  0.00    +0.000 A 
ATOM     33  N   UNL     1       2.516   4.714  19.621  0.00  0.00    +0.000 N 
ATOM     34  C   UNL     1       3.659   3.921  19.559  0.00  0.00    +0.000 C 
ATOM     35  O   UNL     1       3.871   2.922  20.223  0.00  0.00    +0.000 OA
ATOM     36  C   UNL     1       4.543   4.495  18.421  0.00  0.00    +0.000 C 
ATOM     37  C   UNL     1       4.323   3.587  17.202  0.00  0.00    +0.000 C 
ATOM     38  C   UNL     1       6.019   4.602  18.776  0.00  0.00    +0.000 C 
ATOM     39  H   UNL     1       1.752   4.530  20.252  0.00  0.00    +0.000 HD
ENDBRANCH   8  27
TORSDOF 2
ENDMDL
MODEL 3
REMARK VINA RESULT:      -9.3      0.780      1.442
REMARK  Name = 
REMARK  6 active torsions:
REMARK  status: ('A' for Active; 'I' for Inactive)
REMARK    1  A    between atoms: C_1  and  N_2
REMARK    2  A    between atoms: C_8  and  C_9
REMARK    3  A    between atoms: C_10  and  C_11
REMARK    4  A    between atoms: N_16  and  C_17
REMARK    5  A    between atoms: C_26  and  C_27
REMARK    6  A    between atoms: C_26  and  C_28
REMARK                            x       y       z     vdW  Elec       q    Type
REMARK                         _______ _______ _______ _____ _____    ______ ____
ROOT
ATOM      1  C   UNL     1      -2.455  12.031  19.614  0.00  0.00    +0.000 A 
ATOM      2  C   UNL     1      -3.267  11.552  18.542  0.00  0.00    +0.000 A 
ATOM      3  C   UNL     1      -4.722  11.899  18.308  0.00  0.00    +0.000 C 
ATOM      4  C   UNL     1      -2.744  10.649  17.612  0.00  0.00    +0.000 A 
ATOM      5  C   UNL     1      -1.448  10.171  17.733  0.00  0.00    +0.000 A 
ATOM      6  C   UNL     1      -0.617  10.566  18.793  0.00  0.00    +0.000 A 
ATOM      7  C   UNL     1       0.677  10.019  18.957  0.00  0.00    +0.000 A 
ATOM      8  N   UNL     1       1.214   9.191  17.938  0.00  0.00    +0.000 N 
ATOM      9  N   UNL     1       1.472  10.299  20.010  0.00  0.00    +0.000 NA
ATOM     10  C   UNL     1       1.029  11.201  20.893  0.00  0.00    +0.000 A 
ATOM     11  C   UNL     1      -0.192  11.840  20.773  0.00  0.00    +0.000 A 
ATOM     12  C   UNL     1      -1.105  11.504  19.742  0.00  0.00    +0.000 A 
ATOM     13  H   UNL     1       1.448   9.777  17.146  0.00  0.00    +0.000 HD
ENDROOT
BRANCH   1  21
ATOM     14  C   UNL     1      -5.030  17.610  25.298  0.00  0.00    +0.000 C 
ATOM     15  N   UNL     1      -5.127  18.004  23.910  0.00  0.00    +0.000 N 
ATOM     16  C   UNL     1      -4.568  17.082  23.036  0.00  0.00    +0.000 A 
ATOM     17  N   UNL     1      -3.979  17.590  21.948  0.00  0.00    +0.000 NA
ATOM     18  C   UNL     1      -3.405  16.708  21.107  0.00  0.00    +0.000 A 
ATOM     19  C   UNL     1      -3.401  15.337  21.311  0.00  0.00    +0.000 A 
ATOM     20  C   UNL     1      -2.802  14.404  20.436  0.00  0.00    +0.000 A 
ATOM     21  C   UNL     1      -2.997  13.022  20.597  0.00  0.00    +0.000 A 
ATOM     22  C   UNL     1      -3.746  12.630  21.719  0.00  0.00    +0.000 A 
ATOM     23  C   UNL     1      -4.213  13.559  22.656  0.00  0.00    +0.000 A 
ATOM     24  C   UNL     1      -4.078  14.917  22.450  0.00  0.00    +0.000 A 
ATOM     25  N   UNL     1      -4.630  15.773  23.315  0.00  0.00    +0.000 NA
ATOM     26  H   UNL     1      -4.713  18.898  23.675  0.00  0.00    +0.000 HD
ENDBRANCH   1  21
BRANCH   8  27
ATOM     27  C   UNL     1       2.115   8.122  18.127  0.00  0.00    +0.000 A 
ATOM     28  C   UNL     1       3.330   8.107  17.405  0.00  0.00    +0.000 A 
ATOM     29  C   UNL     1       4.172   6.990  17.417  0.00  0.00    +0.000 A 
ATOM     30  C   UNL     1       3.778   5.891  18.153  0.00  0.00    +0.000 A 
ATOM     31  C   UNL     1       2.620   5.937  18.919  0.00  0.00    +0.000 A 
ATOM     32  C   UNL     1       1.762   7.011  18.908  0.00  0.00    +0.000 A 
ATOM     33  N   UNL     1       2.519   4.786  19.694  0.00  0.00    +0.000 N 
ATOM     34  C   UNL     1       3.630   3.966  19.519  0.00  0.00    +0.000 C 
ATOM     35  O   UNL     1       3.878   2.955  20.152  0.00  0.00    +0.000 OA
ATOM     36  C   UNL     1       4.417   4.528  18.305  0.00  0.00    +0.000 C 
ATOM     37  C   UNL     1       4.058   3.636  17.106  0.00  0.00    +0.000 C 
ATOM     38  C   UNL     1       5.922   4.593  18.518  0.00  0.00    +0.000 C 
ATOM     39  H   UNL     1       1.815   4.616  20.394  0.00  0.00    +0.000 HD
ENDBRANCH   8  27
TORSDOF 2
ENDMDL
MODEL 4
REMARK VINA RESULT:      -9.1      1.062      1.262
REMARK  Name = 
REMARK  6 active torsions:
REMARK  status: ('A' for Active; 'I' for Inactive)
REMARK    1  A    between atoms: C_1  and  N_2
REMARK    2  A    between atoms: C_8  and  C_9
REMARK    3  A    between atoms: C_10  and  C_11
REMARK    4  A    between atoms: N_16  and  C_17
REMARK    5  A    between atoms: C_26  and  C_27
REMARK    6  A    between atoms: C_26  and  C_28
REMARK                            x       y       z     vdW  Elec       q    Type
REMARK                         _______ _______ _______ _____ _____    ______ ____
ROOT
ATOM      1  C   UNL     1      -1.932  11.728  19.504  0.00  0.00    +0.000 A 
ATOM      2  C   UNL     1      -2.497  11.432  18.227  0.00  0.00    +0.000 A 
ATOM      3  C   UNL     1      -3.753  12.047  17.648  0.00  0.00    +0.000 C 
ATOM      4  C   UNL     1      -1.906  10.471  17.403  0.00  0.00    +0.000 A 
ATOM      5  C   UNL     1      -0.791   9.759  17.822  0.00  0.00    +0.000 A 
ATOM      6  C   UNL     1      -0.221   9.970  19.086  0.00  0.00    +0.000 A 
ATOM      7  C   UNL     1       0.868   9.189  19.542  0.00  0.00    +0.000 A 
ATOM      8  N   UNL     1       1.509   8.301  18.641  0.00  0.00    +0.000 N 
ATOM      9  N   UNL     1       1.387   9.294  20.782  0.00  0.00    +0.000 NA
ATOM     10  C   UNL     1       0.885  10.242  21.582  0.00  0.00    +0.000 A 
ATOM     11  C   UNL     1      -0.131  11.097  21.195  0.00  0.00    +0.000 A 
ATOM     12  C   UNL     1      -0.777  10.959  19.941  0.00  0.00    +0.000 A 
ATOM     13  H   UNL     1       2.044   8.853  17.981  0.00  0.00    +0.000 HD
ENDROOT
BRANCH   1  21
ATOM     14  C   UNL     1      -5.682  17.658  24.070  0.00  0.00    +0.000 C 
ATOM     15  N   UNL     1      -5.629  16.332  24.644  0.00  0.00    +0.000 N 
ATOM     16  C   UNL     1      -5.106  15.378  23.782  0.00  0.00    +0.000 A 
ATOM     17  N   UNL     1      -5.631  14.152  23.878  0.00  0.00    +0.000 NA
ATOM     18  C   UNL     1      -5.155  13.226  23.024  0.00  0.00    +0.000 A 
ATOM     19  C   UNL     1      -4.171  13.478  22.080  0.00  0.00    +0.000 A 
ATOM     20  C   UNL     1      -3.666  12.514  21.180  0.00  0.00    +0.000 A 
ATOM     21  C   UNL     1      -2.540  12.779  20.382  0.00  0.00    +0.000 A 
ATOM     22  C   UNL     1      -2.010  14.076  20.474  0.00  0.00    +0.000 A 
ATOM     23  C   UNL     1      -2.608  15.065  21.264  0.00  0.00    +0.000 A 
ATOM     24  C   UNL     1      -3.669  14.773  22.097  0.00  0.00    +0.000 A 
ATOM     25  N   UNL     1      -4.143  15.718  22.914  0.00  0.00    +0.000 NA
ATOM     26  H   UNL     1      -6.510  15.957  24.974  0.00  0.00    +0.000 HD
ENDBRANCH   1  21
BRANCH   8  27
ATOM     27  C   UNL     1       2.129   7.080  18.981  0.00  0.00    +0.000 A 
ATOM     28  C   UNL     1       3.110   6.540  18.118  0.00  0.00    +0.000 A 
ATOM     29  C   UNL     1       3.623   5.253  18.311  0.00  0.00    +0.000 A 
ATOM     30  C   UNL     1       3.136   4.516  19.372  0.00  0.00    +0.000 A 
ATOM     31  C   UNL     1       2.227   5.078  20.260  0.00  0.00    +0.000 A 
ATOM     32  C   UNL     1       1.688   6.329  20.081  0.00  0.00    +0.000 A 
ATOM     33  N   UNL     1       2.013   4.212  21.328  0.00  0.00    +0.000 N 
ATOM     34  C   UNL     1       2.812   3.078  21.222  0.00  0.00    +0.000 C 
ATOM     35  O   UNL     1       2.930   2.206  22.065  0.00  0.00    +0.000 OA
ATOM     36  C   UNL     1       3.427   3.093  19.797  0.00  0.00    +0.000 C 
ATOM     37  C   UNL     1       2.598   2.108  18.958  0.00  0.00    +0.000 C 
ATOM     38  C   UNL     1       4.908   2.748  19.757  0.00  0.00    +0.000 C 
ATOM     39  H   UNL     1       1.460   4.422  22.145  0.00  0.00    +0.000 HD
ENDBRANCH   8  27
TORSDOF 2
ENDMDL
MODEL 5
REMARK VINA RESULT:      -8.8      1.189      1.605
REMARK  Name = 
REMARK  6 active torsions:
REMARK  status: ('A' for Active; 'I' for Inactive)
REMARK    1  A    between atoms: C_1  and  N_2
REMARK    2  A    between atoms: C_8  and  C_9
REMARK    3  A    between atoms: C_10  and  C_11
REMARK    4  A    between atoms: N_16  and  C_17
REMARK    5  A    between atoms: C_26  and  C_27
REMARK    6  A    between atoms: C_26  and  C_28
REMARK                            x       y       z     vdW  Elec       q    Type
REMARK                         _______ _______ _______ _____ _____    ______ ____
ROOT
ATOM      1  C   UNL     1      -2.234  11.875  19.257  0.00  0.00    +0.000 A 
ATOM      2  C   UNL     1      -3.030  11.427  18.160  0.00  0.00    +0.000 A 
ATOM      3  C   UNL     1      -4.461  11.832  17.878  0.00  0.00    +0.000 C 
ATOM      4  C   UNL     1      -2.514  10.502  17.249  0.00  0.00    +0.000 A 
ATOM      5  C   UNL     1      -1.242   9.972  17.412  0.00  0.00    +0.000 A 
ATOM      6  C   UNL     1      -0.431  10.336  18.497  0.00  0.00    +0.000 A 
ATOM      7  C   UNL     1       0.834   9.737  18.704  0.00  0.00    +0.000 A 
ATOM      8  N   UNL     1       1.370   8.886  17.703  0.00  0.00    +0.000 N 
ATOM      9  N   UNL     1       1.605   9.988  19.782  0.00  0.00    +0.000 NA
ATOM     10  C   UNL     1       1.171  10.909  20.649  0.00  0.00    +0.000 A 
ATOM     11  C   UNL     1      -0.019  11.596  20.489  0.00  0.00    +0.000 A 
ATOM     12  C   UNL     1      -0.911  11.295  19.429  0.00  0.00    +0.000 A 
ATOM     13  H   UNL     1       1.652   9.461  16.919  0.00  0.00    +0.000 HD
ENDROOT
BRANCH   1  21
ATOM     14  C   UNL     1      -5.567  17.646  24.323  0.00  0.00    +0.000 C 
ATOM     15  N   UNL     1      -5.577  16.280  24.798  0.00  0.00    +0.000 N 
ATOM     16  C   UNL     1      -5.123  15.366  23.857  0.00  0.00    +0.000 A 
ATOM     17  N   UNL     1      -5.714  14.166  23.875  0.00  0.00    +0.000 NA
ATOM     18  C   UNL     1      -5.305  13.281  22.945  0.00  0.00    +0.000 A 
ATOM     19  C   UNL     1      -4.326  13.548  22.001  0.00  0.00    +0.000 A 
ATOM     20  C   UNL     1      -3.891  12.628  21.023  0.00  0.00    +0.000 A 
ATOM     21  C   UNL     1      -2.767  12.890  20.221  0.00  0.00    +0.000 A 
ATOM     22  C   UNL     1      -2.164  14.146  20.396  0.00  0.00    +0.000 A 
ATOM     23  C   UNL     1      -2.692  15.105  21.269  0.00  0.00    +0.000 A 
ATOM     24  C   UNL     1      -3.752  14.810  22.102  0.00  0.00    +0.000 A 
ATOM     25  N   UNL     1      -4.159  15.717  22.995  0.00  0.00    +0.000 NA
ATOM     26  H   UNL     1      -6.472  15.930  25.119  0.00  0.00    +0.000 HD
ENDBRANCH   1  21
BRANCH   8  27
ATOM     27  C   UNL     1       2.220   7.782  17.923  0.00  0.00    +0.000 A 
ATOM     28  C   UNL     1       2.158   7.098  19.158  0.00  0.00    +0.000 A 
ATOM     29  C   UNL     1       3.097   6.118  19.498  0.00  0.00    +0.000 A 
ATOM     30  C   UNL     1       4.099   5.840  18.590  0.00  0.00    +0.000 A 
ATOM     31  C   UNL     1       4.114   6.463  17.348  0.00  0.00    +0.000 A 
ATOM     32  C   UNL     1       3.219   7.446  16.997  0.00  0.00    +0.000 A 
ATOM     33  N   UNL     1       5.110   5.906  16.552  0.00  0.00    +0.000 N 
ATOM     34  C   UNL     1       5.749   4.859  17.209  0.00  0.00    +0.000 C 
ATOM     35  O   UNL     1       6.575   4.108  16.721  0.00  0.00    +0.000 OA
ATOM     36  C   UNL     1       5.286   4.907  18.690  0.00  0.00    +0.000 C 
ATOM     37  C   UNL     1       6.423   5.576  19.477  0.00  0.00    +0.000 C 
ATOM     38  C   UNL     1       4.930   3.548  19.273  0.00  0.00    +0.000 C 
ATOM     39  H   UNL     1       5.270   6.127  15.582  0.00  0.00    +0.000 HD
ENDBRANCH   8  27
TORSDOF 2
ENDMDL
MODEL 6
REMARK VINA RESULT:      -8.7      2.205      2.837
REMARK  Name = 
REMARK  6 active torsions:
REMARK  status: ('A' for Active; 'I' for Inactive)
REMARK    1  A    between atoms: C_1  and  N_2
REMARK    2  A    between atoms: C_8  and  C_9
REMARK    3  A    between atoms: C_10  and  C_11
REMARK    4  A    between atoms: N_16  and  C_17
REMARK    5  A    between atoms: C_26  and  C_27
REMARK    6  A    between atoms: C_26  and  C_28
REMARK                            x       y       z     vdW  Elec       q    Type
REMARK                         _______ _______ _______ _____ _____    ______ ____
ROOT
ATOM      1  C   UNL     1      -0.267  12.795  20.760  0.00  0.00    +0.000 A 
ATOM      2  C   UNL     1       0.155  13.241  19.472  0.00  0.00    +0.000 A 
ATOM      3  C   UNL     1      -0.188  14.572  18.837  0.00  0.00    +0.000 C 
ATOM      4  C   UNL     1       0.923  12.406  18.656  0.00  0.00    +0.000 A 
ATOM      5  C   UNL     1       1.256  11.122  19.061  0.00  0.00    +0.000 A 
ATOM      6  C   UNL     1       0.829  10.609  20.295  0.00  0.00    +0.000 A 
ATOM      7  C   UNL     1       1.104   9.273  20.672  0.00  0.00    +0.000 A 
ATOM      8  N   UNL     1       1.976   8.493  19.871  0.00  0.00    +0.000 N 
ATOM      9  N   UNL     1       0.635   8.712  21.805  0.00  0.00    +0.000 NA
ATOM     10  C   UNL     1      -0.059   9.495  22.639  0.00  0.00    +0.000 A 
ATOM     11  C   UNL     1      -0.314  10.831  22.385  0.00  0.00    +0.000 A 
ATOM     12  C   UNL     1       0.069  11.438  21.163  0.00  0.00    +0.000 A 
ATOM     13  H   UNL     1       2.919   8.836  20.005  0.00  0.00    +0.000 HD
ENDROOT
BRANCH   1  21
ATOM     14  C   UNL     1      -4.759  18.135  25.385  0.00  0.00    +0.000 C 
ATOM     15  N   UNL     1      -5.359  16.848  25.110  0.00  0.00    +0.000 N 
ATOM     16  C   UNL     1      -4.614  16.067  24.238  0.00  0.00    +0.000 A 
ATOM     17  N   UNL     1      -5.314  15.285  23.408  0.00  0.00    +0.000 NA
ATOM     18  C   UNL     1      -4.602  14.547  22.535  0.00  0.00    +0.000 A 
ATOM     19  C   UNL     1      -3.218  14.556  22.463  0.00  0.00    +0.000 A 
ATOM     20  C   UNL     1      -2.463  13.786  21.551  0.00  0.00    +0.000 A 
ATOM     21  C   UNL     1      -1.065  13.693  21.655  0.00  0.00    +0.000 A 
ATOM     22  C   UNL     1      -0.467  14.475  22.658  0.00  0.00    +0.000 A 
ATOM     23  C   UNL     1      -1.215  15.343  23.462  0.00  0.00    +0.000 A 
ATOM     24  C   UNL     1      -2.594  15.371  23.399  0.00  0.00    +0.000 A 
ATOM     25  N   UNL     1      -3.275  16.136  24.257  0.00  0.00    +0.000 NA
ATOM     26  H   UNL     1      -6.299  16.871  24.732  0.00  0.00    +0.000 HD
ENDBRANCH   1  21
BRANCH   8  27
ATOM     27  C   UNL     1       1.910   7.095  19.694  0.00  0.00    +0.000 A 
ATOM     28  C   UNL     1       1.559   6.276  20.792  0.00  0.00    +0.000 A 
ATOM     29  C   UNL     1       1.654   4.882  20.722  0.00  0.00    +0.000 A 
ATOM     30  C   UNL     1       2.111   4.323  19.546  0.00  0.00    +0.000 A 
ATOM     31  C   UNL     1       2.385   5.127  18.446  0.00  0.00    +0.000 A 
ATOM     32  C   UNL     1       2.324   6.499  18.493  0.00  0.00    +0.000 A 
ATOM     33  N   UNL     1       2.667   4.333  17.339  0.00  0.00    +0.000 N 
ATOM     34  C   UNL     1       2.531   2.981  17.644  0.00  0.00    +0.000 C 
ATOM     35  O   UNL     1       2.596   2.060  16.849  0.00  0.00    +0.000 OA
ATOM     36  C   UNL     1       2.393   2.880  19.187  0.00  0.00    +0.000 C 
ATOM     37  C   UNL     1       3.772   2.460  19.719  0.00  0.00    +0.000 C 
ATOM     38  C   UNL     1       1.303   1.925  19.650  0.00  0.00    +0.000 C 
ATOM     39  H   UNL     1       2.817   4.673  16.402  0.00  0.00    +0.000 HD
ENDBRANCH   8  27
TORSDOF 2
ENDMDL
MODEL 7
REMARK VINA RESULT:      -8.7      1.376      1.999
REMARK  Name = 
REMARK  6 active torsions:
REMARK  status: ('A' for Active; 'I' for Inactive)
REMARK    1  A    between atoms: C_1  and  N_2
REMARK    2  A    between atoms: C_8  and  C_9
REMARK    3  A    between atoms: C_10  and  C_11
REMARK    4  A    between atoms: N_16  and  C_17
REMARK    5  A    between atoms: C_26  and  C_27
REMARK    6  A    between atoms: C_26  and  C_28
REMARK                            x       y       z     vdW  Elec       q    Type
REMARK                         _______ _______ _______ _____ _____    ______ ____
ROOT
ATOM      1  C   UNL     1      -1.903  11.806  19.886  0.00  0.00    +0.000 A 
ATOM      2  C   UNL     1      -2.475  11.563  18.600  0.00  0.00    +0.000 A 
ATOM      3  C   UNL     1      -3.729  12.207  18.051  0.00  0.00    +0.000 C 
ATOM      4  C   UNL     1      -1.895  10.628  17.739  0.00  0.00    +0.000 A 
ATOM      5  C   UNL     1      -0.784   9.893  18.126  0.00  0.00    +0.000 A 
ATOM      6  C   UNL     1      -0.207  10.052  19.395  0.00  0.00    +0.000 A 
ATOM      7  C   UNL     1       0.879   9.247  19.816  0.00  0.00    +0.000 A 
ATOM      8  N   UNL     1       1.509   8.388  18.879  0.00  0.00    +0.000 N 
ATOM      9  N   UNL     1       1.403   9.302  21.057  0.00  0.00    +0.000 NA
ATOM     10  C   UNL     1       0.912  10.223  21.894  0.00  0.00    +0.000 A 
ATOM     11  C   UNL     1      -0.100  11.099  21.544  0.00  0.00    +0.000 A 
ATOM     12  C   UNL     1      -0.752  11.013  20.288  0.00  0.00    +0.000 A 
ATOM     13  H   UNL     1       2.045   8.960  18.238  0.00  0.00    +0.000 HD
ENDROOT
BRANCH   1  21
ATOM     14  C   UNL     1      -4.821  17.499  25.285  0.00  0.00    +0.000 C 
ATOM     15  N   UNL     1      -4.625  17.937  23.920  0.00  0.00    +0.000 N 
ATOM     16  C   UNL     1      -4.025  16.979  23.115  0.00  0.00    +0.000 A 
ATOM     17  N   UNL     1      -3.199  17.444  22.170  0.00  0.00    +0.000 NA
ATOM     18  C   UNL     1      -2.585  16.523  21.403  0.00  0.00    +0.000 A 
ATOM     19  C   UNL     1      -2.768  15.155  21.542  0.00  0.00    +0.000 A 
ATOM     20  C   UNL     1      -2.129  14.182  20.743  0.00  0.00    +0.000 A 
ATOM     21  C   UNL     1      -2.499  12.828  20.804  0.00  0.00    +0.000 A 
ATOM     22  C   UNL     1      -3.474  12.498  21.760  0.00  0.00    +0.000 A 
ATOM     23  C   UNL     1      -3.996  13.450  22.643  0.00  0.00    +0.000 A 
ATOM     24  C   UNL     1      -3.678  14.788  22.525  0.00  0.00    +0.000 A 
ATOM     25  N   UNL     1      -4.279  15.679  23.319  0.00  0.00    +0.000 NA
ATOM     26  H   UNL     1      -4.081  18.783  23.802  0.00  0.00    +0.000 HD
ENDBRANCH   1  21
BRANCH   8  27
ATOM     27  C   UNL     1       2.121   7.151  19.171  0.00  0.00    +0.000 A 
ATOM     28  C   UNL     1       3.094   6.637  18.284  0.00  0.00    +0.000 A 
ATOM     29  C   UNL     1       3.598   5.339  18.427  0.00  0.00    +0.000 A 
ATOM     30  C   UNL     1       3.110   4.566  19.462  0.00  0.00    +0.000 A 
ATOM     31  C   UNL     1       2.208   5.101  20.374  0.00  0.00    +0.000 A 
ATOM     32  C   UNL     1       1.679   6.363  20.244  0.00  0.00    +0.000 A 
ATOM     33  N   UNL     1       1.992   4.198  21.409  0.00  0.00    +0.000 N 
ATOM     34  C   UNL     1       2.783   3.063  21.257  0.00  0.00    +0.000 C 
ATOM     35  O   UNL     1       2.897   2.159  22.067  0.00  0.00    +0.000 OA
ATOM     36  C   UNL     1       3.392   3.126  19.832  0.00  0.00    +0.000 C 
ATOM     37  C   UNL     1       2.552   2.180  18.959  0.00  0.00    +0.000 C 
ATOM     38  C   UNL     1       4.871   2.772  19.773  0.00  0.00    +0.000 C 
ATOM     39  H   UNL     1       1.445   4.381  22.236  0.00  0.00    +0.000 HD
ENDBRANCH   8  27
TORSDOF 2
ENDMDL
MODEL 8
REMARK VINA RESULT:      -8.7      1.863      2.438
REMARK  Name = 
REMARK  6 active torsions:
REMARK  status: ('A' for Active; 'I' for Inactive)
REMARK    1  A    between atoms: C_1  and  N_2
REMARK    2  A    between atoms: C_8  and  C_9
REMARK    3  A    between atoms: C_10  and  C_11
REMARK    4  A    between atoms: N_16  and  C_17
REMARK    5  A    between atoms: C_26  and  C_27
REMARK    6  A    between atoms: C_26  and  C_28
REMARK                            x       y       z     vdW  Elec       q    Type
REMARK                         _______ _______ _______ _____ _____    ______ ____
ROOT
ATOM      1  C   UNL     1      -0.366  11.982  20.088  0.00  0.00    +0.000 A 
ATOM      2  C   UNL     1       0.167  12.584  18.908  0.00  0.00    +0.000 A 
ATOM      3  C   UNL     1      -0.264  13.908  18.315  0.00  0.00    +0.000 C 
ATOM      4  C   UNL     1       1.149  11.924  18.165  0.00  0.00    +0.000 A 
ATOM      5  C   UNL     1       1.596  10.663  18.533  0.00  0.00    +0.000 A 
ATOM      6  C   UNL     1       1.075  10.000  19.654  0.00  0.00    +0.000 A 
ATOM      7  C   UNL     1       1.476   8.683  19.983  0.00  0.00    +0.000 A 
ATOM      8  N   UNL     1       2.551   8.089  19.273  0.00  0.00    +0.000 N 
ATOM      9  N   UNL     1       0.935   7.975  20.995  0.00  0.00    +0.000 NA
ATOM     10  C   UNL     1       0.030   8.591  21.764  0.00  0.00    +0.000 A 
ATOM     11  C   UNL     1      -0.369   9.900  21.560  0.00  0.00    +0.000 A 
ATOM     12  C   UNL     1       0.094  10.651  20.449  0.00  0.00    +0.000 A 
ATOM     13  H   UNL     1       3.410   8.537  19.569  0.00  0.00    +0.000 HD
ENDROOT
BRANCH   1  21
ATOM     14  C   UNL     1      -6.214  16.257  24.283  0.00  0.00    +0.000 C 
ATOM     15  N   UNL     1      -6.485  14.858  24.033  0.00  0.00    +0.000 N 
ATOM     16  C   UNL     1      -5.533  14.248  23.228  0.00  0.00    +0.000 A 
ATOM     17  N   UNL     1      -5.987  13.302  22.399  0.00  0.00    +0.000 NA
ATOM     18  C   UNL     1      -5.078  12.725  21.590  0.00  0.00    +0.000 A 
ATOM     19  C   UNL     1      -3.732  13.055  21.581  0.00  0.00    +0.000 A 
ATOM     20  C   UNL     1      -2.771  12.456  20.736  0.00  0.00    +0.000 A 
ATOM     21  C   UNL     1      -1.397  12.695  20.908  0.00  0.00    +0.000 A 
ATOM     22  C   UNL     1      -1.052  13.622  21.905  0.00  0.00    +0.000 A 
ATOM     23  C   UNL     1      -2.022  14.314  22.638  0.00  0.00    +0.000 A 
ATOM     24  C   UNL     1      -3.364  14.019  22.511  0.00  0.00    +0.000 A 
ATOM     25  N   UNL     1      -4.250  14.628  23.305  0.00  0.00    +0.000 NA
ATOM     26  H   UNL     1      -7.382  14.651  23.611  0.00  0.00    +0.000 HD
ENDBRANCH   1  21
BRANCH   8  27
ATOM     27  C   UNL     1       2.704   6.713  19.001  0.00  0.00    +0.000 A 
ATOM     28  C   UNL     1       1.851   6.098  18.056  0.00  0.00    +0.000 A 
ATOM     29  C   UNL     1       1.837   4.710  17.880  0.00  0.00    +0.000 A 
ATOM     30  C   UNL     1       2.678   3.950  18.667  0.00  0.00    +0.000 A 
ATOM     31  C   UNL     1       3.566   4.564  19.543  0.00  0.00    +0.000 A 
ATOM     32  C   UNL     1       3.586   5.922  19.752  0.00  0.00    +0.000 A 
ATOM     33  N   UNL     1       4.417   3.613  20.097  0.00  0.00    +0.000 N 
ATOM     34  C   UNL     1       4.168   2.349  19.568  0.00  0.00    +0.000 C 
ATOM     35  O   UNL     1       4.830   1.347  19.772  0.00  0.00    +0.000 OA
ATOM     36  C   UNL     1       2.841   2.449  18.770  0.00  0.00    +0.000 C 
ATOM     37  C   UNL     1       1.747   1.857  19.672  0.00  0.00    +0.000 C 
ATOM     38  C   UNL     1       2.879   1.758  17.415  0.00  0.00    +0.000 C 
ATOM     39  H   UNL     1       5.201   3.813  20.698  0.00  0.00    +0.000 HD
ENDBRANCH   8  27
TORSDOF 2
ENDMDL
MODEL 9
REMARK VINA RESULT:      -8.7      1.384      2.141
REMARK  Name = 
REMARK  6 active torsions:
REMARK  status: ('A' for Active; 'I' for Inactive)
REMARK    1  A    between atoms: C_1  and  N_2
REMARK    2  A    between atoms: C_8  and  C_9
REMARK    3  A    between atoms: C_10  and  C_11
REMARK    4  A    between atoms: N_16  and  C_17
REMARK    5  A    between atoms: C_26  and  C_27
REMARK    6  A    between atoms: C_26  and  C_28
REMARK                            x       y       z     vdW  Elec       q    Type
REMARK                         _______ _______ _______ _____ _____    ______ ____
ROOT
ATOM      1  C   UNL     1      -2.272  11.911  19.475  0.00  0.00    +0.000 A 
ATOM      2  C   UNL     1      -3.054  11.517  18.348  0.00  0.00    +0.000 A 
ATOM      3  C   UNL     1      -4.478  11.944  18.063  0.00  0.00    +0.000 C 
ATOM      4  C   UNL     1      -2.531  10.628  17.405  0.00  0.00    +0.000 A 
ATOM      5  C   UNL     1      -1.266  10.082  17.564  0.00  0.00    +0.000 A 
ATOM      6  C   UNL     1      -0.468  10.393  18.676  0.00  0.00    +0.000 A 
ATOM      7  C   UNL     1       0.790   9.776  18.875  0.00  0.00    +0.000 A 
ATOM      8  N   UNL     1       1.335   8.965  17.846  0.00  0.00    +0.000 N 
ATOM      9  N   UNL     1       1.546   9.974  19.974  0.00  0.00    +0.000 NA
ATOM     10  C   UNL     1       1.105  10.860  20.873  0.00  0.00    +0.000 A 
ATOM     11  C   UNL     1      -0.078  11.563  20.726  0.00  0.00    +0.000 A 
ATOM     12  C   UNL     1      -0.956  11.314  19.641  0.00  0.00    +0.000 A 
ATOM     13  H   UNL     1       1.633   9.571  17.092  0.00  0.00    +0.000 HD
ENDROOT
BRANCH   1  21
ATOM     14  C   UNL     1      -4.850  17.362  25.281  0.00  0.00    +0.000 C 
ATOM     15  N   UNL     1      -4.824  17.832  23.913  0.00  0.00    +0.000 N 
ATOM     16  C   UNL     1      -4.271  16.919  23.027  0.00  0.00    +0.000 A 
ATOM     17  N   UNL     1      -3.575  17.439  22.010  0.00  0.00    +0.000 NA
ATOM     18  C   UNL     1      -3.005  16.562  21.161  0.00  0.00    +0.000 A 
ATOM     19  C   UNL     1      -3.107  15.185  21.288  0.00  0.00    +0.000 A 
ATOM     20  C   UNL     1      -2.514  14.258  20.404  0.00  0.00    +0.000 A 
ATOM     21  C   UNL     1      -2.812  12.887  20.475  0.00  0.00    +0.000 A 
ATOM     22  C   UNL     1      -3.661  12.493  21.522  0.00  0.00    +0.000 A 
ATOM     23  C   UNL     1      -4.128  13.404  22.477  0.00  0.00    +0.000 A 
ATOM     24  C   UNL     1      -3.887  14.758  22.355  0.00  0.00    +0.000 A 
ATOM     25  N   UNL     1      -4.440  15.605  23.229  0.00  0.00    +0.000 NA
ATOM     26  H   UNL     1      -4.337  18.706  23.756  0.00  0.00    +0.000 HD
ENDBRANCH   1  21
BRANCH   8  27
ATOM     27  C   UNL     1       2.174   7.847  18.030  0.00  0.00    +0.000 A 
ATOM     28  C   UNL     1       2.129   7.144  19.256  0.00  0.00    +0.000 A 
ATOM     29  C   UNL     1       3.061   6.146  19.560  0.00  0.00    +0.000 A 
ATOM     30  C   UNL     1       4.040   5.869  18.626  0.00  0.00    +0.000 A 
ATOM     31  C   UNL     1       4.036   6.511  17.394  0.00  0.00    +0.000 A 
ATOM     32  C   UNL     1       3.148   7.511  17.077  0.00  0.00    +0.000 A 
ATOM     33  N   UNL     1       5.007   5.953  16.568  0.00  0.00    +0.000 N 
ATOM     34  C   UNL     1       5.645   4.887  17.194  0.00  0.00    +0.000 C 
ATOM     35  O   UNL     1       6.450   4.133  16.677  0.00  0.00    +0.000 OA
ATOM     36  C   UNL     1       5.215   4.918  18.685  0.00  0.00    +0.000 C 
ATOM     37  C   UNL     1       6.378   5.559  19.458  0.00  0.00    +0.000 C 
ATOM     38  C   UNL     1       4.853   3.554  19.255  0.00  0.00    +0.000 C 
ATOM     39  H   UNL     1       5.149   6.187  15.597  0.00  0.00    +0.000 HD
ENDBRANCH   8  27
TORSDOF 2
ENDMDL
