MODEL 1
REMARK VINA RESULT:      -8.5      0.000      0.000
REMARK  Name = 
REMARK  10 active torsions:
REMARK  status: ('A' for Active; 'I' for Inactive)
REMARK    1  A    between atoms: C_1  and  C_2
REMARK    2  A    between atoms: C_2  and  C_3
REMARK    3  A    between atoms: C_8  and  C_10
REMARK    4  A    between atoms: C_10  and  C_11
REMARK    5  A    between atoms: C_11  and  C_12
REMARK    6  A    between atoms: C_12  and  C_13
REMARK    7  A    between atoms: C_12  and  C_21
REMARK    8  A    between atoms: C_13  and  C_14
REMARK    9  A    between atoms: C_14  and  C_15
REMARK   10  A    between atoms: C_21  and  O_23
REMARK                            x       y       z     vdW  Elec       q    Type
REMARK                         _______ _______ _______ _____ _____    ______ ____
ROOT
ATOM      1  C   UNL     1       2.352   4.898  19.838  0.00  0.00    +0.000 C 
ATOM      2  C   UNL     1       2.366   4.530  21.337  0.00  0.00    +0.000 C 
ATOM      3  C   UNL     1       1.823   3.117  21.419  0.00  0.00    +0.000 C 
ATOM      4  C   UNL     1       0.778   3.048  20.317  0.00  0.00    +0.000 C 
ATOM      5  C   UNL     1       1.112   4.156  19.314  0.00  0.00    +0.000 C 
ENDROOT
BRANCH   1  11
ATOM      6  C   UNL     1       0.708  10.637  20.824  0.00  0.00    +0.000 A 
ATOM      7  N   UNL     1       0.773  10.243  22.079  0.00  0.00    +0.000 NA
ATOM      8  N   UNL     1       1.180   8.927  22.186  0.00  0.00    +0.000 NA
ATOM      9  C   UNL     1       1.428   8.386  21.012  0.00  0.00    +0.000 A 
ATOM     10  N   UNL     1       1.820   7.075  20.873  0.00  0.00    +0.000 N 
ATOM     11  C   UNL     1       2.162   6.440  19.698  0.00  0.00    +0.000 C 
ATOM     12  O   UNL     1       2.262   6.984  18.600  0.00  0.00    +0.000 OA
ATOM     13  S   UNL     1       1.158   9.430  19.693  0.00  0.00    +0.000 S 
ATOM     14  H   UNL     1       1.838   6.572  21.750  0.00  0.00    +0.000 HD
BRANCH   6  16
ATOM     15  C   UNL     1       1.190  12.525  19.272  0.00  0.00    +0.000 C 
ATOM     16  C   UNL     1       0.281  11.994  20.370  0.00  0.00    +0.000 C 
ENDBRANCH   6  16
ENDBRANCH   1  11
BRANCH   1  17
ATOM     17  C   UNL     1       3.682   4.565  19.099  0.00  0.00    +0.000 C 
BRANCH  17  18
ATOM     18  C   UNL     1       3.815   3.503  17.983  0.00  0.00    +0.000 C 
BRANCH  18  19
ATOM     19  C   UNL     1       4.142   2.200  18.721  0.00  0.00    +0.000 C 
ATOM     20  O   UNL     1       3.603   1.130  18.484  0.00  0.00    +0.000 OA
BRANCH  19  21
ATOM     21  O   UNL     1       5.062   2.338  19.699  0.00  0.00    +0.000 OA
ATOM     22  H   UNL     1       5.383   1.507  20.093  0.00  0.00    +0.000 HD
ENDBRANCH  19  21
ENDBRANCH  18  19
BRANCH  18  23
ATOM     23  C   UNL     1       4.918   3.714  16.911  0.00  0.00    +0.000 C 
BRANCH  23  24
ATOM     24  C   UNL     1       5.086   5.225  16.622  0.00  0.00    +0.000 C 
BRANCH  24  25
ATOM     25  C   UNL     1       6.126   6.037  17.355  0.00  0.00    +0.000 A 
ATOM     26  C   UNL     1       6.885   5.389  18.344  0.00  0.00    +0.000 A 
ATOM     27  C   UNL     1       7.967   6.022  18.966  0.00  0.00    +0.000 A 
ATOM     28  C   UNL     1       8.303   7.320  18.603  0.00  0.00    +0.000 A 
ATOM     29  C   UNL     1       7.553   7.983  17.628  0.00  0.00    +0.000 A 
ATOM     30  C   UNL     1       6.470   7.346  17.006  0.00  0.00    +0.000 A 
ENDBRANCH  24  25
ENDBRANCH  23  24
ENDBRANCH  18  23
ENDBRANCH  17  18
ENDBRANCH   1  17
TORSDOF 9
ENDMDL
MODEL 2
REMARK VINA RESULT:      -8.4      2.226      3.094
REMARK  Name = 
REMARK  10 active torsions:
REMARK  status: ('A' for Active; 'I' for Inactive)
REMARK    1  A    between atoms: C_1  and  C_2
REMARK    2  A    between atoms: C_2  and  C_3
REMARK    3  A    between atoms: C_8  and  C_10
REMARK    4  A    between atoms: C_10  and  C_11
REMARK    5  A    between atoms: C_11  and  C_12
REMARK    6  A    between atoms: C_12  and  C_13
REMARK    7  A    between atoms: C_12  and  C_21
REMARK    8  A    between atoms: C_13  and  C_14
REMARK    9  A    between atoms: C_14  and  C_15
REMARK   10  A    between atoms: C_21  and  O_23
REMARK                            x       y       z     vdW  Elec       q    Type
REMARK                         _______ _______ _______ _____ _____    ______ ____
ROOT
ATOM      1  C   UNL     1       2.714   5.281  19.297  0.00  0.00    +0.000 C 
ATOM      2  C   UNL     1       2.052   4.568  20.496  0.00  0.00    +0.000 C 
ATOM      3  C   UNL     1       1.798   3.145  20.040  0.00  0.00    +0.000 C 
ATOM      4  C   UNL     1       1.461   3.275  18.563  0.00  0.00    +0.000 C 
ATOM      5  C   UNL     1       2.045   4.608  18.087  0.00  0.00    +0.000 C 
ENDROOT
BRANCH   1  11
ATOM      6  C   UNL     1       0.515  10.649  21.018  0.00  0.00    +0.000 A 
ATOM      7  N   UNL     1       0.694  10.128  22.214  0.00  0.00    +0.000 NA
ATOM      8  N   UNL     1       1.247   8.863  22.148  0.00  0.00    +0.000 NA
ATOM      9  C   UNL     1       1.485   8.487  20.910  0.00  0.00    +0.000 A 
ATOM     10  N   UNL     1       2.008   7.253  20.601  0.00  0.00    +0.000 N 
ATOM     11  C   UNL     1       2.350   6.796  19.346  0.00  0.00    +0.000 C 
ATOM     12  O   UNL     1       2.329   7.467  18.316  0.00  0.00    +0.000 OA
ATOM     13  S   UNL     1       1.030   9.634  19.734  0.00  0.00    +0.000 S 
ATOM     14  H   UNL     1       2.130   6.662  21.412  0.00  0.00    +0.000 HD
BRANCH   6  16
ATOM     15  C   UNL     1      -1.593  11.908  20.602  0.00  0.00    +0.000 C 
ATOM     16  C   UNL     1      -0.081  11.990  20.744  0.00  0.00    +0.000 C 
ENDBRANCH   6  16
ENDBRANCH   1  11
BRANCH   1  17
ATOM     17  C   UNL     1       4.270   5.216  19.311  0.00  0.00    +0.000 C 
BRANCH  17  18
ATOM     18  C   UNL     1       5.128   4.622  18.169  0.00  0.00    +0.000 C 
BRANCH  18  19
ATOM     19  C   UNL     1       6.576   4.804  18.634  0.00  0.00    +0.000 C 
ATOM     20  O   UNL     1       7.550   4.503  17.960  0.00  0.00    +0.000 OA
BRANCH  19  21
ATOM     21  O   UNL     1       6.694   5.297  19.885  0.00  0.00    +0.000 OA
ATOM     22  H   UNL     1       6.602   6.264  19.964  0.00  0.00    +0.000 HD
ENDBRANCH  19  21
ENDBRANCH  18  19
BRANCH  18  23
ATOM     23  C   UNL     1       5.009   5.271  16.764  0.00  0.00    +0.000 C 
BRANCH  23  24
ATOM     24  C   UNL     1       4.965   4.169  15.678  0.00  0.00    +0.000 C 
BRANCH  24  25
ATOM     25  C   UNL     1       5.903   4.215  14.497  0.00  0.00    +0.000 A 
ATOM     26  C   UNL     1       5.538   3.503  13.342  0.00  0.00    +0.000 A 
ATOM     27  C   UNL     1       6.271   3.612  12.155  0.00  0.00    +0.000 A 
ATOM     28  C   UNL     1       7.386   4.439  12.111  0.00  0.00    +0.000 A 
ATOM     29  C   UNL     1       7.768   5.147  13.253  0.00  0.00    +0.000 A 
ATOM     30  C   UNL     1       7.033   5.038  14.441  0.00  0.00    +0.000 A 
ENDBRANCH  24  25
ENDBRANCH  23  24
ENDBRANCH  18  23
ENDBRANCH  17  18
ENDBRANCH   1  17
TORSDOF 9
ENDMDL
MODEL 3
REMARK VINA RESULT:      -8.2      1.829      2.655
REMARK  Name = 
REMARK  10 active torsions:
REMARK  status: ('A' for Active; 'I' for Inactive)
REMARK    1  A    between atoms: C_1  and  C_2
REMARK    2  A    between atoms: C_2  and  C_3
REMARK    3  A    between atoms: C_8  and  C_10
REMARK    4  A    between atoms: C_10  and  C_11
REMARK    5  A    between atoms: C_11  and  C_12
REMARK    6  A    between atoms: C_12  and  C_13
REMARK    7  A    between atoms: C_12  and  C_21
REMARK    8  A    between atoms: C_13  and  C_14
REMARK    9  A    between atoms: C_14  and  C_15
REMARK   10  A    between atoms: C_21  and  O_23
REMARK                            x       y       z     vdW  Elec       q    Type
REMARK                         _______ _______ _______ _____ _____    ______ ____
ROOT
ATOM      1  C   UNL     1       2.456   5.020  19.715  0.00  0.00    +0.000 C 
ATOM      2  C   UNL     1       2.270   4.554  21.175  0.00  0.00    +0.000 C 
ATOM      3  C   UNL     1       1.787   3.120  21.090  0.00  0.00    +0.000 C 
ATOM      4  C   UNL     1       0.917   3.085  19.845  0.00  0.00    +0.000 C 
ATOM      5  C   UNL     1       1.341   4.268  18.970  0.00  0.00    +0.000 C 
ENDROOT
BRANCH   1  11
ATOM      6  C   UNL     1       0.626  10.655  20.944  0.00  0.00    +0.000 A 
ATOM      7  N   UNL     1       0.701  10.209  22.181  0.00  0.00    +0.000 NA
ATOM      8  N   UNL     1       1.151   8.903  22.231  0.00  0.00    +0.000 NA
ATOM      9  C   UNL     1       1.418   8.422  21.037  0.00  0.00    +0.000 A 
ATOM     10  N   UNL     1       1.852   7.132  20.841  0.00  0.00    +0.000 N 
ATOM     11  C   UNL     1       2.216   6.560  19.641  0.00  0.00    +0.000 C 
ATOM     12  O   UNL     1       2.302   7.154  18.568  0.00  0.00    +0.000 OA
ATOM     13  S   UNL     1       1.118   9.513  19.763  0.00  0.00    +0.000 S 
ATOM     14  H   UNL     1       1.885   6.592  21.696  0.00  0.00    +0.000 HD
BRANCH   6  16
ATOM     15  C   UNL     1      -1.044  11.941  19.616  0.00  0.00    +0.000 C 
ATOM     16  C   UNL     1       0.156  12.016  20.548  0.00  0.00    +0.000 C 
ENDBRANCH   6  16
ENDBRANCH   1  11
BRANCH   1  17
ATOM     17  C   UNL     1       3.893   4.787  19.161  0.00  0.00    +0.000 C 
BRANCH  17  18
ATOM     18  C   UNL     1       4.219   3.914  17.926  0.00  0.00    +0.000 C 
BRANCH  18  19
ATOM     19  C   UNL     1       4.247   2.477  18.461  0.00  0.00    +0.000 C 
ATOM     20  O   UNL     1       3.584   1.564  17.993  0.00  0.00    +0.000 OA
BRANCH  19  21
ATOM     21  O   UNL     1       5.047   2.306  19.534  0.00  0.00    +0.000 OA
ATOM     22  H   UNL     1       5.943   1.976  19.339  0.00  0.00    +0.000 HD
ENDBRANCH  19  21
ENDBRANCH  18  19
BRANCH  18  23
ATOM     23  C   UNL     1       5.568   4.162  17.202  0.00  0.00    +0.000 C 
BRANCH  23  24
ATOM     24  C   UNL     1       5.357   5.133  16.015  0.00  0.00    +0.000 C 
BRANCH  24  25
ATOM     25  C   UNL     1       5.854   4.779  14.634  0.00  0.00    +0.000 A 
ATOM     26  C   UNL     1       7.087   5.312  14.226  0.00  0.00    +0.000 A 
ATOM     27  C   UNL     1       7.692   4.919  13.027  0.00  0.00    +0.000 A 
ATOM     28  C   UNL     1       7.063   3.981  12.218  0.00  0.00    +0.000 A 
ATOM     29  C   UNL     1       5.831   3.448  12.604  0.00  0.00    +0.000 A 
ATOM     30  C   UNL     1       5.228   3.843  13.806  0.00  0.00    +0.000 A 
ENDBRANCH  24  25
ENDBRANCH  23  24
ENDBRANCH  18  23
ENDBRANCH  17  18
ENDBRANCH   1  17
TORSDOF 9
ENDMDL
MODEL 4
REMARK VINA RESULT:      -8.2      3.290      7.620
REMARK  Name = 
REMARK  10 active torsions:
REMARK  status: ('A' for Active; 'I' for Inactive)
REMARK    1  A    between atoms: C_1  and  C_2
REMARK    2  A    between atoms: C_2  and  C_3
REMARK    3  A    between atoms: C_8  and  C_10
REMARK    4  A    between atoms: C_10  and  C_11
REMARK    5  A    between atoms: C_11  and  C_12
REMARK    6  A    between atoms: C_12  and  C_13
REMARK    7  A    between atoms: C_12  and  C_21
REMARK    8  A    between atoms: C_13  and  C_14
REMARK    9  A    between atoms: C_14  and  C_15
REMARK   10  A    between atoms: C_21  and  O_23
REMARK                            x       y       z     vdW  Elec       q    Type
REMARK                         _______ _______ _______ _____ _____    ______ ____
ROOT
ATOM      1  C   UNL     1       2.933   4.407  19.189  0.00  0.00    +0.000 C 
ATOM      2  C   UNL     1       1.455   4.063  18.910  0.00  0.00    +0.000 C 
ATOM      3  C   UNL     1       0.859   3.684  20.251  0.00  0.00    +0.000 C 
ATOM      4  C   UNL     1       1.992   2.986  20.986  0.00  0.00    +0.000 C 
ATOM      5  C   UNL     1       3.298   3.445  20.332  0.00  0.00    +0.000 C 
ENDROOT
BRANCH   1  11
ATOM      6  C   UNL     1       6.792   4.829  14.548  0.00  0.00    +0.000 A 
ATOM      7  N   UNL     1       7.412   5.639  15.381  0.00  0.00    +0.000 NA
ATOM      8  N   UNL     1       6.764   5.721  16.599  0.00  0.00    +0.000 NA
ATOM      9  C   UNL     1       5.695   4.956  16.646  0.00  0.00    +0.000 A 
ATOM     10  N   UNL     1       4.877   4.899  17.751  0.00  0.00    +0.000 N 
ATOM     11  C   UNL     1       3.777   4.084  17.918  0.00  0.00    +0.000 C 
ATOM     12  O   UNL     1       3.417   3.208  17.135  0.00  0.00    +0.000 OA
ATOM     13  S   UNL     1       5.385   4.100  15.205  0.00  0.00    +0.000 S 
ATOM     14  H   UNL     1       5.153   5.541  18.481  0.00  0.00    +0.000 HD
BRANCH   6  16
ATOM     15  C   UNL     1       6.293   3.543  12.474  0.00  0.00    +0.000 C 
ATOM     16  C   UNL     1       7.223   4.541  13.148  0.00  0.00    +0.000 C 
ENDBRANCH   6  16
ENDBRANCH   1  11
BRANCH   1  17
ATOM     17  C   UNL     1       3.179   5.915  19.492  0.00  0.00    +0.000 C 
BRANCH  17  18
ATOM     18  C   UNL     1       2.079   7.002  19.453  0.00  0.00    +0.000 C 
BRANCH  18  19
ATOM     19  C   UNL     1       2.432   7.871  18.242  0.00  0.00    +0.000 C 
ATOM     20  O   UNL     1       1.679   8.701  17.757  0.00  0.00    +0.000 OA
BRANCH  19  21
ATOM     21  O   UNL     1       3.651   7.617  17.719  0.00  0.00    +0.000 OA
ATOM     22  H   UNL     1       4.363   7.471  18.368  0.00  0.00    +0.000 HD
ENDBRANCH  19  21
ENDBRANCH  18  19
BRANCH  18  23
ATOM     23  C   UNL     1       1.953   7.946  20.678  0.00  0.00    +0.000 C 
BRANCH  23  24
ATOM     24  C   UNL     1       0.470   8.061  21.103  0.00  0.00    +0.000 C 
BRANCH  24  25
ATOM     25  C   UNL     1      -0.096   9.380  21.572  0.00  0.00    +0.000 A 
ATOM     26  C   UNL     1      -0.358  10.361  20.603  0.00  0.00    +0.000 A 
ATOM     27  C   UNL     1      -1.018  11.551  20.928  0.00  0.00    +0.000 A 
ATOM     28  C   UNL     1      -1.425  11.773  22.237  0.00  0.00    +0.000 A 
ATOM     29  C   UNL     1      -1.164  10.812  23.216  0.00  0.00    +0.000 A 
ATOM     30  C   UNL     1      -0.503   9.620  22.888  0.00  0.00    +0.000 A 
ENDBRANCH  24  25
ENDBRANCH  23  24
ENDBRANCH  18  23
ENDBRANCH  17  18
ENDBRANCH   1  17
TORSDOF 9
ENDMDL
MODEL 5
REMARK VINA RESULT:      -8.2      2.627      3.768
REMARK  Name = 
REMARK  10 active torsions:
REMARK  status: ('A' for Active; 'I' for Inactive)
REMARK    1  A    between atoms: C_1  and  C_2
REMARK    2  A    between atoms: C_2  and  C_3
REMARK    3  A    between atoms: C_8  and  C_10
REMARK    4  A    between atoms: C_10  and  C_11
REMARK    5  A    between atoms: C_11  and  C_12
REMARK    6  A    between atoms: C_12  and  C_13
REMARK    7  A    between atoms: C_12  and  C_21
REMARK    8  A    between atoms: C_13  and  C_14
REMARK    9  A    between atoms: C_14  and  C_15
REMARK   10  A    between atoms: C_21  and  O_23
REMARK                            x       y       z     vdW  Elec       q    Type
REMARK                         _______ _______ _______ _____ _____    ______ ____
ROOT
ATOM      1  C   UNL     1       3.498   5.844  18.425  0.00  0.00    +0.000 C 
ATOM      2  C   UNL     1       3.763   5.116  19.761  0.00  0.00    +0.000 C 
ATOM      3  C   UNL     1       3.701   3.636  19.443  0.00  0.00    +0.000 C 
ATOM      4  C   UNL     1       2.635   3.524  18.365  0.00  0.00    +0.000 C 
ATOM      5  C   UNL     1       2.512   4.904  17.713  0.00  0.00    +0.000 C 
ENDROOT
BRANCH   1  11
ATOM      6  C   UNL     1       0.093  10.206  20.873  0.00  0.00    +0.000 A 
ATOM      7  N   UNL     1       0.281   9.484  21.958  0.00  0.00    +0.000 NA
ATOM      8  N   UNL     1       1.091   8.390  21.716  0.00  0.00    +0.000 NA
ATOM      9  C   UNL     1       1.500   8.340  20.467  0.00  0.00    +0.000 A 
ATOM     10  N   UNL     1       2.293   7.322  19.991  0.00  0.00    +0.000 N 
ATOM     11  C   UNL     1       2.822   7.217  18.722  0.00  0.00    +0.000 C 
ATOM     12  O   UNL     1       2.743   8.076  17.846  0.00  0.00    +0.000 OA
ATOM     13  S   UNL     1       0.910   9.605  19.489  0.00  0.00    +0.000 S 
ATOM     14  H   UNL     1       2.472   6.605  20.680  0.00  0.00    +0.000 HD
BRANCH   6  16
ATOM     15  C   UNL     1      -1.503  11.511  19.476  0.00  0.00    +0.000 C 
ATOM     16  C   UNL     1      -0.747  11.437  20.794  0.00  0.00    +0.000 C 
ENDBRANCH   6  16
ENDBRANCH   1  11
BRANCH   1  17
ATOM     17  C   UNL     1       4.793   6.171  17.624  0.00  0.00    +0.000 C 
BRANCH  17  18
ATOM     18  C   UNL     1       6.182   5.561  17.925  0.00  0.00    +0.000 C 
BRANCH  18  19
ATOM     19  C   UNL     1       7.162   6.731  17.777  0.00  0.00    +0.000 C 
ATOM     20  O   UNL     1       8.063   6.967  18.568  0.00  0.00    +0.000 OA
BRANCH  19  21
ATOM     21  O   UNL     1       6.923   7.517  16.706  0.00  0.00    +0.000 OA
ATOM     22  H   UNL     1       6.165   8.123  16.792  0.00  0.00    +0.000 HD
ENDBRANCH  19  21
ENDBRANCH  18  19
BRANCH  18  23
ATOM     23  C   UNL     1       6.686   4.419  17.002  0.00  0.00    +0.000 C 
BRANCH  23  24
ATOM     24  C   UNL     1       5.677   4.191  15.851  0.00  0.00    +0.000 C 
BRANCH  24  25
ATOM     25  C   UNL     1       6.124   4.269  14.411  0.00  0.00    +0.000 A 
ATOM     26  C   UNL     1       7.221   5.092  14.110  0.00  0.00    +0.000 A 
ATOM     27  C   UNL     1       7.792   5.108  12.833  0.00  0.00    +0.000 A 
ATOM     28  C   UNL     1       7.268   4.295  11.837  0.00  0.00    +0.000 A 
ATOM     29  C   UNL     1       6.171   3.477  12.116  0.00  0.00    +0.000 A 
ATOM     30  C   UNL     1       5.600   3.461  13.397  0.00  0.00    +0.000 A 
ENDBRANCH  24  25
ENDBRANCH  23  24
ENDBRANCH  18  23
ENDBRANCH  17  18
ENDBRANCH   1  17
TORSDOF 9
ENDMDL
MODEL 6
REMARK VINA RESULT:      -8.2      2.234      3.135
REMARK  Name = 
REMARK  10 active torsions:
REMARK  status: ('A' for Active; 'I' for Inactive)
REMARK    1  A    between atoms: C_1  and  C_2
REMARK    2  A    between atoms: C_2  and  C_3
REMARK    3  A    between atoms: C_8  and  C_10
REMARK    4  A    between atoms: C_10  and  C_11
REMARK    5  A    between atoms: C_11  and  C_12
REMARK    6  A    between atoms: C_12  and  C_13
REMARK    7  A    between atoms: C_12  and  C_21
REMARK    8  A    between atoms: C_13  and  C_14
REMARK    9  A    between atoms: C_14  and  C_15
REMARK   10  A    between atoms: C_21  and  O_23
REMARK                            x       y       z     vdW  Elec       q    Type
REMARK                         _______ _______ _______ _____ _____    ______ ____
ROOT
ATOM      1  C   UNL     1       2.819   5.466  18.940  0.00  0.00    +0.000 C 
ATOM      2  C   UNL     1       2.607   4.741  20.286  0.00  0.00    +0.000 C 
ATOM      3  C   UNL     1       2.313   3.296  19.934  0.00  0.00    +0.000 C 
ATOM      4  C   UNL     1       1.529   3.375  18.634  0.00  0.00    +0.000 C 
ATOM      5  C   UNL     1       1.852   4.730  17.998  0.00  0.00    +0.000 C 
ENDROOT
BRANCH   1  11
ATOM      6  C   UNL     1       0.446  10.613  21.060  0.00  0.00    +0.000 A 
ATOM      7  N   UNL     1       0.677  10.023  22.215  0.00  0.00    +0.000 NA
ATOM      8  N   UNL     1       1.280   8.790  22.054  0.00  0.00    +0.000 NA
ATOM      9  C   UNL     1       1.501   8.506  20.788  0.00  0.00    +0.000 A 
ATOM     10  N   UNL     1       2.066   7.319  20.387  0.00  0.00    +0.000 N 
ATOM     11  C   UNL     1       2.394   6.959  19.097  0.00  0.00    +0.000 C 
ATOM     12  O   UNL     1       2.318   7.693  18.114  0.00  0.00    +0.000 OA
ATOM     13  S   UNL     1       0.968   9.706  19.702  0.00  0.00    +0.000 S 
ATOM     14  H   UNL     1       2.234   6.681  21.154  0.00  0.00    +0.000 HD
BRANCH   6  16
ATOM     15  C   UNL     1      -1.391  11.860  19.931  0.00  0.00    +0.000 C 
ATOM     16  C   UNL     1      -0.213  11.942  20.890  0.00  0.00    +0.000 C 
ENDBRANCH   6  16
ENDBRANCH   1  11
BRANCH   1  17
ATOM     17  C   UNL     1       4.304   5.494  18.471  0.00  0.00    +0.000 C 
BRANCH  17  18
ATOM     18  C   UNL     1       5.192   4.237  18.314  0.00  0.00    +0.000 C 
BRANCH  18  19
ATOM     19  C   UNL     1       6.608   4.715  18.652  0.00  0.00    +0.000 C 
ATOM     20  O   UNL     1       7.589   4.478  17.963  0.00  0.00    +0.000 OA
BRANCH  19  21
ATOM     21  O   UNL     1       6.695   5.399  19.812  0.00  0.00    +0.000 OA
ATOM     22  H   UNL     1       7.402   5.110  20.417  0.00  0.00    +0.000 HD
ENDBRANCH  19  21
ENDBRANCH  18  19
BRANCH  18  23
ATOM     23  C   UNL     1       5.253   3.566  16.916  0.00  0.00    +0.000 C 
BRANCH  23  24
ATOM     24  C   UNL     1       5.016   4.625  15.813  0.00  0.00    +0.000 C 
BRANCH  24  25
ATOM     25  C   UNL     1       5.676   4.489  14.462  0.00  0.00    +0.000 A 
ATOM     26  C   UNL     1       6.924   5.105  14.278  0.00  0.00    +0.000 A 
ATOM     27  C   UNL     1       7.672   4.906  13.112  0.00  0.00    +0.000 A 
ATOM     28  C   UNL     1       7.174   4.083  12.111  0.00  0.00    +0.000 A 
ATOM     29  C   UNL     1       5.930   3.470  12.273  0.00  0.00    +0.000 A 
ATOM     30  C   UNL     1       5.182   3.670  13.442  0.00  0.00    +0.000 A 
ENDBRANCH  24  25
ENDBRANCH  23  24
ENDBRANCH  18  23
ENDBRANCH  17  18
ENDBRANCH   1  17
TORSDOF 9
ENDMDL
MODEL 7
REMARK VINA RESULT:      -8.1      2.489      3.707
REMARK  Name = 
REMARK  10 active torsions:
REMARK  status: ('A' for Active; 'I' for Inactive)
REMARK    1  A    between atoms: C_1  and  C_2
REMARK    2  A    between atoms: C_2  and  C_3
REMARK    3  A    between atoms: C_8  and  C_10
REMARK    4  A    between atoms: C_10  and  C_11
REMARK    5  A    between atoms: C_11  and  C_12
REMARK    6  A    between atoms: C_12  and  C_13
REMARK    7  A    between atoms: C_12  and  C_21
REMARK    8  A    between atoms: C_13  and  C_14
REMARK    9  A    between atoms: C_14  and  C_15
REMARK   10  A    between atoms: C_21  and  O_23
REMARK                            x       y       z     vdW  Elec       q    Type
REMARK                         _______ _______ _______ _____ _____    ______ ____
ROOT
ATOM      1  C   UNL     1       3.977   5.609  18.498  0.00  0.00    +0.000 C 
ATOM      2  C   UNL     1       3.800   4.792  19.795  0.00  0.00    +0.000 C 
ATOM      3  C   UNL     1       3.879   3.337  19.379  0.00  0.00    +0.000 C 
ATOM      4  C   UNL     1       3.234   3.300  18.004  0.00  0.00    +0.000 C 
ATOM      5  C   UNL     1       3.303   4.721  17.439  0.00  0.00    +0.000 C 
ENDROOT
BRANCH   1  11
ATOM      6  C   UNL     1       0.131   9.912  20.315  0.00  0.00    +0.000 A 
ATOM      7  N   UNL     1       0.233   9.259  21.454  0.00  0.00    +0.000 NA
ATOM      8  N   UNL     1       1.113   8.197  21.363  0.00  0.00    +0.000 NA
ATOM      9  C   UNL     1       1.657   8.103  20.169  0.00  0.00    +0.000 A 
ATOM     10  N   UNL     1       2.543   7.104  19.839  0.00  0.00    +0.000 N 
ATOM     11  C   UNL     1       3.210   6.960  18.641  0.00  0.00    +0.000 C 
ATOM     12  O   UNL     1       3.187   7.767  17.714  0.00  0.00    +0.000 OA
ATOM     13  S   UNL     1       1.119   9.283  19.063  0.00  0.00    +0.000 S 
ATOM     14  H   UNL     1       2.678   6.434  20.584  0.00  0.00    +0.000 HD
BRANCH   6  16
ATOM     15  C   UNL     1       0.050  12.385  20.026  0.00  0.00    +0.000 C 
ATOM     16  C   UNL     1      -0.752  11.093  20.077  0.00  0.00    +0.000 C 
ENDBRANCH   6  16
ENDBRANCH   1  11
BRANCH   1  17
ATOM     17  C   UNL     1       5.456   5.990  18.195  0.00  0.00    +0.000 C 
BRANCH  17  18
ATOM     18  C   UNL     1       6.660   5.040  18.398  0.00  0.00    +0.000 C 
BRANCH  18  19
ATOM     19  C   UNL     1       7.681   5.867  19.187  0.00  0.00    +0.000 C 
ATOM     20  O   UNL     1       8.241   6.859  18.744  0.00  0.00    +0.000 OA
BRANCH  19  21
ATOM     21  O   UNL     1       7.947   5.384  20.419  0.00  0.00    +0.000 OA
ATOM     22  H   UNL     1       7.361   5.702  21.129  0.00  0.00    +0.000 HD
ENDBRANCH  19  21
ENDBRANCH  18  19
BRANCH  18  23
ATOM     23  C   UNL     1       7.380   4.504  17.132  0.00  0.00    +0.000 C 
BRANCH  23  24
ATOM     24  C   UNL     1       7.117   5.452  15.937  0.00  0.00    +0.000 C 
BRANCH  24  25
ATOM     25  C   UNL     1       6.790   4.896  14.572  0.00  0.00    +0.000 A 
ATOM     26  C   UNL     1       7.659   5.207  13.514  0.00  0.00    +0.000 A 
ATOM     27  C   UNL     1       7.515   4.615  12.254  0.00  0.00    +0.000 A 
ATOM     28  C   UNL     1       6.493   3.700  12.039  0.00  0.00    +0.000 A 
ATOM     29  C   UNL     1       5.614   3.387  13.078  0.00  0.00    +0.000 A 
ATOM     30  C   UNL     1       5.760   3.980  14.340  0.00  0.00    +0.000 A 
ENDBRANCH  24  25
ENDBRANCH  23  24
ENDBRANCH  18  23
ENDBRANCH  17  18
ENDBRANCH   1  17
TORSDOF 9
ENDMDL
MODEL 8
REMARK VINA RESULT:      -8.1      3.327      7.600
REMARK  Name = 
REMARK  10 active torsions:
REMARK  status: ('A' for Active; 'I' for Inactive)
REMARK    1  A    between atoms: C_1  and  C_2
REMARK    2  A    between atoms: C_2  and  C_3
REMARK    3  A    between atoms: C_8  and  C_10
REMARK    4  A    between atoms: C_10  and  C_11
REMARK    5  A    between atoms: C_11  and  C_12
REMARK    6  A    between atoms: C_12  and  C_13
REMARK    7  A    between atoms: C_12  and  C_21
REMARK    8  A    between atoms: C_13  and  C_14
REMARK    9  A    between atoms: C_14  and  C_15
REMARK   10  A    between atoms: C_21  and  O_23
REMARK                            x       y       z     vdW  Elec       q    Type
REMARK                         _______ _______ _______ _____ _____    ______ ____
ROOT
ATOM      1  C   UNL     1       3.012   4.490  19.162  0.00  0.00    +0.000 C 
ATOM      2  C   UNL     1       1.529   4.174  18.874  0.00  0.00    +0.000 C 
ATOM      3  C   UNL     1       0.901   3.883  20.223  0.00  0.00    +0.000 C 
ATOM      4  C   UNL     1       2.000   3.192  21.012  0.00  0.00    +0.000 C 
ATOM      5  C   UNL     1       3.330   3.579  20.360  0.00  0.00    +0.000 C 
ENDROOT
BRANCH   1  11
ATOM      6  C   UNL     1       6.720   4.645  14.383  0.00  0.00    +0.000 A 
ATOM      7  N   UNL     1       7.256   5.634  15.068  0.00  0.00    +0.000 NA
ATOM      8  N   UNL     1       6.622   5.824  16.281  0.00  0.00    +0.000 NA
ATOM      9  C   UNL     1       5.650   4.959  16.476  0.00  0.00    +0.000 A 
ATOM     10  N   UNL     1       4.863   4.977  17.603  0.00  0.00    +0.000 N 
ATOM     11  C   UNL     1       3.867   4.078  17.925  0.00  0.00    +0.000 C 
ATOM     12  O   UNL     1       3.599   3.060  17.291  0.00  0.00    +0.000 OA
ATOM     13  S   UNL     1       5.418   3.869  15.187  0.00  0.00    +0.000 S 
ATOM     14  H   UNL     1       5.074   5.748  18.222  0.00  0.00    +0.000 HD
BRANCH   6  16
ATOM     15  C   UNL     1       6.044   3.472  12.292  0.00  0.00    +0.000 C 
ATOM     16  C   UNL     1       7.159   4.201  13.027  0.00  0.00    +0.000 C 
ENDBRANCH   6  16
ENDBRANCH   1  11
BRANCH   1  17
ATOM     17  C   UNL     1       3.298   6.004  19.391  0.00  0.00    +0.000 C 
BRANCH  17  18
ATOM     18  C   UNL     1       2.235   7.120  19.261  0.00  0.00    +0.000 C 
BRANCH  18  19
ATOM     19  C   UNL     1       2.637   7.896  18.002  0.00  0.00    +0.000 C 
ATOM     20  O   UNL     1       3.665   7.689  17.375  0.00  0.00    +0.000 OA
BRANCH  19  21
ATOM     21  O   UNL     1       1.768   8.869  17.655  0.00  0.00    +0.000 OA
ATOM     22  H   UNL     1       0.832   8.685  17.854  0.00  0.00    +0.000 HD
ENDBRANCH  19  21
ENDBRANCH  18  19
BRANCH  18  23
ATOM     23  C   UNL     1       2.120   8.148  20.418  0.00  0.00    +0.000 C 
BRANCH  23  24
ATOM     24  C   UNL     1       0.741   8.010  21.107  0.00  0.00    +0.000 C 
BRANCH  24  25
ATOM     25  C   UNL     1      -0.082   9.234  21.431  0.00  0.00    +0.000 A 
ATOM     26  C   UNL     1      -0.448   9.441  22.771  0.00  0.00    +0.000 A 
ATOM     27  C   UNL     1      -1.080  10.620  23.181  0.00  0.00    +0.000 A 
ATOM     28  C   UNL     1      -1.354  11.612  22.248  0.00  0.00    +0.000 A 
ATOM     29  C   UNL     1      -1.006  11.418  20.909  0.00  0.00    +0.000 A 
ATOM     30  C   UNL     1      -0.372  10.236  20.500  0.00  0.00    +0.000 A 
ENDBRANCH  24  25
ENDBRANCH  23  24
ENDBRANCH  18  23
ENDBRANCH  17  18
ENDBRANCH   1  17
TORSDOF 9
ENDMDL
MODEL 9
REMARK VINA RESULT:      -8.1      2.787      3.869
REMARK  Name = 
REMARK  10 active torsions:
REMARK  status: ('A' for Active; 'I' for Inactive)
REMARK    1  A    between atoms: C_1  and  C_2
REMARK    2  A    between atoms: C_2  and  C_3
REMARK    3  A    between atoms: C_8  and  C_10
REMARK    4  A    between atoms: C_10  and  C_11
REMARK    5  A    between atoms: C_11  and  C_12
REMARK    6  A    between atoms: C_12  and  C_13
REMARK    7  A    between atoms: C_12  and  C_21
REMARK    8  A    between atoms: C_13  and  C_14
REMARK    9  A    between atoms: C_14  and  C_15
REMARK   10  A    between atoms: C_21  and  O_23
REMARK                            x       y       z     vdW  Elec       q    Type
REMARK                         _______ _______ _______ _____ _____    ______ ____
ROOT
ATOM      1  C   UNL     1       3.769   4.824  18.653  0.00  0.00    +0.000 C 
ATOM      2  C   UNL     1       3.763   3.705  19.716  0.00  0.00    +0.000 C 
ATOM      3  C   UNL     1       4.047   2.421  18.963  0.00  0.00    +0.000 C 
ATOM      4  C   UNL     1       3.365   2.611  17.618  0.00  0.00    +0.000 C 
ATOM      5  C   UNL     1       3.199   4.120  17.410  0.00  0.00    +0.000 C 
ENDROOT
BRANCH   1  11
ATOM      6  C   UNL     1       1.061  10.198  19.293  0.00  0.00    +0.000 A 
ATOM      7  N   UNL     1       1.449  10.332  18.041  0.00  0.00    +0.000 NA
ATOM      8  N   UNL     1       2.091   9.199  17.577  0.00  0.00    +0.000 NA
ATOM      9  C   UNL     1       2.144   8.249  18.485  0.00  0.00    +0.000 A 
ATOM     10  N   UNL     1       2.761   7.042  18.254  0.00  0.00    +0.000 N 
ATOM     11  C   UNL     1       2.812   5.966  19.115  0.00  0.00    +0.000 C 
ATOM     12  O   UNL     1       2.222   5.890  20.191  0.00  0.00    +0.000 OA
ATOM     13  S   UNL     1       1.439   8.671  19.978  0.00  0.00    +0.000 S 
ATOM     14  H   UNL     1       3.210   6.994  17.349  0.00  0.00    +0.000 HD
BRANCH   6  16
ATOM     15  C   UNL     1      -1.090  11.399  19.660  0.00  0.00    +0.000 C 
ATOM     16  C   UNL     1       0.360  11.246  20.093  0.00  0.00    +0.000 C 
ENDBRANCH   6  16
ENDBRANCH   1  11
BRANCH   1  17
ATOM     17  C   UNL     1       5.161   5.492  18.453  0.00  0.00    +0.000 C 
BRANCH  17  18
ATOM     18  C   UNL     1       6.507   4.728  18.489  0.00  0.00    +0.000 C 
BRANCH  18  19
ATOM     19  C   UNL     1       7.443   5.627  19.304  0.00  0.00    +0.000 C 
ATOM     20  O   UNL     1       7.764   5.403  20.462  0.00  0.00    +0.000 OA
BRANCH  19  21
ATOM     21  O   UNL     1       7.862   6.727  18.643  0.00  0.00    +0.000 OA
ATOM     22  H   UNL     1       7.158   7.267  18.241  0.00  0.00    +0.000 HD
ENDBRANCH  19  21
ENDBRANCH  18  19
BRANCH  18  23
ATOM     23  C   UNL     1       7.209   4.436  17.137  0.00  0.00    +0.000 C 
BRANCH  23  24
ATOM     24  C   UNL     1       6.401   5.065  15.978  0.00  0.00    +0.000 C 
BRANCH  24  25
ATOM     25  C   UNL     1       6.671   4.667  14.547  0.00  0.00    +0.000 A 
ATOM     26  C   UNL     1       5.816   3.722  13.958  0.00  0.00    +0.000 A 
ATOM     27  C   UNL     1       5.902   3.408  12.597  0.00  0.00    +0.000 A 
ATOM     28  C   UNL     1       6.852   4.041  11.806  0.00  0.00    +0.000 A 
ATOM     29  C   UNL     1       7.717   4.977  12.378  0.00  0.00    +0.000 A 
ATOM     30  C   UNL     1       7.629   5.291  13.741  0.00  0.00    +0.000 A 
ENDBRANCH  24  25
ENDBRANCH  23  24
ENDBRANCH  18  23
ENDBRANCH  17  18
ENDBRANCH   1  17
TORSDOF 9
ENDMDL
