MODEL 1
REMARK VINA RESULT:      -7.8      0.000      0.000
REMARK  Name = 
REMARK  12 active torsions:
REMARK  status: ('A' for Active; 'I' for Inactive)
REMARK    1  A    between atoms: C_1  and  C_2
REMARK    2  A    between atoms: C_2  and  N_3
REMARK    3  A    between atoms: N_3  and  C_4
REMARK    4  A    between atoms: N_3  and  C_6
REMARK    5  A    between atoms: C_4  and  C_5
REMARK    6  A    between atoms: C_6  and  C_7
REMARK    7  A    between atoms: C_7  and  C_8
REMARK    8  A    between atoms: C_8  and  N_9
REMARK    9  A    between atoms: C_10  and  C_12
REMARK   10  A    between atoms: C_20  and  C_21
REMARK   11  A    between atoms: C_21  and  C_22
REMARK   12  A    between atoms: C_21  and  C_23
REMARK                            x       y       z     vdW  Elec       q    Type
REMARK                         _______ _______ _______ _____ _____    ______ ____
ROOT
ATOM      1  C   UNL     1       4.156   6.290  17.447  0.00  0.00    +0.000 A 
ATOM      2  C   UNL     1       3.969   5.426  18.536  0.00  0.00    +0.000 A 
ATOM      3  C   UNL     1       3.129   5.783  19.584  0.00  0.00    +0.000 A 
ATOM      4  C   UNL     1       2.466   7.007  19.553  0.00  0.00    +0.000 A 
ATOM      5  N   UNL     1       1.652   7.337  20.587  0.00  0.00    +0.000 NA
ATOM      6  C   UNL     1       0.984   8.511  20.618  0.00  0.00    +0.000 A 
ATOM      7  C   UNL     1       0.158   8.808  21.702  0.00  0.00    +0.000 A 
ATOM      8  C   UNL     1      -0.535  10.019  21.747  0.00  0.00    +0.000 A 
ATOM      9  C   UNL     1      -0.413  10.952  20.706  0.00  0.00    +0.000 A 
ATOM     10  C   UNL     1       0.421  10.649  19.610  0.00  0.00    +0.000 A 
ATOM     11  C   UNL     1       1.125   9.429  19.563  0.00  0.00    +0.000 A 
ATOM     12  C   UNL     1       1.972   9.085  18.493  0.00  0.00    +0.000 A 
ATOM     13  O   UNL     1       2.112   9.869  17.562  0.00  0.00    +0.000 OA
ATOM     14  N   UNL     1       2.637   7.869  18.497  0.00  0.00    +0.000 N 
ATOM     15  C   UNL     1       3.467   7.524  17.458  0.00  0.00    +0.000 A 
ENDROOT
BRANCH   1  17
ATOM     16  N   UNL     1       5.581   4.612  16.256  0.00  0.00    +0.000 N 
ATOM     17  C   UNL     1       5.086   5.881  16.347  0.00  0.00    +0.000 C 
ATOM     18  O   UNL     1       5.384   6.705  15.493  0.00  0.00    +0.000 OA
ATOM     19  H   UNL     1       5.359   3.904  16.963  0.00  0.00    +0.000 HD
BRANCH  16  20
ATOM     20  C   UNL     1       6.385   4.147  15.147  0.00  0.00    +0.000 C 
BRANCH  20  21
ATOM     21  C   UNL     1       5.471   3.974  13.931  0.00  0.00    +0.000 C 
BRANCH  21  22
ATOM     22  C   UNL     1       6.268   3.708  12.628  0.00  0.00    +0.000 C 
BRANCH  22  23
ATOM     23  N   UNL     1       5.454   3.105  11.540  0.00  0.00    +0.000 NA
BRANCH  23  25
ATOM     24  C   UNL     1       7.112   1.268  10.912  0.00  0.00    +0.000 C 
ATOM     25  C   UNL     1       5.724   1.649  11.425  0.00  0.00    +0.000 C 
ENDBRANCH  23  25
BRANCH  23  26
ATOM     26  C   UNL     1       4.021   3.511  11.620  0.00  0.00    +0.000 C 
ATOM     27  C   UNL     1       3.289   3.600  10.273  0.00  0.00    +0.000 C 
ENDBRANCH  23  26
ENDBRANCH  22  23
ENDBRANCH  21  22
ENDBRANCH  20  21
ENDBRANCH  16  20
ENDBRANCH   1  17
BRANCH   9  28
ATOM     28  C   UNL     1      -1.172  12.266  20.782  0.00  0.00    +0.000 C 
ATOM     29  C   UNL     1      -2.447  12.208  19.932  0.00  0.00    +0.000 C 
ATOM     30  C   UNL     1      -1.501  12.636  22.233  0.00  0.00    +0.000 C 
ENDBRANCH   9  28
TORSDOF 8
ENDMDL
MODEL 2
REMARK VINA RESULT:      -7.8      2.243      4.057
REMARK  Name = 
REMARK  12 active torsions:
REMARK  status: ('A' for Active; 'I' for Inactive)
REMARK    1  A    between atoms: C_1  and  C_2
REMARK    2  A    between atoms: C_2  and  N_3
REMARK    3  A    between atoms: N_3  and  C_4
REMARK    4  A    between atoms: N_3  and  C_6
REMARK    5  A    between atoms: C_4  and  C_5
REMARK    6  A    between atoms: C_6  and  C_7
REMARK    7  A    between atoms: C_7  and  C_8
REMARK    8  A    between atoms: C_8  and  N_9
REMARK    9  A    between atoms: C_10  and  C_12
REMARK   10  A    between atoms: C_20  and  C_21
REMARK   11  A    between atoms: C_21  and  C_22
REMARK   12  A    between atoms: C_21  and  C_23
REMARK                            x       y       z     vdW  Elec       q    Type
REMARK                         _______ _______ _______ _____ _____    ______ ____
ROOT
ATOM      1  C   UNL     1       2.392   7.255  19.136  0.00  0.00    +0.000 A 
ATOM      2  C   UNL     1       2.533   8.001  17.957  0.00  0.00    +0.000 A 
ATOM      3  C   UNL     1       1.952   9.257  17.844  0.00  0.00    +0.000 A 
ATOM      4  C   UNL     1       1.223   9.782  18.908  0.00  0.00    +0.000 A 
ATOM      5  N   UNL     1       0.661  11.010  18.776  0.00  0.00    +0.000 NA
ATOM      6  C   UNL     1      -0.061  11.571  19.770  0.00  0.00    +0.000 A 
ATOM      7  C   UNL     1      -0.621  12.836  19.590  0.00  0.00    +0.000 A 
ATOM      8  C   UNL     1      -1.370  13.425  20.609  0.00  0.00    +0.000 A 
ATOM      9  C   UNL     1      -1.572  12.757  21.827  0.00  0.00    +0.000 A 
ATOM     10  C   UNL     1      -1.003  11.480  22.009  0.00  0.00    +0.000 A 
ATOM     11  C   UNL     1      -0.248  10.880  20.981  0.00  0.00    +0.000 A 
ATOM     12  C   UNL     1       0.334   9.606  21.114  0.00  0.00    +0.000 A 
ATOM     13  O   UNL     1       0.184   8.984  22.159  0.00  0.00    +0.000 OA
ATOM     14  N   UNL     1       1.070   9.066  20.071  0.00  0.00    +0.000 N 
ATOM     15  C   UNL     1       1.641   7.822  20.191  0.00  0.00    +0.000 A 
ENDROOT
BRANCH   1  17
ATOM     16  N   UNL     1       2.433   4.802  18.643  0.00  0.00    +0.000 N 
ATOM     17  C   UNL     1       3.015   5.895  19.214  0.00  0.00    +0.000 C 
ATOM     18  O   UNL     1       4.092   5.775  19.784  0.00  0.00    +0.000 OA
ATOM     19  H   UNL     1       1.526   4.869  18.170  0.00  0.00    +0.000 HD
BRANCH  16  20
ATOM     20  C   UNL     1       3.058   3.498  18.595  0.00  0.00    +0.000 C 
BRANCH  20  21
ATOM     21  C   UNL     1       3.620   3.286  17.187  0.00  0.00    +0.000 C 
BRANCH  21  22
ATOM     22  C   UNL     1       5.035   3.897  17.018  0.00  0.00    +0.000 C 
BRANCH  22  23
ATOM     23  N   UNL     1       5.228   4.617  15.732  0.00  0.00    +0.000 NA
BRANCH  23  25
ATOM     24  C   UNL     1       6.088   6.650  17.015  0.00  0.00    +0.000 C 
ATOM     25  C   UNL     1       5.164   6.087  15.937  0.00  0.00    +0.000 C 
ENDBRANCH  23  25
BRANCH  23  26
ATOM     26  C   UNL     1       6.402   4.102  14.971  0.00  0.00    +0.000 C 
ATOM     27  C   UNL     1       6.165   3.883  13.470  0.00  0.00    +0.000 C 
ENDBRANCH  23  26
ENDBRANCH  22  23
ENDBRANCH  21  22
ENDBRANCH  20  21
ENDBRANCH  16  20
ENDBRANCH   1  17
BRANCH   9  28
ATOM     28  C   UNL     1      -2.398  13.418  22.918  0.00  0.00    +0.000 C 
ATOM     29  C   UNL     1      -3.240  12.378  23.667  0.00  0.00    +0.000 C 
ATOM     30  C   UNL     1      -1.512  14.205  23.889  0.00  0.00    +0.000 C 
ENDBRANCH   9  28
TORSDOF 8
ENDMDL
MODEL 3
REMARK VINA RESULT:      -7.8      2.408      4.117
REMARK  Name = 
REMARK  12 active torsions:
REMARK  status: ('A' for Active; 'I' for Inactive)
REMARK    1  A    between atoms: C_1  and  C_2
REMARK    2  A    between atoms: C_2  and  N_3
REMARK    3  A    between atoms: N_3  and  C_4
REMARK    4  A    between atoms: N_3  and  C_6
REMARK    5  A    between atoms: C_4  and  C_5
REMARK    6  A    between atoms: C_6  and  C_7
REMARK    7  A    between atoms: C_7  and  C_8
REMARK    8  A    between atoms: C_8  and  N_9
REMARK    9  A    between atoms: C_10  and  C_12
REMARK   10  A    between atoms: C_20  and  C_21
REMARK   11  A    between atoms: C_21  and  C_22
REMARK   12  A    between atoms: C_21  and  C_23
REMARK                            x       y       z     vdW  Elec       q    Type
REMARK                         _______ _______ _______ _____ _____    ______ ____
ROOT
ATOM      1  C   UNL     1       2.472   7.307  19.027  0.00  0.00    +0.000 A 
ATOM      2  C   UNL     1       2.565   8.059  17.848  0.00  0.00    +0.000 A 
ATOM      3  C   UNL     1       1.943   9.297  17.748  0.00  0.00    +0.000 A 
ATOM      4  C   UNL     1       1.220   9.798  18.829  0.00  0.00    +0.000 A 
ATOM      5  N   UNL     1       0.618  11.007  18.711  0.00  0.00    +0.000 NA
ATOM      6  C   UNL     1      -0.100  11.545  19.721  0.00  0.00    +0.000 A 
ATOM      7  C   UNL     1      -0.703  12.792  19.555  0.00  0.00    +0.000 A 
ATOM      8  C   UNL     1      -1.448  13.356  20.590  0.00  0.00    +0.000 A 
ATOM      9  C   UNL     1      -1.604  12.681  21.811  0.00  0.00    +0.000 A 
ATOM     10  C   UNL     1      -0.992  11.422  21.978  0.00  0.00    +0.000 A 
ATOM     11  C   UNL     1      -0.241  10.847  20.934  0.00  0.00    +0.000 A 
ATOM     12  C   UNL     1       0.383   9.591  21.052  0.00  0.00    +0.000 A 
ATOM     13  O   UNL     1       0.274   8.963  22.099  0.00  0.00    +0.000 OA
ATOM     14  N   UNL     1       1.114   9.075  19.993  0.00  0.00    +0.000 N 
ATOM     15  C   UNL     1       1.726   7.850  20.099  0.00  0.00    +0.000 A 
ENDROOT
BRANCH   1  17
ATOM     16  N   UNL     1       2.698   4.909  18.350  0.00  0.00    +0.000 N 
ATOM     17  C   UNL     1       3.138   5.968  19.090  0.00  0.00    +0.000 C 
ATOM     18  O   UNL     1       4.121   5.834  19.806  0.00  0.00    +0.000 OA
ATOM     19  H   UNL     1       1.870   4.987  17.750  0.00  0.00    +0.000 HD
BRANCH  16  20
ATOM     20  C   UNL     1       3.383   3.636  18.293  0.00  0.00    +0.000 C 
BRANCH  20  21
ATOM     21  C   UNL     1       3.962   3.464  16.886  0.00  0.00    +0.000 C 
BRANCH  21  22
ATOM     22  C   UNL     1       4.884   4.642  16.479  0.00  0.00    +0.000 C 
BRANCH  22  23
ATOM     23  N   UNL     1       6.330   4.302  16.486  0.00  0.00    +0.000 NA
BRANCH  23  25
ATOM     24  C   UNL     1       6.236   4.061  13.946  0.00  0.00    +0.000 C 
ATOM     25  C   UNL     1       6.953   4.619  15.174  0.00  0.00    +0.000 C 
ENDBRANCH  23  25
BRANCH  23  26
ATOM     26  C   UNL     1       7.026   4.829  17.696  0.00  0.00    +0.000 C 
ATOM     27  C   UNL     1       7.286   6.343  17.695  0.00  0.00    +0.000 C 
ENDBRANCH  23  26
ENDBRANCH  22  23
ENDBRANCH  21  22
ENDBRANCH  20  21
ENDBRANCH  16  20
ENDBRANCH   1  17
BRANCH   9  28
ATOM     28  C   UNL     1      -2.428  13.314  22.920  0.00  0.00    +0.000 C 
ATOM     29  C   UNL     1      -3.215  12.247  23.690  0.00  0.00    +0.000 C 
ATOM     30  C   UNL     1      -1.547  14.133  23.870  0.00  0.00    +0.000 C 
ENDBRANCH   9  28
TORSDOF 8
ENDMDL
MODEL 4
REMARK VINA RESULT:      -7.7      3.070      4.574
REMARK  Name = 
REMARK  12 active torsions:
REMARK  status: ('A' for Active; 'I' for Inactive)
REMARK    1  A    between atoms: C_1  and  C_2
REMARK    2  A    between atoms: C_2  and  N_3
REMARK    3  A    between atoms: N_3  and  C_4
REMARK    4  A    between atoms: N_3  and  C_6
REMARK    5  A    between atoms: C_4  and  C_5
REMARK    6  A    between atoms: C_6  and  C_7
REMARK    7  A    between atoms: C_7  and  C_8
REMARK    8  A    between atoms: C_8  and  N_9
REMARK    9  A    between atoms: C_10  and  C_12
REMARK   10  A    between atoms: C_20  and  C_21
REMARK   11  A    between atoms: C_21  and  C_22
REMARK   12  A    between atoms: C_21  and  C_23
REMARK                            x       y       z     vdW  Elec       q    Type
REMARK                         _______ _______ _______ _____ _____    ______ ____
ROOT
ATOM      1  C   UNL     1       2.456   7.225  19.090  0.00  0.00    +0.000 A 
ATOM      2  C   UNL     1       2.317   7.943  17.894  0.00  0.00    +0.000 A 
ATOM      3  C   UNL     1       1.587   9.124  17.860  0.00  0.00    +0.000 A 
ATOM      4  C   UNL     1       0.987   9.601  19.024  0.00  0.00    +0.000 A 
ATOM      5  N   UNL     1       0.276  10.754  18.969  0.00  0.00    +0.000 NA
ATOM      6  C   UNL     1      -0.332  11.266  20.061  0.00  0.00    +0.000 A 
ATOM      7  C   UNL     1      -1.054  12.455  19.958  0.00  0.00    +0.000 A 
ATOM      8  C   UNL     1      -1.688  12.993  21.079  0.00  0.00    +0.000 A 
ATOM      9  C   UNL     1      -1.611  12.347  22.323  0.00  0.00    +0.000 A 
ATOM     10  C   UNL     1      -0.880  11.146  22.426  0.00  0.00    +0.000 A 
ATOM     11  C   UNL     1      -0.240  10.599  21.296  0.00  0.00    +0.000 A 
ATOM     12  C   UNL     1       0.496   9.401  21.349  0.00  0.00    +0.000 A 
ATOM     13  O   UNL     1       0.590   8.801  22.413  0.00  0.00    +0.000 OA
ATOM     14  N   UNL     1       1.108   8.910  20.206  0.00  0.00    +0.000 N 
ATOM     15  C   UNL     1       1.828   7.741  20.247  0.00  0.00    +0.000 A 
ENDROOT
BRANCH   1  17
ATOM     16  N   UNL     1       4.597   5.931  19.047  0.00  0.00    +0.000 N 
ATOM     17  C   UNL     1       3.233   5.945  19.083  0.00  0.00    +0.000 C 
ATOM     18  O   UNL     1       2.623   4.886  19.140  0.00  0.00    +0.000 OA
ATOM     19  H   UNL     1       5.136   6.801  18.987  0.00  0.00    +0.000 HD
BRANCH  16  20
ATOM     20  C   UNL     1       5.386   4.723  19.157  0.00  0.00    +0.000 C 
BRANCH  20  21
ATOM     21  C   UNL     1       6.864   5.118  19.215  0.00  0.00    +0.000 C 
BRANCH  21  22
ATOM     22  C   UNL     1       7.607   4.818  17.887  0.00  0.00    +0.000 C 
BRANCH  22  23
ATOM     23  N   UNL     1       7.434   5.870  16.852  0.00  0.00    +0.000 NA
BRANCH  23  25
ATOM     24  C   UNL     1       5.275   5.943  15.490  0.00  0.00    +0.000 C 
ATOM     25  C   UNL     1       6.667   5.346  15.692  0.00  0.00    +0.000 C 
ENDBRANCH  23  25
BRANCH  23  26
ATOM     26  C   UNL     1       6.961   7.159  17.434  0.00  0.00    +0.000 C 
ATOM     27  C   UNL     1       8.050   8.220  17.648  0.00  0.00    +0.000 C 
ENDBRANCH  23  26
ENDBRANCH  22  23
ENDBRANCH  21  22
ENDBRANCH  20  21
ENDBRANCH  16  20
ENDBRANCH   1  17
BRANCH   9  28
ATOM     28  C   UNL     1      -2.318  12.949  23.527  0.00  0.00    +0.000 C 
ATOM     29  C   UNL     1      -1.720  14.316  23.881  0.00  0.00    +0.000 C 
ATOM     30  C   UNL     1      -3.828  13.059  23.287  0.00  0.00    +0.000 C 
ENDBRANCH   9  28
TORSDOF 8
ENDMDL
MODEL 5
REMARK VINA RESULT:      -7.7      2.629      4.030
REMARK  Name = 
REMARK  12 active torsions:
REMARK  status: ('A' for Active; 'I' for Inactive)
REMARK    1  A    between atoms: C_1  and  C_2
REMARK    2  A    between atoms: C_2  and  N_3
REMARK    3  A    between atoms: N_3  and  C_4
REMARK    4  A    between atoms: N_3  and  C_6
REMARK    5  A    between atoms: C_4  and  C_5
REMARK    6  A    between atoms: C_6  and  C_7
REMARK    7  A    between atoms: C_7  and  C_8
REMARK    8  A    between atoms: C_8  and  N_9
REMARK    9  A    between atoms: C_10  and  C_12
REMARK   10  A    between atoms: C_20  and  C_21
REMARK   11  A    between atoms: C_21  and  C_22
REMARK   12  A    between atoms: C_21  and  C_23
REMARK                            x       y       z     vdW  Elec       q    Type
REMARK                         _______ _______ _______ _____ _____    ______ ____
ROOT
ATOM      1  C   UNL     1       3.083   5.127  18.694  0.00  0.00    +0.000 A 
ATOM      2  C   UNL     1       2.628   4.702  19.950  0.00  0.00    +0.000 A 
ATOM      3  C   UNL     1       1.941   5.574  20.784  0.00  0.00    +0.000 A 
ATOM      4  C   UNL     1       1.699   6.882  20.371  0.00  0.00    +0.000 A 
ATOM      5  N   UNL     1       1.029   7.718  21.202  0.00  0.00    +0.000 NA
ATOM      6  C   UNL     1       0.767   8.999  20.861  0.00  0.00    +0.000 A 
ATOM      7  C   UNL     1       0.075   9.824  21.747  0.00  0.00    +0.000 A 
ATOM      8  C   UNL     1      -0.200  11.149  21.407  0.00  0.00    +0.000 A 
ATOM      9  C   UNL     1       0.215  11.671  20.172  0.00  0.00    +0.000 A 
ATOM     10  C   UNL     1       0.913  10.836  19.276  0.00  0.00    +0.000 A 
ATOM     11  C   UNL     1       1.195   9.498  19.618  0.00  0.00    +0.000 A 
ATOM     12  C   UNL     1       1.892   8.629  18.759  0.00  0.00    +0.000 A 
ATOM     13  O   UNL     1       2.276   9.040  17.671  0.00  0.00    +0.000 OA
ATOM     14  N   UNL     1       2.139   7.320  19.145  0.00  0.00    +0.000 N 
ATOM     15  C   UNL     1       2.820   6.464  18.314  0.00  0.00    +0.000 A 
ENDROOT
BRANCH   1  17
ATOM     16  N   UNL     1       4.443   4.558  16.672  0.00  0.00    +0.000 N 
ATOM     17  C   UNL     1       3.838   4.165  17.830  0.00  0.00    +0.000 C 
ATOM     18  O   UNL     1       3.936   3.001  18.194  0.00  0.00    +0.000 OA
ATOM     19  H   UNL     1       4.369   5.524  16.335  0.00  0.00    +0.000 HD
BRANCH  16  20
ATOM     20  C   UNL     1       5.278   3.689  15.873  0.00  0.00    +0.000 C 
BRANCH  20  21
ATOM     21  C   UNL     1       6.587   4.423  15.572  0.00  0.00    +0.000 C 
BRANCH  21  22
ATOM     22  C   UNL     1       6.488   5.945  15.851  0.00  0.00    +0.000 C 
BRANCH  22  23
ATOM     23  N   UNL     1       7.429   6.426  16.896  0.00  0.00    +0.000 NA
BRANCH  23  25
ATOM     24  C   UNL     1       8.182   8.636  17.930  0.00  0.00    +0.000 C 
ATOM     25  C   UNL     1       7.047   7.784  17.365  0.00  0.00    +0.000 C 
ENDBRANCH  23  25
BRANCH  23  26
ATOM     26  C   UNL     1       7.665   5.400  17.954  0.00  0.00    +0.000 C 
ATOM     27  C   UNL     1       6.766   5.517  19.193  0.00  0.00    +0.000 C 
ENDBRANCH  23  26
ENDBRANCH  22  23
ENDBRANCH  21  22
ENDBRANCH  20  21
ENDBRANCH  16  20
ENDBRANCH   1  17
BRANCH   9  28
ATOM     28  C   UNL     1      -0.090  13.120  19.829  0.00  0.00    +0.000 C 
ATOM     29  C   UNL     1       0.416  13.464  18.423  0.00  0.00    +0.000 C 
ATOM     30  C   UNL     1      -1.587  13.420  19.958  0.00  0.00    +0.000 C 
ENDBRANCH   9  28
TORSDOF 8
ENDMDL
MODEL 6
REMARK VINA RESULT:      -7.6      3.441      5.279
REMARK  Name = 
REMARK  12 active torsions:
REMARK  status: ('A' for Active; 'I' for Inactive)
REMARK    1  A    between atoms: C_1  and  C_2
REMARK    2  A    between atoms: C_2  and  N_3
REMARK    3  A    between atoms: N_3  and  C_4
REMARK    4  A    between atoms: N_3  and  C_6
REMARK    5  A    between atoms: C_4  and  C_5
REMARK    6  A    between atoms: C_6  and  C_7
REMARK    7  A    between atoms: C_7  and  C_8
REMARK    8  A    between atoms: C_8  and  N_9
REMARK    9  A    between atoms: C_10  and  C_12
REMARK   10  A    between atoms: C_20  and  C_21
REMARK   11  A    between atoms: C_21  and  C_22
REMARK   12  A    between atoms: C_21  and  C_23
REMARK                            x       y       z     vdW  Elec       q    Type
REMARK                         _______ _______ _______ _____ _____    ______ ____
ROOT
ATOM      1  C   UNL     1       2.359   7.667  18.916  0.00  0.00    +0.000 A 
ATOM      2  C   UNL     1       2.069   8.393  17.752  0.00  0.00    +0.000 A 
ATOM      3  C   UNL     1       1.236   9.504  17.801  0.00  0.00    +0.000 A 
ATOM      4  C   UNL     1       0.685   9.903  19.017  0.00  0.00    +0.000 A 
ATOM      5  N   UNL     1      -0.127  10.989  19.043  0.00  0.00    +0.000 NA
ATOM      6  C   UNL     1      -0.695  11.423  20.189  0.00  0.00    +0.000 A 
ATOM      7  C   UNL     1      -1.524  12.544  20.169  0.00  0.00    +0.000 A 
ATOM      8  C   UNL     1      -2.119  13.001  21.346  0.00  0.00    +0.000 A 
ATOM      9  C   UNL     1      -1.892  12.342  22.564  0.00  0.00    +0.000 A 
ATOM     10  C   UNL     1      -1.053  11.210  22.584  0.00  0.00    +0.000 A 
ATOM     11  C   UNL     1      -0.453  10.744  21.396  0.00  0.00    +0.000 A 
ATOM     12  C   UNL     1       0.388   9.616  21.366  0.00  0.00    +0.000 A 
ATOM     13  O   UNL     1       0.613   9.007  22.404  0.00  0.00    +0.000 OA
ATOM     14  N   UNL     1       0.954   9.204  20.169  0.00  0.00    +0.000 N 
ATOM     15  C   UNL     1       1.776   8.103  20.128  0.00  0.00    +0.000 A 
ENDROOT
BRANCH   1  17
ATOM     16  N   UNL     1       3.538   5.879  17.623  0.00  0.00    +0.000 N 
ATOM     17  C   UNL     1       3.243   6.463  18.820  0.00  0.00    +0.000 C 
ATOM     18  O   UNL     1       3.735   6.012  19.846  0.00  0.00    +0.000 OA
ATOM     19  H   UNL     1       3.132   6.227  16.748  0.00  0.00    +0.000 HD
BRANCH  16  20
ATOM     20  C   UNL     1       4.479   4.790  17.476  0.00  0.00    +0.000 C 
BRANCH  20  21
ATOM     21  C   UNL     1       3.716   3.560  16.978  0.00  0.00    +0.000 C 
BRANCH  21  22
ATOM     22  C   UNL     1       3.394   2.562  18.120  0.00  0.00    +0.000 C 
BRANCH  22  23
ATOM     23  N   UNL     1       2.779   3.195  19.315  0.00  0.00    +0.000 NA
BRANCH  23  25
ATOM     24  C   UNL     1       0.565   2.106  18.657  0.00  0.00    +0.000 C 
ATOM     25  C   UNL     1       1.312   3.351  19.132  0.00  0.00    +0.000 C 
ENDBRANCH  23  25
BRANCH  23  26
ATOM     26  C   UNL     1       3.226   2.552  20.584  0.00  0.00    +0.000 C 
ATOM     27  C   UNL     1       2.314   2.791  21.796  0.00  0.00    +0.000 C 
ENDBRANCH  23  26
ENDBRANCH  22  23
ENDBRANCH  21  22
ENDBRANCH  20  21
ENDBRANCH  16  20
ENDBRANCH   1  17
BRANCH   9  28
ATOM     28  C   UNL     1      -2.558  12.855  23.831  0.00  0.00    +0.000 C 
ATOM     29  C   UNL     1      -2.273  14.348  24.029  0.00  0.00    +0.000 C 
ATOM     30  C   UNL     1      -4.067  12.585  23.815  0.00  0.00    +0.000 C 
ENDBRANCH   9  28
TORSDOF 8
ENDMDL
MODEL 7
REMARK VINA RESULT:      -7.6      2.496      4.269
REMARK  Name = 
REMARK  12 active torsions:
REMARK  status: ('A' for Active; 'I' for Inactive)
REMARK    1  A    between atoms: C_1  and  C_2
REMARK    2  A    between atoms: C_2  and  N_3
REMARK    3  A    between atoms: N_3  and  C_4
REMARK    4  A    between atoms: N_3  and  C_6
REMARK    5  A    between atoms: C_4  and  C_5
REMARK    6  A    between atoms: C_6  and  C_7
REMARK    7  A    between atoms: C_7  and  C_8
REMARK    8  A    between atoms: C_8  and  N_9
REMARK    9  A    between atoms: C_10  and  C_12
REMARK   10  A    between atoms: C_20  and  C_21
REMARK   11  A    between atoms: C_21  and  C_22
REMARK   12  A    between atoms: C_21  and  C_23
REMARK                            x       y       z     vdW  Elec       q    Type
REMARK                         _______ _______ _______ _____ _____    ______ ____
ROOT
ATOM      1  C   UNL     1       2.264   7.292  19.357  0.00  0.00    +0.000 A 
ATOM      2  C   UNL     1       2.216   7.977  18.135  0.00  0.00    +0.000 A 
ATOM      3  C   UNL     1       1.574   9.205  18.038  0.00  0.00    +0.000 A 
ATOM      4  C   UNL     1       0.973   9.763  19.164  0.00  0.00    +0.000 A 
ATOM      5  N   UNL     1       0.349  10.962  19.047  0.00  0.00    +0.000 NA
ATOM      6  C   UNL     1      -0.256  11.552  20.101  0.00  0.00    +0.000 A 
ATOM      7  C   UNL     1      -0.886  12.786  19.935  0.00  0.00    +0.000 A 
ATOM      8  C   UNL     1      -1.516  13.405  21.016  0.00  0.00    +0.000 A 
ATOM      9  C   UNL     1      -1.526  12.798  22.281  0.00  0.00    +0.000 A 
ATOM     10  C   UNL     1      -0.887  11.553  22.448  0.00  0.00    +0.000 A 
ATOM     11  C   UNL     1      -0.252  10.923  21.359  0.00  0.00    +0.000 A 
ATOM     12  C   UNL     1       0.393   9.679  21.476  0.00  0.00    +0.000 A 
ATOM     13  O   UNL     1       0.409   9.110  22.561  0.00  0.00    +0.000 OA
ATOM     14  N   UNL     1       1.005   9.106  20.371  0.00  0.00    +0.000 N 
ATOM     15  C   UNL     1       1.638   7.891  20.475  0.00  0.00    +0.000 A 
ENDROOT
BRANCH   1  17
ATOM     16  N   UNL     1       3.891   5.593  18.505  0.00  0.00    +0.000 N 
ATOM     17  C   UNL     1       2.947   5.961  19.418  0.00  0.00    +0.000 C 
ATOM     18  O   UNL     1       2.665   5.198  20.332  0.00  0.00    +0.000 OA
ATOM     19  H   UNL     1       4.139   6.206  17.721  0.00  0.00    +0.000 HD
BRANCH  16  20
ATOM     20  C   UNL     1       4.655   4.369  18.596  0.00  0.00    +0.000 C 
BRANCH  20  21
ATOM     21  C   UNL     1       5.162   4.013  17.196  0.00  0.00    +0.000 C 
BRANCH  21  22
ATOM     22  C   UNL     1       5.097   5.216  16.221  0.00  0.00    +0.000 C 
BRANCH  22  23
ATOM     23  N   UNL     1       6.429   5.716  15.794  0.00  0.00    +0.000 NA
BRANCH  23  25
ATOM     24  C   UNL     1       7.399   7.320  17.528  0.00  0.00    +0.000 C 
ATOM     25  C   UNL     1       7.323   5.901  16.967  0.00  0.00    +0.000 C 
ENDBRANCH  23  25
BRANCH  23  26
ATOM     26  C   UNL     1       6.984   4.932  14.652  0.00  0.00    +0.000 C 
ATOM     27  C   UNL     1       5.979   4.021  13.934  0.00  0.00    +0.000 C 
ENDBRANCH  23  26
ENDBRANCH  22  23
ENDBRANCH  21  22
ENDBRANCH  20  21
ENDBRANCH  16  20
ENDBRANCH   1  17
BRANCH   9  28
ATOM     28  C   UNL     1      -2.226  13.490  23.440  0.00  0.00    +0.000 C 
ATOM     29  C   UNL     1      -1.327  14.569  24.053  0.00  0.00    +0.000 C 
ATOM     30  C   UNL     1      -3.570  14.083  23.003  0.00  0.00    +0.000 C 
ENDBRANCH   9  28
TORSDOF 8
ENDMDL
MODEL 8
REMARK VINA RESULT:      -7.5      0.518      1.475
REMARK  Name = 
REMARK  12 active torsions:
REMARK  status: ('A' for Active; 'I' for Inactive)
REMARK    1  A    between atoms: C_1  and  C_2
REMARK    2  A    between atoms: C_2  and  N_3
REMARK    3  A    between atoms: N_3  and  C_4
REMARK    4  A    between atoms: N_3  and  C_6
REMARK    5  A    between atoms: C_4  and  C_5
REMARK    6  A    between atoms: C_6  and  C_7
REMARK    7  A    between atoms: C_7  and  C_8
REMARK    8  A    between atoms: C_8  and  N_9
REMARK    9  A    between atoms: C_10  and  C_12
REMARK   10  A    between atoms: C_20  and  C_21
REMARK   11  A    between atoms: C_21  and  C_22
REMARK   12  A    between atoms: C_21  and  C_23
REMARK                            x       y       z     vdW  Elec       q    Type
REMARK                         _______ _______ _______ _____ _____    ______ ____
ROOT
ATOM      1  C   UNL     1       4.192   6.323  17.676  0.00  0.00    +0.000 A 
ATOM      2  C   UNL     1       4.021   5.527  18.817  0.00  0.00    +0.000 A 
ATOM      3  C   UNL     1       3.144   5.913  19.822  0.00  0.00    +0.000 A 
ATOM      4  C   UNL     1       2.426   7.101  19.697  0.00  0.00    +0.000 A 
ATOM      5  N   UNL     1       1.577   7.461  20.692  0.00  0.00    +0.000 NA
ATOM      6  C   UNL     1       0.857   8.602  20.631  0.00  0.00    +0.000 A 
ATOM      7  C   UNL     1      -0.004   8.933  21.677  0.00  0.00    +0.000 A 
ATOM      8  C   UNL     1      -0.752  10.110  21.628  0.00  0.00    +0.000 A 
ATOM      9  C   UNL     1      -0.650  10.976  20.528  0.00  0.00    +0.000 A 
ATOM     10  C   UNL     1       0.219  10.640  19.470  0.00  0.00    +0.000 A 
ATOM     11  C   UNL     1       0.978   9.453  19.519  0.00  0.00    +0.000 A 
ATOM     12  C   UNL     1       1.862   9.078  18.490  0.00  0.00    +0.000 A 
ATOM     13  O   UNL     1       1.986   9.804  17.511  0.00  0.00    +0.000 OA
ATOM     14  N   UNL     1       2.581   7.897  18.588  0.00  0.00    +0.000 N 
ATOM     15  C   UNL     1       3.448   7.523  17.590  0.00  0.00    +0.000 A 
ENDROOT
BRANCH   1  17
ATOM     16  N   UNL     1       5.515   4.576  16.468  0.00  0.00    +0.000 N 
ATOM     17  C   UNL     1       5.161   5.885  16.622  0.00  0.00    +0.000 C 
ATOM     18  O   UNL     1       5.624   6.726  15.863  0.00  0.00    +0.000 OA
ATOM     19  H   UNL     1       5.154   3.851  17.096  0.00  0.00    +0.000 HD
BRANCH  16  20
ATOM     20  C   UNL     1       6.355   4.098  15.392  0.00  0.00    +0.000 C 
BRANCH  20  21
ATOM     21  C   UNL     1       5.534   4.110  14.100  0.00  0.00    +0.000 C 
BRANCH  21  22
ATOM     22  C   UNL     1       6.322   3.537  12.894  0.00  0.00    +0.000 C 
BRANCH  22  23
ATOM     23  N   UNL     1       5.491   2.729  11.964  0.00  0.00    +0.000 NA
BRANCH  23  25
ATOM     24  C   UNL     1       3.322   2.824  10.621  0.00  0.00    +0.000 C 
ATOM     25  C   UNL     1       4.460   3.575  11.309  0.00  0.00    +0.000 C 
ENDBRANCH  23  25
BRANCH  23  26
ATOM     26  C   UNL     1       6.322   1.877  11.064  0.00  0.00    +0.000 C 
ATOM     27  C   UNL     1       6.106   0.364  11.210  0.00  0.00    +0.000 C 
ENDBRANCH  23  26
ENDBRANCH  22  23
ENDBRANCH  21  22
ENDBRANCH  20  21
ENDBRANCH  16  20
ENDBRANCH   1  17
BRANCH   9  28
ATOM     28  C   UNL     1      -1.470  12.256  20.502  0.00  0.00    +0.000 C 
ATOM     29  C   UNL     1      -1.874  12.673  21.921  0.00  0.00    +0.000 C 
ATOM     30  C   UNL     1      -0.713  13.387  19.796  0.00  0.00    +0.000 C 
ENDBRANCH   9  28
TORSDOF 8
ENDMDL
MODEL 9
REMARK VINA RESULT:      -7.5      2.444      3.836
REMARK  Name = 
REMARK  12 active torsions:
REMARK  status: ('A' for Active; 'I' for Inactive)
REMARK    1  A    between atoms: C_1  and  C_2
REMARK    2  A    between atoms: C_2  and  N_3
REMARK    3  A    between atoms: N_3  and  C_4
REMARK    4  A    between atoms: N_3  and  C_6
REMARK    5  A    between atoms: C_4  and  C_5
REMARK    6  A    between atoms: C_6  and  C_7
REMARK    7  A    between atoms: C_7  and  C_8
REMARK    8  A    between atoms: C_8  and  N_9
REMARK    9  A    between atoms: C_10  and  C_12
REMARK   10  A    between atoms: C_20  and  C_21
REMARK   11  A    between atoms: C_21  and  C_22
REMARK   12  A    between atoms: C_21  and  C_23
REMARK                            x       y       z     vdW  Elec       q    Type
REMARK                         _______ _______ _______ _____ _____    ______ ____
ROOT
ATOM      1  C   UNL     1       3.331   5.228  18.399  0.00  0.00    +0.000 A 
ATOM      2  C   UNL     1       2.992   4.754  19.674  0.00  0.00    +0.000 A 
ATOM      3  C   UNL     1       2.292   5.559  20.564  0.00  0.00    +0.000 A 
ATOM      4  C   UNL     1       1.923   6.848  20.188  0.00  0.00    +0.000 A 
ATOM      5  N   UNL     1       1.242   7.619  21.072  0.00  0.00    +0.000 NA
ATOM      6  C   UNL     1       0.859   8.879  20.768  0.00  0.00    +0.000 A 
ATOM      7  C   UNL     1       0.162   9.636  21.710  0.00  0.00    +0.000 A 
ATOM      8  C   UNL     1      -0.237  10.939  21.409  0.00  0.00    +0.000 A 
ATOM      9  C   UNL     1       0.057  11.506  20.159  0.00  0.00    +0.000 A 
ATOM     10  C   UNL     1       0.760  10.739  19.208  0.00  0.00    +0.000 A 
ATOM     11  C   UNL     1       1.167   9.424  19.510  0.00  0.00    +0.000 A 
ATOM     12  C   UNL     1       1.875   8.623  18.595  0.00  0.00    +0.000 A 
ATOM     13  O   UNL     1       2.156   9.076  17.492  0.00  0.00    +0.000 OA
ATOM     14  N   UNL     1       2.248   7.333  18.944  0.00  0.00    +0.000 N 
ATOM     15  C   UNL     1       2.940   6.544  18.058  0.00  0.00    +0.000 A 
ENDROOT
BRANCH   1  17
ATOM     16  N   UNL     1       4.478   4.747  16.228  0.00  0.00    +0.000 N 
ATOM     17  C   UNL     1       4.104   4.339  17.475  0.00  0.00    +0.000 C 
ATOM     18  O   UNL     1       4.429   3.226  17.866  0.00  0.00    +0.000 OA
ATOM     19  H   UNL     1       4.210   5.669  15.868  0.00  0.00    +0.000 HD
BRANCH  16  20
ATOM     20  C   UNL     1       5.323   3.965  15.352  0.00  0.00    +0.000 C 
BRANCH  20  21
ATOM     21  C   UNL     1       6.483   4.850  14.887  0.00  0.00    +0.000 C 
BRANCH  21  22
ATOM     22  C   UNL     1       7.538   5.074  16.001  0.00  0.00    +0.000 C 
BRANCH  22  23
ATOM     23  N   UNL     1       7.037   5.869  17.151  0.00  0.00    +0.000 NA
BRANCH  23  25
ATOM     24  C   UNL     1       6.798   5.334  19.636  0.00  0.00    +0.000 C 
ATOM     25  C   UNL     1       7.703   5.450  18.412  0.00  0.00    +0.000 C 
ENDBRANCH  23  25
BRANCH  23  26
ATOM     26  C   UNL     1       7.025   7.332  16.860  0.00  0.00    +0.000 C 
ATOM     27  C   UNL     1       7.965   8.181  17.729  0.00  0.00    +0.000 C 
ENDBRANCH  23  26
ENDBRANCH  22  23
ENDBRANCH  21  22
ENDBRANCH  20  21
ENDBRANCH  16  20
ENDBRANCH   1  17
BRANCH   9  28
ATOM     28  C   UNL     1      -0.382  12.930  19.859  0.00  0.00    +0.000 C 
ATOM     29  C   UNL     1       0.158  13.391  18.500  0.00  0.00    +0.000 C 
ATOM     30  C   UNL     1      -1.908  13.066  19.914  0.00  0.00    +0.000 C 
ENDBRANCH   9  28
TORSDOF 8
ENDMDL
