MODEL 1
REMARK VINA RESULT:      -7.9      0.000      0.000
REMARK  Name = 
REMARK  5 active torsions:
REMARK  status: ('A' for Active; 'I' for Inactive)
REMARK    1  A    between atoms: C_2  and  C_16
REMARK    2  A    between atoms: N_3  and  C_4
REMARK    3  A    between atoms: C_4  and  C_5
REMARK    4  A    between atoms: C_5  and  C_6
REMARK    5  A    between atoms: C_22  and  O_23
REMARK                            x       y       z     vdW  Elec       q    Type
REMARK                         _______ _______ _______ _____ _____    ______ ____
ROOT
ATOM      1  O   UNL     1       4.718   3.994  15.848  0.00  0.00    +0.000 OA
ATOM      2  C   UNL     1       5.105   4.085  17.008  0.00  0.00    +0.000 C 
ATOM      3  N   UNL     1       4.771   3.183  17.993  0.00  0.00    +0.000 N 
ATOM      4  H   UNL     1       4.934   3.477  18.955  0.00  0.00    +0.000 HD
ENDROOT
BRANCH   2   5
ATOM      5  C   UNL     1       6.005   5.204  17.409  0.00  0.00    +0.000 A 
ATOM      6  C   UNL     1       6.849   5.008  18.513  0.00  0.00    +0.000 A 
ATOM      7  C   UNL     1       7.713   6.027  18.932  0.00  0.00    +0.000 A 
ATOM      8  C   UNL     1       7.749   7.228  18.231  0.00  0.00    +0.000 A 
ATOM      9 CL   UNL     1       8.817   8.483  18.735  0.00  0.00    +0.000 Cl
ATOM     10  C   UNL     1       6.922   7.435  17.126  0.00  0.00    +0.000 A 
ATOM     11  C   UNL     1       6.048   6.428  16.724  0.00  0.00    +0.000 A 
BRANCH  11  12
ATOM     12  O   UNL     1       5.226   6.642  15.648  0.00  0.00    +0.000 OA
ATOM     13  H   UNL     1       4.531   5.963  15.648  0.00  0.00    +0.000 HD
ENDBRANCH  11  12
ENDBRANCH   2   5
BRANCH   3  14
ATOM     14  C   UNL     1       3.870   2.079  17.728  0.00  0.00    +0.000 C 
BRANCH  14  15
ATOM     15  C   UNL     1       2.399   2.497  17.760  0.00  0.00    +0.000 C 
BRANCH  15  16
ATOM     16  C   UNL     1       2.042   3.256  19.000  0.00  0.00    +0.000 A 
ATOM     17  C   UNL     1       1.639   2.707  20.204  0.00  0.00    +0.000 A 
ATOM     18  N   UNL     1       1.391   3.725  21.083  0.00  0.00    +0.000 N 
ATOM     19  C   UNL     1       1.627   4.940  20.485  0.00  0.00    +0.000 A 
ATOM     20  C   UNL     1       1.498   6.236  21.000  0.00  0.00    +0.000 A 
ATOM     21  C   UNL     1       1.818   7.304  20.156  0.00  0.00    +0.000 A 
ATOM     22  C   UNL     1       2.248   7.072  18.853  0.00  0.00    +0.000 A 
ATOM     23 BR   UNL     1       2.682   8.543  17.743  0.00  0.00    +0.000 Br
ATOM     24  C   UNL     1       2.365   5.772  18.346  0.00  0.00    +0.000 A 
ATOM     25  C   UNL     1       2.047   4.679  19.178  0.00  0.00    +0.000 A 
ATOM     26  H   UNL     1       1.076   3.608  22.036  0.00  0.00    +0.000 HD
ENDBRANCH  15  16
ENDBRANCH  14  15
ENDBRANCH   3  14
TORSDOF 5
ENDMDL
MODEL 2
REMARK VINA RESULT:      -7.8      0.912      1.398
REMARK  Name = 
REMARK  5 active torsions:
REMARK  status: ('A' for Active; 'I' for Inactive)
REMARK    1  A    between atoms: C_2  and  C_16
REMARK    2  A    between atoms: N_3  and  C_4
REMARK    3  A    between atoms: C_4  and  C_5
REMARK    4  A    between atoms: C_5  and  C_6
REMARK    5  A    between atoms: C_22  and  O_23
REMARK                            x       y       z     vdW  Elec       q    Type
REMARK                         _______ _______ _______ _____ _____    ______ ____
ROOT
ATOM      1  O   UNL     1       5.070   3.913  15.604  0.00  0.00    +0.000 OA
ATOM      2  C   UNL     1       5.246   4.200  16.783  0.00  0.00    +0.000 C 
ATOM      3  N   UNL     1       4.744   3.459  17.829  0.00  0.00    +0.000 N 
ATOM      4  H   UNL     1       4.736   3.908  18.743  0.00  0.00    +0.000 HD
ENDROOT
BRANCH   2   5
ATOM      5  C   UNL     1       6.061   5.394  17.146  0.00  0.00    +0.000 A 
ATOM      6  C   UNL     1       5.587   6.658  16.761  0.00  0.00    +0.000 A 
ATOM      7  C   UNL     1       6.313   7.812  17.077  0.00  0.00    +0.000 A 
ATOM      8  C   UNL     1       7.499   7.702  17.795  0.00  0.00    +0.000 A 
ATOM      9 CL   UNL     1       8.394   9.119  18.196  0.00  0.00    +0.000 Cl
ATOM     10  C   UNL     1       7.980   6.454  18.193  0.00  0.00    +0.000 A 
ATOM     11  C   UNL     1       7.266   5.305  17.859  0.00  0.00    +0.000 A 
BRANCH  11  12
ATOM     12  O   UNL     1       7.751   4.079  18.238  0.00  0.00    +0.000 OA
ATOM     13  H   UNL     1       7.032   3.429  18.178  0.00  0.00    +0.000 HD
ENDBRANCH  11  12
ENDBRANCH   2   5
BRANCH   3  14
ATOM     14  C   UNL     1       3.905   2.301  17.595  0.00  0.00    +0.000 C 
BRANCH  14  15
ATOM     15  C   UNL     1       2.413   2.617  17.722  0.00  0.00    +0.000 C 
BRANCH  15  16
ATOM     16  C   UNL     1       2.086   3.351  18.985  0.00  0.00    +0.000 A 
ATOM     17  C   UNL     1       1.748   2.777  20.197  0.00  0.00    +0.000 A 
ATOM     18  N   UNL     1       1.507   3.778  21.098  0.00  0.00    +0.000 N 
ATOM     19  C   UNL     1       1.683   5.006  20.506  0.00  0.00    +0.000 A 
ATOM     20  C   UNL     1       1.538   6.292  21.042  0.00  0.00    +0.000 A 
ATOM     21  C   UNL     1       1.791   7.378  20.199  0.00  0.00    +0.000 A 
ATOM     22  C   UNL     1       2.175   7.173  18.877  0.00  0.00    +0.000 A 
ATOM     23 BR   UNL     1       2.521   8.669  17.768  0.00  0.00    +0.000 Br
ATOM     24  C   UNL     1       2.309   5.883  18.349  0.00  0.00    +0.000 A 
ATOM     25  C   UNL     1       2.056   4.772  19.180  0.00  0.00    +0.000 A 
ATOM     26  H   UNL     1       1.234   3.641  22.062  0.00  0.00    +0.000 HD
ENDBRANCH  15  16
ENDBRANCH  14  15
ENDBRANCH   3  14
TORSDOF 5
ENDMDL
MODEL 3
REMARK VINA RESULT:      -7.5      1.502      1.806
REMARK  Name = 
REMARK  5 active torsions:
REMARK  status: ('A' for Active; 'I' for Inactive)
REMARK    1  A    between atoms: C_2  and  C_16
REMARK    2  A    between atoms: N_3  and  C_4
REMARK    3  A    between atoms: C_4  and  C_5
REMARK    4  A    between atoms: C_5  and  C_6
REMARK    5  A    between atoms: C_22  and  O_23
REMARK                            x       y       z     vdW  Elec       q    Type
REMARK                         _______ _______ _______ _____ _____    ______ ____
ROOT
ATOM      1  O   UNL     1       5.518   3.600  19.640  0.00  0.00    +0.000 OA
ATOM      2  C   UNL     1       5.493   4.140  18.540  0.00  0.00    +0.000 C 
ATOM      3  N   UNL     1       4.759   3.665  17.476  0.00  0.00    +0.000 N 
ATOM      4  H   UNL     1       4.996   4.035  16.557  0.00  0.00    +0.000 HD
ENDROOT
BRANCH   2   5
ATOM      5  C   UNL     1       6.266   5.393  18.306  0.00  0.00    +0.000 A 
ATOM      6  C   UNL     1       5.876   6.221  17.242  0.00  0.00    +0.000 A 
ATOM      7  C   UNL     1       6.568   7.409  16.978  0.00  0.00    +0.000 A 
ATOM      8  C   UNL     1       7.634   7.777  17.793  0.00  0.00    +0.000 A 
ATOM      9 CL   UNL     1       8.485   9.242  17.481  0.00  0.00    +0.000 Cl
ATOM     10  C   UNL     1       8.030   6.969  18.860  0.00  0.00    +0.000 A 
ATOM     11  C   UNL     1       7.352   5.777  19.107  0.00  0.00    +0.000 A 
BRANCH  11  12
ATOM     12  O   UNL     1       7.755   4.979  20.147  0.00  0.00    +0.000 OA
ATOM     13  H   UNL     1       8.620   5.292  20.460  0.00  0.00    +0.000 HD
ENDBRANCH  11  12
ENDBRANCH   2   5
BRANCH   3  14
ATOM     14  C   UNL     1       4.001   2.433  17.576  0.00  0.00    +0.000 C 
BRANCH  14  15
ATOM     15  C   UNL     1       2.496   2.674  17.699  0.00  0.00    +0.000 C 
BRANCH  15  16
ATOM     16  C   UNL     1       2.129   3.396  18.958  0.00  0.00    +0.000 A 
ATOM     17  C   UNL     1       1.774   2.810  20.159  0.00  0.00    +0.000 A 
ATOM     18  N   UNL     1       1.497   3.802  21.060  0.00  0.00    +0.000 N 
ATOM     19  C   UNL     1       1.668   5.035  20.479  0.00  0.00    +0.000 A 
ATOM     20  C   UNL     1       1.491   6.316  21.018  0.00  0.00    +0.000 A 
ATOM     21  C   UNL     1       1.747   7.410  20.188  0.00  0.00    +0.000 A 
ATOM     22  C   UNL     1       2.163   7.220  18.873  0.00  0.00    +0.000 A 
ATOM     23 BR   UNL     1       2.510   8.726  17.781  0.00  0.00    +0.000 Br
ATOM     24  C   UNL     1       2.327   5.935  18.342  0.00  0.00    +0.000 A 
ATOM     25  C   UNL     1       2.074   4.815  19.160  0.00  0.00    +0.000 A 
ATOM     26  H   UNL     1       1.205   3.655  22.017  0.00  0.00    +0.000 HD
ENDBRANCH  15  16
ENDBRANCH  14  15
ENDBRANCH   3  14
TORSDOF 5
ENDMDL
MODEL 4
REMARK VINA RESULT:      -7.3      1.007      1.012
REMARK  Name = 
REMARK  5 active torsions:
REMARK  status: ('A' for Active; 'I' for Inactive)
REMARK    1  A    between atoms: C_2  and  C_16
REMARK    2  A    between atoms: N_3  and  C_4
REMARK    3  A    between atoms: C_4  and  C_5
REMARK    4  A    between atoms: C_5  and  C_6
REMARK    5  A    between atoms: C_22  and  O_23
REMARK                            x       y       z     vdW  Elec       q    Type
REMARK                         _______ _______ _______ _____ _____    ______ ____
ROOT
ATOM      1  O   UNL     1       5.391   3.412  19.614  0.00  0.00    +0.000 OA
ATOM      2  C   UNL     1       5.344   3.952  18.514  0.00  0.00    +0.000 C 
ATOM      3  N   UNL     1       4.588   3.479  17.465  0.00  0.00    +0.000 N 
ATOM      4  H   UNL     1       4.807   3.848  16.542  0.00  0.00    +0.000 HD
ENDROOT
BRANCH   2   5
ATOM      5  C   UNL     1       6.116   5.203  18.264  0.00  0.00    +0.000 A 
ATOM      6  C   UNL     1       7.209   5.482  19.099  0.00  0.00    +0.000 A 
ATOM      7  C   UNL     1       7.968   6.643  18.908  0.00  0.00    +0.000 A 
ATOM      8  C   UNL     1       7.645   7.510  17.869  0.00  0.00    +0.000 A 
ATOM      9 CL   UNL     1       8.580   8.936  17.622  0.00  0.00    +0.000 Cl
ATOM     10  C   UNL     1       6.567   7.243  17.024  0.00  0.00    +0.000 A 
ATOM     11  C   UNL     1       5.801   6.098  17.230  0.00  0.00    +0.000 A 
BRANCH  11  12
ATOM     12  O   UNL     1       4.732   5.849  16.408  0.00  0.00    +0.000 OA
ATOM     13  H   UNL     1       4.098   6.580  16.494  0.00  0.00    +0.000 HD
ENDBRANCH  11  12
ENDBRANCH   2   5
BRANCH   3  14
ATOM     14  C   UNL     1       3.830   2.249  17.581  0.00  0.00    +0.000 C 
BRANCH  14  15
ATOM     15  C   UNL     1       2.328   2.493  17.740  0.00  0.00    +0.000 C 
BRANCH  15  16
ATOM     16  C   UNL     1       1.994   3.224  19.004  0.00  0.00    +0.000 A 
ATOM     17  C   UNL     1       1.639   2.647  20.210  0.00  0.00    +0.000 A 
ATOM     18  N   UNL     1       1.398   3.645  21.114  0.00  0.00    +0.000 N 
ATOM     19  C   UNL     1       1.592   4.874  20.530  0.00  0.00    +0.000 A 
ATOM     20  C   UNL     1       1.453   6.158  21.072  0.00  0.00    +0.000 A 
ATOM     21  C   UNL     1       1.726   7.246  20.238  0.00  0.00    +0.000 A 
ATOM     22  C   UNL     1       2.121   7.046  18.918  0.00  0.00    +0.000 A 
ATOM     23 BR   UNL     1       2.492   8.543  17.822  0.00  0.00    +0.000 Br
ATOM     24  C   UNL     1       2.248   5.757  18.385  0.00  0.00    +0.000 A 
ATOM     25  C   UNL     1       1.977   4.644  19.207  0.00  0.00    +0.000 A 
ATOM     26  H   UNL     1       1.114   3.504  22.073  0.00  0.00    +0.000 HD
ENDBRANCH  15  16
ENDBRANCH  14  15
ENDBRANCH   3  14
TORSDOF 5
ENDMDL
MODEL 5
REMARK VINA RESULT:      -7.2      5.279      8.210
REMARK  Name = 
REMARK  5 active torsions:
REMARK  status: ('A' for Active; 'I' for Inactive)
REMARK    1  A    between atoms: C_2  and  C_16
REMARK    2  A    between atoms: N_3  and  C_4
REMARK    3  A    between atoms: C_4  and  C_5
REMARK    4  A    between atoms: C_5  and  C_6
REMARK    5  A    between atoms: C_22  and  O_23
REMARK                            x       y       z     vdW  Elec       q    Type
REMARK                         _______ _______ _______ _____ _____    ______ ____
ROOT
ATOM      1  O   UNL     1       7.769   6.501  16.377  0.00  0.00    +0.000 OA
ATOM      2  C   UNL     1       6.953   6.910  17.196  0.00  0.00    +0.000 C 
ATOM      3  N   UNL     1       7.055   8.128  17.828  0.00  0.00    +0.000 N 
ATOM      4  H   UNL     1       6.475   8.263  18.654  0.00  0.00    +0.000 HD
ENDROOT
BRANCH   2   5
ATOM      5  C   UNL     1       5.760   6.082  17.537  0.00  0.00    +0.000 A 
ATOM      6  C   UNL     1       4.492   6.666  17.399  0.00  0.00    +0.000 A 
ATOM      7  C   UNL     1       3.339   5.934  17.706  0.00  0.00    +0.000 A 
ATOM      8  C   UNL     1       3.457   4.613  18.127  0.00  0.00    +0.000 A 
ATOM      9 CL   UNL     1       2.042   3.702  18.496  0.00  0.00    +0.000 Cl
ATOM     10  C   UNL     1       4.710   4.015  18.260  0.00  0.00    +0.000 A 
ATOM     11  C   UNL     1       5.857   4.753  17.974  0.00  0.00    +0.000 A 
BRANCH  11  12
ATOM     12  O   UNL     1       7.087   4.166  18.123  0.00  0.00    +0.000 OA
ATOM     13  H   UNL     1       6.999   3.410  18.728  0.00  0.00    +0.000 HD
ENDBRANCH  11  12
ENDBRANCH   2   5
BRANCH   3  14
ATOM     14  C   UNL     1       8.193   8.998  17.605  0.00  0.00    +0.000 C 
BRANCH  14  15
ATOM     15  C   UNL     1       8.962   9.307  18.890  0.00  0.00    +0.000 C 
BRANCH  15  16
ATOM     16  C   UNL     1       9.467  10.716  18.935  0.00  0.00    +0.000 A 
ATOM     17  C   UNL     1      10.057  11.404  17.891  0.00  0.00    +0.000 A 
ATOM     18  N   UNL     1      10.393  12.654  18.331  0.00  0.00    +0.000 N 
ATOM     19  C   UNL     1      10.031  12.810  19.648  0.00  0.00    +0.000 A 
ATOM     20  C   UNL     1      10.188  13.911  20.499  0.00  0.00    +0.000 A 
ATOM     21  C   UNL     1       9.714  13.791  21.808  0.00  0.00    +0.000 A 
ATOM     22  C   UNL     1       9.109  12.613  22.237  0.00  0.00    +0.000 A 
ATOM     23 BR   UNL     1       8.469  12.491  24.014  0.00  0.00    +0.000 Br
ATOM     24  C   UNL     1       8.966  11.516  21.380  0.00  0.00    +0.000 A 
ATOM     25  C   UNL     1       9.438  11.613  20.054  0.00  0.00    +0.000 A 
ATOM     26  H   UNL     1      10.846  13.366  17.773  0.00  0.00    +0.000 HD
ENDBRANCH  15  16
ENDBRANCH  14  15
ENDBRANCH   3  14
TORSDOF 5
ENDMDL
MODEL 6
REMARK VINA RESULT:      -7.2      5.677      8.183
REMARK  Name = 
REMARK  5 active torsions:
REMARK  status: ('A' for Active; 'I' for Inactive)
REMARK    1  A    between atoms: C_2  and  C_16
REMARK    2  A    between atoms: N_3  and  C_4
REMARK    3  A    between atoms: C_4  and  C_5
REMARK    4  A    between atoms: C_5  and  C_6
REMARK    5  A    between atoms: C_22  and  O_23
REMARK                            x       y       z     vdW  Elec       q    Type
REMARK                         _______ _______ _______ _____ _____    ______ ____
ROOT
ATOM      1  O   UNL     1       0.477  10.311  19.866  0.00  0.00    +0.000 OA
ATOM      2  C   UNL     1       0.050  10.195  18.723  0.00  0.00    +0.000 C 
ATOM      3  N   UNL     1       0.786   9.668  17.686  0.00  0.00    +0.000 N 
ATOM      4  H   UNL     1       0.436   9.842  16.745  0.00  0.00    +0.000 HD
ENDROOT
BRANCH   2   5
ATOM      5  C   UNL     1      -1.345  10.614  18.403  0.00  0.00    +0.000 A 
ATOM      6  C   UNL     1      -1.984  10.001  17.314  0.00  0.00    +0.000 A 
ATOM      7  C   UNL     1      -3.293  10.357  16.970  0.00  0.00    +0.000 A 
ATOM      8  C   UNL     1      -3.967  11.308  17.729  0.00  0.00    +0.000 A 
ATOM      9 CL   UNL     1      -5.583  11.745  17.317  0.00  0.00    +0.000 Cl
ATOM     10  C   UNL     1      -3.350  11.921  18.820  0.00  0.00    +0.000 A 
ATOM     11  C   UNL     1      -2.039  11.579  19.147  0.00  0.00    +0.000 A 
BRANCH  11  12
ATOM     12  O   UNL     1      -1.430  12.196  20.210  0.00  0.00    +0.000 OA
ATOM     13  H   UNL     1      -0.625  11.701  20.436  0.00  0.00    +0.000 HD
ENDBRANCH  11  12
ENDBRANCH   2   5
BRANCH   3  14
ATOM     14  C   UNL     1       2.166   9.266  17.872  0.00  0.00    +0.000 C 
BRANCH  14  15
ATOM     15  C   UNL     1       2.301   7.980  18.688  0.00  0.00    +0.000 C 
BRANCH  15  16
ATOM     16  C   UNL     1       3.165   6.958  18.014  0.00  0.00    +0.000 A 
ATOM     17  C   UNL     1       4.321   7.213  17.299  0.00  0.00    +0.000 A 
ATOM     18  N   UNL     1       4.810   6.025  16.829  0.00  0.00    +0.000 N 
ATOM     19  C   UNL     1       4.000   4.987  17.223  0.00  0.00    +0.000 A 
ATOM     20  C   UNL     1       4.109   3.614  16.966  0.00  0.00    +0.000 A 
ATOM     21  C   UNL     1       3.131   2.773  17.505  0.00  0.00    +0.000 A 
ATOM     22  C   UNL     1       2.092   3.296  18.269  0.00  0.00    +0.000 A 
ATOM     23 BR   UNL     1       0.791   2.126  18.992  0.00  0.00    +0.000 Br
ATOM     24  C   UNL     1       1.988   4.671  18.512  0.00  0.00    +0.000 A 
ATOM     25  C   UNL     1       2.962   5.539  17.977  0.00  0.00    +0.000 A 
ATOM     26  H   UNL     1       5.644   5.920  16.268  0.00  0.00    +0.000 HD
ENDBRANCH  15  16
ENDBRANCH  14  15
ENDBRANCH   3  14
TORSDOF 5
ENDMDL
MODEL 7
REMARK VINA RESULT:      -7.2      5.774      8.649
REMARK  Name = 
REMARK  5 active torsions:
REMARK  status: ('A' for Active; 'I' for Inactive)
REMARK    1  A    between atoms: C_2  and  C_16
REMARK    2  A    between atoms: N_3  and  C_4
REMARK    3  A    between atoms: C_4  and  C_5
REMARK    4  A    between atoms: C_5  and  C_6
REMARK    5  A    between atoms: C_22  and  O_23
REMARK                            x       y       z     vdW  Elec       q    Type
REMARK                         _______ _______ _______ _____ _____    ______ ____
ROOT
ATOM      1  O   UNL     1       7.558   6.276  19.115  0.00  0.00    +0.000 OA
ATOM      2  C   UNL     1       7.511   6.775  17.996  0.00  0.00    +0.000 C 
ATOM      3  N   UNL     1       8.006   8.025  17.699  0.00  0.00    +0.000 N 
ATOM      4  H   UNL     1       7.701   8.439  16.820  0.00  0.00    +0.000 HD
ENDROOT
BRANCH   2   5
ATOM      5  C   UNL     1       6.913   6.011  16.864  0.00  0.00    +0.000 A 
ATOM      6  C   UNL     1       5.945   6.651  16.075  0.00  0.00    +0.000 A 
ATOM      7  C   UNL     1       5.351   5.980  14.999  0.00  0.00    +0.000 A 
ATOM      8  C   UNL     1       5.743   4.679  14.703  0.00  0.00    +0.000 A 
ATOM      9 CL   UNL     1       5.024   3.848  13.375  0.00  0.00    +0.000 Cl
ATOM     10  C   UNL     1       6.710   4.030  15.473  0.00  0.00    +0.000 A 
ATOM     11  C   UNL     1       7.284   4.694  16.555  0.00  0.00    +0.000 A 
BRANCH  11  12
ATOM     12  O   UNL     1       8.222   4.047  17.319  0.00  0.00    +0.000 OA
ATOM     13  H   UNL     1       9.022   3.917  16.782  0.00  0.00    +0.000 HD
ENDBRANCH  11  12
ENDBRANCH   2   5
BRANCH   3  14
ATOM     14  C   UNL     1       8.572   8.873  18.729  0.00  0.00    +0.000 C 
BRANCH  14  15
ATOM     15  C   UNL     1       8.872  10.288  18.231  0.00  0.00    +0.000 C 
BRANCH  15  16
ATOM     16  C   UNL     1       9.405  11.178  19.311  0.00  0.00    +0.000 A 
ATOM     17  C   UNL     1       9.451  10.883  20.661  0.00  0.00    +0.000 A 
ATOM     18  N   UNL     1       9.991  11.953  21.320  0.00  0.00    +0.000 N 
ATOM     19  C   UNL     1      10.309  12.950  20.430  0.00  0.00    +0.000 A 
ATOM     20  C   UNL     1      10.870  14.213  20.658  0.00  0.00    +0.000 A 
ATOM     21  C   UNL     1      11.094  15.033  19.548  0.00  0.00    +0.000 A 
ATOM     22  C   UNL     1      10.767  14.596  18.268  0.00  0.00    +0.000 A 
ATOM     23 BR   UNL     1      11.095  15.730  16.787  0.00  0.00    +0.000 Br
ATOM     24  C   UNL     1      10.199  13.335  18.053  0.00  0.00    +0.000 A 
ATOM     25  C   UNL     1       9.962  12.491  19.157  0.00  0.00    +0.000 A 
ATOM     26  H   UNL     1      10.135  12.009  22.319  0.00  0.00    +0.000 HD
ENDBRANCH  15  16
ENDBRANCH  14  15
ENDBRANCH   3  14
TORSDOF 5
ENDMDL
MODEL 8
REMARK VINA RESULT:      -7.1      3.649      4.758
REMARK  Name = 
REMARK  5 active torsions:
REMARK  status: ('A' for Active; 'I' for Inactive)
REMARK    1  A    between atoms: C_2  and  C_16
REMARK    2  A    between atoms: N_3  and  C_4
REMARK    3  A    between atoms: C_4  and  C_5
REMARK    4  A    between atoms: C_5  and  C_6
REMARK    5  A    between atoms: C_22  and  O_23
REMARK                            x       y       z     vdW  Elec       q    Type
REMARK                         _______ _______ _______ _____ _____    ______ ____
ROOT
ATOM      1  O   UNL     1       7.266   5.978  16.397  0.00  0.00    +0.000 OA
ATOM      2  C   UNL     1       6.243   5.746  15.763  0.00  0.00    +0.000 C 
ATOM      3  N   UNL     1       5.006   6.244  16.105  0.00  0.00    +0.000 N 
ATOM      4  H   UNL     1       4.200   5.801  15.669  0.00  0.00    +0.000 HD
ENDROOT
BRANCH   2   5
ATOM      5  C   UNL     1       6.303   4.901  14.535  0.00  0.00    +0.000 A 
ATOM      6  C   UNL     1       5.230   4.034  14.279  0.00  0.00    +0.000 A 
ATOM      7  C   UNL     1       5.235   3.219  13.141  0.00  0.00    +0.000 A 
ATOM      8  C   UNL     1       6.302   3.291  12.251  0.00  0.00    +0.000 A 
ATOM      9 CL   UNL     1       6.311   2.298  10.842  0.00  0.00    +0.000 Cl
ATOM     10  C   UNL     1       7.373   4.154  12.486  0.00  0.00    +0.000 A 
ATOM     11  C   UNL     1       7.374   4.949  13.631  0.00  0.00    +0.000 A 
BRANCH  11  12
ATOM     12  O   UNL     1       8.436   5.783  13.867  0.00  0.00    +0.000 OA
ATOM     13  H   UNL     1       9.154   5.266  14.269  0.00  0.00    +0.000 HD
ENDBRANCH  11  12
ENDBRANCH   2   5
BRANCH   3  14
ATOM     14  C   UNL     1       4.823   7.043  17.301  0.00  0.00    +0.000 C 
BRANCH  14  15
ATOM     15  C   UNL     1       3.367   7.461  17.514  0.00  0.00    +0.000 C 
BRANCH  15  16
ATOM     16  C   UNL     1       2.778   6.879  18.762  0.00  0.00    +0.000 A 
ATOM     17  C   UNL     1       2.164   7.586  19.780  0.00  0.00    +0.000 A 
ATOM     18  N   UNL     1       1.774   6.702  20.748  0.00  0.00    +0.000 N 
ATOM     19  C   UNL     1       2.114   5.420  20.387  0.00  0.00    +0.000 A 
ATOM     20  C   UNL     1       1.918   4.212  21.070  0.00  0.00    +0.000 A 
ATOM     21  C   UNL     1       2.366   3.040  20.455  0.00  0.00    +0.000 A 
ATOM     22  C   UNL     1       2.983   3.086  19.208  0.00  0.00    +0.000 A 
ATOM     23 BR   UNL     1       3.567   1.476  18.401  0.00  0.00    +0.000 Br
ATOM     24  C   UNL     1       3.181   4.300  18.539  0.00  0.00    +0.000 A 
ATOM     25  C   UNL     1       2.738   5.496  19.140  0.00  0.00    +0.000 A 
ATOM     26  H   UNL     1       1.305   6.950  21.608  0.00  0.00    +0.000 HD
ENDBRANCH  15  16
ENDBRANCH  14  15
ENDBRANCH   3  14
TORSDOF 5
ENDMDL
MODEL 9
REMARK VINA RESULT:      -7.1      3.805      6.419
REMARK  Name = 
REMARK  5 active torsions:
REMARK  status: ('A' for Active; 'I' for Inactive)
REMARK    1  A    between atoms: C_2  and  C_16
REMARK    2  A    between atoms: N_3  and  C_4
REMARK    3  A    between atoms: C_4  and  C_5
REMARK    4  A    between atoms: C_5  and  C_6
REMARK    5  A    between atoms: C_22  and  O_23
REMARK                            x       y       z     vdW  Elec       q    Type
REMARK                         _______ _______ _______ _____ _____    ______ ____
ROOT
ATOM      1  O   UNL     1       1.871   9.630  17.359  0.00  0.00    +0.000 OA
ATOM      2  C   UNL     1       1.969   8.927  18.358  0.00  0.00    +0.000 C 
ATOM      3  N   UNL     1       2.767   7.807  18.425  0.00  0.00    +0.000 N 
ATOM      4  H   UNL     1       2.592   7.167  19.197  0.00  0.00    +0.000 HD
ENDROOT
BRANCH   2   5
ATOM      5  C   UNL     1       1.219   9.282  19.597  0.00  0.00    +0.000 A 
ATOM      6  C   UNL     1       0.454  10.459  19.590  0.00  0.00    +0.000 A 
ATOM      7  C   UNL     1      -0.269  10.839  20.727  0.00  0.00    +0.000 A 
ATOM      8  C   UNL     1      -0.244  10.030  21.858  0.00  0.00    +0.000 A 
ATOM      9 CL   UNL     1      -1.140  10.486  23.258  0.00  0.00    +0.000 Cl
ATOM     10  C   UNL     1       0.505   8.852  21.879  0.00  0.00    +0.000 A 
ATOM     11  C   UNL     1       1.240   8.488  20.753  0.00  0.00    +0.000 A 
BRANCH  11  12
ATOM     12  O   UNL     1       1.988   7.338  20.783  0.00  0.00    +0.000 OA
ATOM     13  H   UNL     1       2.726   7.432  20.158  0.00  0.00    +0.000 HD
ENDBRANCH  11  12
ENDBRANCH   2   5
BRANCH   3  14
ATOM     14  C   UNL     1       3.510   7.344  17.269  0.00  0.00    +0.000 C 
BRANCH  14  15
ATOM     15  C   UNL     1       4.801   6.618  17.649  0.00  0.00    +0.000 C 
BRANCH  15  16
ATOM     16  C   UNL     1       4.728   5.143  17.398  0.00  0.00    +0.000 A 
ATOM     17  C   UNL     1       5.392   4.452  16.402  0.00  0.00    +0.000 A 
ATOM     18  N   UNL     1       5.055   3.130  16.493  0.00  0.00    +0.000 N 
ATOM     19  C   UNL     1       4.182   2.931  17.536  0.00  0.00    +0.000 A 
ATOM     20  C   UNL     1       3.575   1.753  17.989  0.00  0.00    +0.000 A 
ATOM     21  C   UNL     1       2.723   1.845  19.093  0.00  0.00    +0.000 A 
ATOM     22  C   UNL     1       2.496   3.071  19.711  0.00  0.00    +0.000 A 
ATOM     23 BR   UNL     1       1.344   3.155  21.211  0.00  0.00    +0.000 Br
ATOM     24  C   UNL     1       3.101   4.244  19.245  0.00  0.00    +0.000 A 
ATOM     25  C   UNL     1       3.964   4.176  18.131  0.00  0.00    +0.000 A 
ATOM     26  H   UNL     1       5.393   2.399  15.882  0.00  0.00    +0.000 HD
ENDBRANCH  15  16
ENDBRANCH  14  15
ENDBRANCH   3  14
TORSDOF 5
ENDMDL
