MODEL 1
REMARK VINA RESULT:      -8.7      0.000      0.000
REMARK  Name = 
REMARK  8 active torsions:
REMARK  status: ('A' for Active; 'I' for Inactive)
REMARK    1  A    between atoms: C_2  and  O_3
REMARK    2  A    between atoms: C_2  and  C_4
REMARK    3  A    between atoms: C_4  and  O_5
REMARK    4  A    between atoms: O_5  and  C_6
REMARK    5  A    between atoms: C_10  and  C_11
REMARK    6  A    between atoms: C_15  and  C_16
REMARK    7  A    between atoms: C_18  and  C_19
REMARK    8  A    between atoms: C_25  and  C_26
REMARK                            x       y       z     vdW  Elec       q    Type
REMARK                         _______ _______ _______ _____ _____    ______ ____
ROOT
ATOM      1  C   UNL     1       6.779   6.046  16.118  0.00  0.00    +0.000 A 
ATOM      2  N   UNL     1       7.465   5.596  15.010  0.00  0.00    +0.000 N 
ATOM      3  N   UNL     1       6.787   4.720  14.248  0.00  0.00    +0.000 NA
ATOM      4  C   UNL     1       5.609   4.615  14.867  0.00  0.00    +0.000 A 
ATOM      5  C   UNL     1       5.529   5.456  15.989  0.00  0.00    +0.000 A 
ATOM      6  H   UNL     1       8.421   5.803  14.748  0.00  0.00    +0.000 HD
ENDROOT
BRANCH   1  11
ATOM      7  C   UNL     1       8.384   8.886  18.057  0.00  0.00    +0.000 A 
ATOM      8  C   UNL     1       8.790   8.228  19.218  0.00  0.00    +0.000 A 
ATOM      9  C   UNL     1       8.513   6.879  19.383  0.00  0.00    +0.000 A 
ATOM     10  C   UNL     1       7.858   6.182  18.370  0.00  0.00    +0.000 A 
ATOM     11  C   UNL     1       7.421   6.819  17.197  0.00  0.00    +0.000 A 
ATOM     12  C   UNL     1       7.692   8.189  17.058  0.00  0.00    +0.000 A 
BRANCH   7  13
ATOM     13  O   UNL     1       8.784  10.191  17.975  0.00  0.00    +0.000 OA
BRANCH  13  14
ATOM     14  C   UNL     1       9.396  10.734  19.147  0.00  0.00    +0.000 C 
BRANCH  14  16
ATOM     15  O   UNL     1      11.563  11.736  19.550  0.00  0.00    +0.000 OA
ATOM     16  C   UNL     1      10.735  11.326  18.749  0.00  0.00    +0.000 C 
BRANCH  16  17
ATOM     17  O   UNL     1      10.919  11.398  17.409  0.00  0.00    +0.000 OA
ATOM     18  H   UNL     1      11.860  11.614  17.218  0.00  0.00    +0.000 HD
ENDBRANCH  16  17
ENDBRANCH  14  16
ENDBRANCH  13  14
ENDBRANCH   7  13
ENDBRANCH   1  11
BRANCH   5  19
ATOM     19  C   UNL     1       4.373   5.619  16.903  0.00  0.00    +0.000 A 
ATOM     20  N   UNL     1       3.824   6.788  17.162  0.00  0.00    +0.000 NA
ATOM     21  C   UNL     1       2.933   6.542  18.175  0.00  0.00    +0.000 A 
ATOM     22  C   UNL     1       2.954   5.197  18.495  0.00  0.00    +0.000 A 
ATOM     23  O   UNL     1       3.835   4.590  17.633  0.00  0.00    +0.000 OA
BRANCH  21  24
ATOM     24  C   UNL     1       2.150   7.608  18.776  0.00  0.00    +0.000 A 
ATOM     25  C   UNL     1       1.655   8.631  17.958  0.00  0.00    +0.000 A 
ATOM     26  C   UNL     1       0.870   9.652  18.494  0.00  0.00    +0.000 A 
ATOM     27  C   UNL     1       0.576   9.662  19.856  0.00  0.00    +0.000 A 
ATOM     28  C   UNL     1       1.089   8.666  20.684  0.00  0.00    +0.000 A 
ATOM     29  C   UNL     1       1.887   7.654  20.152  0.00  0.00    +0.000 A 
ENDBRANCH  21  24
BRANCH  22  30
ATOM     30  C   UNL     1       2.311   4.326  19.467  0.00  0.00    +0.000 A 
ATOM     31  C   UNL     1       1.139   3.632  19.143  0.00  0.00    +0.000 A 
ATOM     32  C   UNL     1       0.477   2.858  20.097  0.00  0.00    +0.000 A 
ATOM     33  C   UNL     1       0.997   2.747  21.384  0.00  0.00    +0.000 A 
ATOM     34  C   UNL     1       2.172   3.415  21.719  0.00  0.00    +0.000 A 
ATOM     35  C   UNL     1       2.825   4.205  20.768  0.00  0.00    +0.000 A 
ENDBRANCH  22  30
ENDBRANCH   5  19
TORSDOF 8
ENDMDL
MODEL 2
REMARK VINA RESULT:      -8.7      0.607      1.036
REMARK  Name = 
REMARK  8 active torsions:
REMARK  status: ('A' for Active; 'I' for Inactive)
REMARK    1  A    between atoms: C_2  and  O_3
REMARK    2  A    between atoms: C_2  and  C_4
REMARK    3  A    between atoms: C_4  and  O_5
REMARK    4  A    between atoms: O_5  and  C_6
REMARK    5  A    between atoms: C_10  and  C_11
REMARK    6  A    between atoms: C_15  and  C_16
REMARK    7  A    between atoms: C_18  and  C_19
REMARK    8  A    between atoms: C_25  and  C_26
REMARK                            x       y       z     vdW  Elec       q    Type
REMARK                         _______ _______ _______ _____ _____    ______ ____
ROOT
ATOM      1  C   UNL     1       6.803   6.031  16.176  0.00  0.00    +0.000 A 
ATOM      2  N   UNL     1       7.513   5.515  15.112  0.00  0.00    +0.000 N 
ATOM      3  N   UNL     1       6.866   4.567  14.413  0.00  0.00    +0.000 NA
ATOM      4  C   UNL     1       5.684   4.480  15.026  0.00  0.00    +0.000 A 
ATOM      5  C   UNL     1       5.569   5.401  16.079  0.00  0.00    +0.000 A 
ATOM      6  H   UNL     1       8.467   5.725  14.845  0.00  0.00    +0.000 HD
ENDROOT
BRANCH   1  11
ATOM      7  C   UNL     1       8.228   9.074  17.938  0.00  0.00    +0.000 A 
ATOM      8  C   UNL     1       8.725   8.503  19.110  0.00  0.00    +0.000 A 
ATOM      9  C   UNL     1       8.565   7.144  19.340  0.00  0.00    +0.000 A 
ATOM     10  C   UNL     1       7.939   6.353  18.380  0.00  0.00    +0.000 A 
ATOM     11  C   UNL     1       7.413   6.900  17.199  0.00  0.00    +0.000 A 
ATOM     12  C   UNL     1       7.564   8.281  16.994  0.00  0.00    +0.000 A 
BRANCH   7  13
ATOM     13  O   UNL     1       8.515  10.403  17.789  0.00  0.00    +0.000 OA
BRANCH  13  14
ATOM     14  C   UNL     1       9.522  10.928  18.658  0.00  0.00    +0.000 C 
BRANCH  14  16
ATOM     15  O   UNL     1      10.785  12.993  18.635  0.00  0.00    +0.000 OA
ATOM     16  C   UNL     1       9.842  12.342  18.209  0.00  0.00    +0.000 C 
BRANCH  16  17
ATOM     17  O   UNL     1       8.956  12.840  17.313  0.00  0.00    +0.000 OA
ATOM     18  H   UNL     1       8.630  12.113  16.736  0.00  0.00    +0.000 HD
ENDBRANCH  16  17
ENDBRANCH  14  16
ENDBRANCH  13  14
ENDBRANCH   7  13
ENDBRANCH   1  11
BRANCH   5  19
ATOM     19  C   UNL     1       4.398   5.605  16.967  0.00  0.00    +0.000 A 
ATOM     20  N   UNL     1       3.860   6.787  17.181  0.00  0.00    +0.000 NA
ATOM     21  C   UNL     1       2.947   6.582  18.184  0.00  0.00    +0.000 A 
ATOM     22  C   UNL     1       2.946   5.246  18.543  0.00  0.00    +0.000 A 
ATOM     23  O   UNL     1       3.835   4.603  17.716  0.00  0.00    +0.000 OA
BRANCH  21  24
ATOM     24  C   UNL     1       2.166   7.674  18.739  0.00  0.00    +0.000 A 
ATOM     25  C   UNL     1       1.702   8.679  17.882  0.00  0.00    +0.000 A 
ATOM     26  C   UNL     1       0.920   9.725  18.374  0.00  0.00    +0.000 A 
ATOM     27  C   UNL     1       0.597   9.776  19.728  0.00  0.00    +0.000 A 
ATOM     28  C   UNL     1       1.080   8.797  20.594  0.00  0.00    +0.000 A 
ATOM     29  C   UNL     1       1.875   7.761  20.107  0.00  0.00    +0.000 A 
ENDBRANCH  21  24
BRANCH  22  30
ATOM     30  C   UNL     1       2.275   4.411  19.528  0.00  0.00    +0.000 A 
ATOM     31  C   UNL     1       2.763   4.315  20.838  0.00  0.00    +0.000 A 
ATOM     32  C   UNL     1       2.169   3.455  21.762  0.00  0.00    +0.000 A 
ATOM     33  C   UNL     1       1.059   2.699  21.395  0.00  0.00    +0.000 A 
ATOM     34  C   UNL     1       0.548   2.796  20.102  0.00  0.00    +0.000 A 
ATOM     35  C   UNL     1       1.155   3.644  19.171  0.00  0.00    +0.000 A 
ENDBRANCH  22  30
ENDBRANCH   5  19
TORSDOF 8
ENDMDL
MODEL 3
REMARK VINA RESULT:      -8.0      7.646     11.752
REMARK  Name = 
REMARK  8 active torsions:
REMARK  status: ('A' for Active; 'I' for Inactive)
REMARK    1  A    between atoms: C_2  and  O_3
REMARK    2  A    between atoms: C_2  and  C_4
REMARK    3  A    between atoms: C_4  and  O_5
REMARK    4  A    between atoms: O_5  and  C_6
REMARK    5  A    between atoms: C_10  and  C_11
REMARK    6  A    between atoms: C_15  and  C_16
REMARK    7  A    between atoms: C_18  and  C_19
REMARK    8  A    between atoms: C_25  and  C_26
REMARK                            x       y       z     vdW  Elec       q    Type
REMARK                         _______ _______ _______ _____ _____    ______ ____
ROOT
ATOM      1  C   UNL     1      -4.327  11.111  16.628  0.00  0.00    +0.000 A 
ATOM      2  N   UNL     1      -4.675  10.631  15.383  0.00  0.00    +0.000 N 
ATOM      3  N   UNL     1      -3.634  10.341  14.583  0.00  0.00    +0.000 NA
ATOM      4  C   UNL     1      -2.571  10.617  15.342  0.00  0.00    +0.000 A 
ATOM      5  C   UNL     1      -2.940  11.035  16.630  0.00  0.00    +0.000 A 
ATOM      6  H   UNL     1      -5.605  10.533  14.995  0.00  0.00    +0.000 HD
ENDROOT
BRANCH   1  11
ATOM      7  C   UNL     1      -6.428  11.755  19.721  0.00  0.00    +0.000 A 
ATOM      8  C   UNL     1      -7.291  12.751  19.262  0.00  0.00    +0.000 A 
ATOM      9  C   UNL     1      -7.166  13.233  17.968  0.00  0.00    +0.000 A 
ATOM     10  C   UNL     1      -6.199  12.693  17.123  0.00  0.00    +0.000 A 
ATOM     11  C   UNL     1      -5.305  11.703  17.559  0.00  0.00    +0.000 A 
ATOM     12  C   UNL     1      -5.432  11.243  18.880  0.00  0.00    +0.000 A 
BRANCH   7  13
ATOM     13  O   UNL     1      -6.701  11.306  20.984  0.00  0.00    +0.000 OA
BRANCH  13  14
ATOM     14  C   UNL     1      -7.900  11.804  21.581  0.00  0.00    +0.000 C 
BRANCH  14  16
ATOM     15  O   UNL     1      -7.273  12.938  23.625  0.00  0.00    +0.000 OA
ATOM     16  C   UNL     1      -7.670  11.921  23.076  0.00  0.00    +0.000 C 
BRANCH  16  17
ATOM     17  O   UNL     1      -7.909  10.772  23.753  0.00  0.00    +0.000 OA
ATOM     18  H   UNL     1      -7.248  10.672  24.474  0.00  0.00    +0.000 HD
ENDBRANCH  16  17
ENDBRANCH  14  16
ENDBRANCH  13  14
ENDBRANCH   7  13
ENDBRANCH   1  11
BRANCH   5  19
ATOM     19  C   UNL     1      -2.034  11.406  17.744  0.00  0.00    +0.000 A 
ATOM     20  N   UNL     1      -1.158  12.386  17.658  0.00  0.00    +0.000 NA
ATOM     21  C   UNL     1      -0.403  12.283  18.798  0.00  0.00    +0.000 A 
ATOM     22  C   UNL     1      -0.866  11.232  19.568  0.00  0.00    +0.000 A 
ATOM     23  O   UNL     1      -1.957  10.706  18.921  0.00  0.00    +0.000 OA
BRANCH  21  24
ATOM     24  C   UNL     1       0.714  13.176  19.054  0.00  0.00    +0.000 A 
ATOM     25  C   UNL     1       1.944  12.919  18.438  0.00  0.00    +0.000 A 
ATOM     26  C   UNL     1       3.029  13.774  18.634  0.00  0.00    +0.000 A 
ATOM     27  C   UNL     1       2.894  14.894  19.451  0.00  0.00    +0.000 A 
ATOM     28  C   UNL     1       1.683  15.143  20.093  0.00  0.00    +0.000 A 
ATOM     29  C   UNL     1       0.603  14.280  19.912  0.00  0.00    +0.000 A 
ENDBRANCH  21  24
BRANCH  22  30
ATOM     30  C   UNL     1      -0.495  10.587  20.819  0.00  0.00    +0.000 A 
ATOM     31  C   UNL     1      -1.067  10.994  22.032  0.00  0.00    +0.000 A 
ATOM     32  C   UNL     1      -0.656  10.432  23.241  0.00  0.00    +0.000 A 
ATOM     33  C   UNL     1       0.315   9.435  23.250  0.00  0.00    +0.000 A 
ATOM     34  C   UNL     1       0.881   9.004  22.051  0.00  0.00    +0.000 A 
ATOM     35  C   UNL     1       0.482   9.581  20.842  0.00  0.00    +0.000 A 
ENDBRANCH  22  30
ENDBRANCH   5  19
TORSDOF 8
ENDMDL
MODEL 4
REMARK VINA RESULT:      -7.9      3.103      6.981
REMARK  Name = 
REMARK  8 active torsions:
REMARK  status: ('A' for Active; 'I' for Inactive)
REMARK    1  A    between atoms: C_2  and  O_3
REMARK    2  A    between atoms: C_2  and  C_4
REMARK    3  A    between atoms: C_4  and  O_5
REMARK    4  A    between atoms: O_5  and  C_6
REMARK    5  A    between atoms: C_10  and  C_11
REMARK    6  A    between atoms: C_15  and  C_16
REMARK    7  A    between atoms: C_18  and  C_19
REMARK    8  A    between atoms: C_25  and  C_26
REMARK                            x       y       z     vdW  Elec       q    Type
REMARK                         _______ _______ _______ _____ _____    ______ ____
ROOT
ATOM      1  C   UNL     1       1.825   4.044  19.130  0.00  0.00    +0.000 A 
ATOM      2  N   UNL     1       0.859   3.095  19.390  0.00  0.00    +0.000 N 
ATOM      3  N   UNL     1       1.032   1.927  18.746  0.00  0.00    +0.000 NA
ATOM      4  C   UNL     1       2.163   2.113  18.063  0.00  0.00    +0.000 A 
ATOM      5  C   UNL     1       2.725   3.375  18.311  0.00  0.00    +0.000 A 
ATOM      6  H   UNL     1       0.023   3.201  19.952  0.00  0.00    +0.000 HD
ENDROOT
BRANCH   1  11
ATOM      7  C   UNL     1       2.030   7.832  19.141  0.00  0.00    +0.000 A 
ATOM      8  C   UNL     1       1.582   8.126  20.429  0.00  0.00    +0.000 A 
ATOM      9  C   UNL     1       1.182   7.101  21.274  0.00  0.00    +0.000 A 
ATOM     10  C   UNL     1       1.264   5.780  20.840  0.00  0.00    +0.000 A 
ATOM     11  C   UNL     1       1.695   5.453  19.544  0.00  0.00    +0.000 A 
ATOM     12  C   UNL     1       2.075   6.505  18.696  0.00  0.00    +0.000 A 
BRANCH   7  13
ATOM     13  O   UNL     1       2.470   8.917  18.433  0.00  0.00    +0.000 OA
BRANCH  13  14
ATOM     14  C   UNL     1       1.457   9.790  17.930  0.00  0.00    +0.000 C 
BRANCH  14  16
ATOM     15  O   UNL     1       1.513  11.673  19.451  0.00  0.00    +0.000 OA
ATOM     16  C   UNL     1       1.799  11.205  18.358  0.00  0.00    +0.000 C 
BRANCH  16  17
ATOM     17  O   UNL     1       2.422  11.927  17.396  0.00  0.00    +0.000 OA
ATOM     18  H   UNL     1       2.270  11.507  16.520  0.00  0.00    +0.000 HD
ENDBRANCH  16  17
ENDBRANCH  14  16
ENDBRANCH  13  14
ENDBRANCH   7  13
ENDBRANCH   1  11
BRANCH   5  19
ATOM     19  C   UNL     1       3.983   3.921  17.745  0.00  0.00    +0.000 A 
ATOM     20  N   UNL     1       4.734   4.795  18.383  0.00  0.00    +0.000 NA
ATOM     21  C   UNL     1       5.678   5.183  17.465  0.00  0.00    +0.000 A 
ATOM     22  C   UNL     1       5.477   4.503  16.278  0.00  0.00    +0.000 A 
ATOM     23  O   UNL     1       4.425   3.643  16.477  0.00  0.00    +0.000 OA
BRANCH  21  24
ATOM     24  C   UNL     1       6.679   6.186  17.782  0.00  0.00    +0.000 A 
ATOM     25  C   UNL     1       6.665   7.402  17.088  0.00  0.00    +0.000 A 
ATOM     26  C   UNL     1       7.590   8.403  17.389  0.00  0.00    +0.000 A 
ATOM     27  C   UNL     1       8.541   8.194  18.386  0.00  0.00    +0.000 A 
ATOM     28  C   UNL     1       8.583   6.976  19.061  0.00  0.00    +0.000 A 
ATOM     29  C   UNL     1       7.670   5.970  18.749  0.00  0.00    +0.000 A 
ENDBRANCH  21  24
BRANCH  22  30
ATOM     30  C   UNL     1       6.073   4.485  14.950  0.00  0.00    +0.000 A 
ATOM     31  C   UNL     1       5.498   3.734  13.917  0.00  0.00    +0.000 A 
ATOM     32  C   UNL     1       6.110   3.652  12.666  0.00  0.00    +0.000 A 
ATOM     33  C   UNL     1       7.293   4.343  12.424  0.00  0.00    +0.000 A 
ATOM     34  C   UNL     1       7.870   5.110  13.434  0.00  0.00    +0.000 A 
ATOM     35  C   UNL     1       7.266   5.178  14.693  0.00  0.00    +0.000 A 
ENDBRANCH  22  30
ENDBRANCH   5  19
TORSDOF 8
ENDMDL
MODEL 5
REMARK VINA RESULT:      -7.8      4.872      9.437
REMARK  Name = 
REMARK  8 active torsions:
REMARK  status: ('A' for Active; 'I' for Inactive)
REMARK    1  A    between atoms: C_2  and  O_3
REMARK    2  A    between atoms: C_2  and  C_4
REMARK    3  A    between atoms: C_4  and  O_5
REMARK    4  A    between atoms: O_5  and  C_6
REMARK    5  A    between atoms: C_10  and  C_11
REMARK    6  A    between atoms: C_15  and  C_16
REMARK    7  A    between atoms: C_18  and  C_19
REMARK    8  A    between atoms: C_25  and  C_26
REMARK                            x       y       z     vdW  Elec       q    Type
REMARK                         _______ _______ _______ _____ _____    ______ ____
ROOT
ATOM      1  C   UNL     1      -0.079  10.160  20.902  0.00  0.00    +0.000 A 
ATOM      2  N   UNL     1      -0.278  10.971  21.998  0.00  0.00    +0.000 N 
ATOM      3  N   UNL     1       0.244  10.503  23.145  0.00  0.00    +0.000 NA
ATOM      4  C   UNL     1       0.827   9.360  22.778  0.00  0.00    +0.000 A 
ATOM      5  C   UNL     1       0.711   9.131  21.398  0.00  0.00    +0.000 A 
ATOM      6  H   UNL     1      -0.815  11.829  22.043  0.00  0.00    +0.000 HD
ENDROOT
BRANCH   1  11
ATOM      7  C   UNL     1      -2.579  11.324  18.296  0.00  0.00    +0.000 A 
ATOM      8  C   UNL     1      -2.146  10.625  17.170  0.00  0.00    +0.000 A 
ATOM      9  C   UNL     1      -1.027   9.808  17.250  0.00  0.00    +0.000 A 
ATOM     10  C   UNL     1      -0.364   9.667  18.467  0.00  0.00    +0.000 A 
ATOM     11  C   UNL     1      -0.765  10.370  19.614  0.00  0.00    +0.000 A 
ATOM     12  C   UNL     1      -1.886  11.209  19.508  0.00  0.00    +0.000 A 
BRANCH   7  13
ATOM     13  O   UNL     1      -3.736  12.031  18.114  0.00  0.00    +0.000 OA
BRANCH  13  14
ATOM     14  C   UNL     1      -4.665  11.482  17.177  0.00  0.00    +0.000 C 
BRANCH  14  16
ATOM     15  O   UNL     1      -6.980  11.548  17.884  0.00  0.00    +0.000 OA
ATOM     16  C   UNL     1      -6.015  12.134  17.413  0.00  0.00    +0.000 C 
BRANCH  16  17
ATOM     17  O   UNL     1      -6.069  13.428  17.016  0.00  0.00    +0.000 OA
ATOM     18  H   UNL     1      -6.125  14.011  17.806  0.00  0.00    +0.000 HD
ENDBRANCH  16  17
ENDBRANCH  14  16
ENDBRANCH  13  14
ENDBRANCH   7  13
ENDBRANCH   1  11
BRANCH   5  19
ATOM     19  C   UNL     1       1.249   7.979  20.635  0.00  0.00    +0.000 A 
ATOM     20  N   UNL     1       0.858   6.738  20.841  0.00  0.00    +0.000 NA
ATOM     21  C   UNL     1       1.711   5.971  20.089  0.00  0.00    +0.000 A 
ATOM     22  C   UNL     1       2.602   6.789  19.420  0.00  0.00    +0.000 A 
ATOM     23  O   UNL     1       2.266   8.087  19.720  0.00  0.00    +0.000 OA
BRANCH  21  24
ATOM     24  C   UNL     1       1.627   4.521  20.085  0.00  0.00    +0.000 A 
ATOM     25  C   UNL     1       1.337   3.861  18.886  0.00  0.00    +0.000 A 
ATOM     26  C   UNL     1       1.282   2.467  18.837  0.00  0.00    +0.000 A 
ATOM     27  C   UNL     1       1.515   1.721  19.990  0.00  0.00    +0.000 A 
ATOM     28  C   UNL     1       1.775   2.369  21.195  0.00  0.00    +0.000 A 
ATOM     29  C   UNL     1       1.813   3.761  21.249  0.00  0.00    +0.000 A 
ENDBRANCH  21  24
BRANCH  22  30
ATOM     30  C   UNL     1       3.743   6.616  18.532  0.00  0.00    +0.000 A 
ATOM     31  C   UNL     1       3.778   7.242  17.280  0.00  0.00    +0.000 A 
ATOM     32  C   UNL     1       4.833   7.015  16.395  0.00  0.00    +0.000 A 
ATOM     33  C   UNL     1       5.883   6.179  16.765  0.00  0.00    +0.000 A 
ATOM     34  C   UNL     1       5.874   5.563  18.015  0.00  0.00    +0.000 A 
ATOM     35  C   UNL     1       4.808   5.776  18.893  0.00  0.00    +0.000 A 
ENDBRANCH  22  30
ENDBRANCH   5  19
TORSDOF 8
ENDMDL
MODEL 6
REMARK VINA RESULT:      -7.8      4.384      8.266
REMARK  Name = 
REMARK  8 active torsions:
REMARK  status: ('A' for Active; 'I' for Inactive)
REMARK    1  A    between atoms: C_2  and  O_3
REMARK    2  A    between atoms: C_2  and  C_4
REMARK    3  A    between atoms: C_4  and  O_5
REMARK    4  A    between atoms: O_5  and  C_6
REMARK    5  A    between atoms: C_10  and  C_11
REMARK    6  A    between atoms: C_15  and  C_16
REMARK    7  A    between atoms: C_18  and  C_19
REMARK    8  A    between atoms: C_25  and  C_26
REMARK                            x       y       z     vdW  Elec       q    Type
REMARK                         _______ _______ _______ _____ _____    ______ ____
ROOT
ATOM      1  C   UNL     1       1.301  10.745  19.240  0.00  0.00    +0.000 A 
ATOM      2  N   UNL     1       1.301  12.087  18.923  0.00  0.00    +0.000 N 
ATOM      3  N   UNL     1       2.100  12.421  17.895  0.00  0.00    +0.000 NA
ATOM      4  C   UNL     1       2.619  11.253  17.512  0.00  0.00    +0.000 A 
ATOM      5  C   UNL     1       2.115  10.182  18.266  0.00  0.00    +0.000 A 
ATOM      6  H   UNL     1       0.823  12.837  19.408  0.00  0.00    +0.000 HD
ENDROOT
BRANCH   1  11
ATOM      7  C   UNL     1      -0.618  10.518  22.505  0.00  0.00    +0.000 A 
ATOM      8  C   UNL     1      -0.349   9.204  22.889  0.00  0.00    +0.000 A 
ATOM      9  C   UNL     1       0.421   8.388  22.073  0.00  0.00    +0.000 A 
ATOM     10  C   UNL     1       0.950   8.900  20.891  0.00  0.00    +0.000 A 
ATOM     11  C   UNL     1       0.684  10.213  20.468  0.00  0.00    +0.000 A 
ATOM     12  C   UNL     1      -0.116  11.016  21.296  0.00  0.00    +0.000 A 
BRANCH   7  13
ATOM     13  O   UNL     1      -1.319  11.246  23.427  0.00  0.00    +0.000 OA
BRANCH  13  14
ATOM     14  C   UNL     1      -1.577  12.609  23.085  0.00  0.00    +0.000 C 
BRANCH  14  16
ATOM     15  O   UNL     1      -3.594  13.949  23.065  0.00  0.00    +0.000 OA
ATOM     16  C   UNL     1      -3.049  12.886  23.329  0.00  0.00    +0.000 C 
BRANCH  16  17
ATOM     17  O   UNL     1      -3.706  11.854  23.909  0.00  0.00    +0.000 OA
ATOM     18  H   UNL     1      -3.220  11.017  23.736  0.00  0.00    +0.000 HD
ENDBRANCH  16  17
ENDBRANCH  14  16
ENDBRANCH  13  14
ENDBRANCH   7  13
ENDBRANCH   1  11
BRANCH   5  19
ATOM     19  C   UNL     1       2.447   8.744  18.112  0.00  0.00    +0.000 A 
ATOM     20  N   UNL     1       1.688   7.779  18.589  0.00  0.00    +0.000 NA
ATOM     21  C   UNL     1       2.422   6.634  18.411  0.00  0.00    +0.000 A 
ATOM     22  C   UNL     1       3.624   6.944  17.800  0.00  0.00    +0.000 A 
ATOM     23  O   UNL     1       3.614   8.295  17.549  0.00  0.00    +0.000 OA
BRANCH  21  24
ATOM     24  C   UNL     1       1.935   5.340  18.857  0.00  0.00    +0.000 A 
ATOM     25  C   UNL     1       1.728   5.128  20.225  0.00  0.00    +0.000 A 
ATOM     26  C   UNL     1       1.228   3.910  20.687  0.00  0.00    +0.000 A 
ATOM     27  C   UNL     1       0.934   2.891  19.783  0.00  0.00    +0.000 A 
ATOM     28  C   UNL     1       1.165   3.082  18.422  0.00  0.00    +0.000 A 
ATOM     29  C   UNL     1       1.680   4.292  17.962  0.00  0.00    +0.000 A 
ENDBRANCH  21  24
BRANCH  22  30
ATOM     30  C   UNL     1       4.823   6.228  17.390  0.00  0.00    +0.000 A 
ATOM     31  C   UNL     1       5.161   6.113  16.036  0.00  0.00    +0.000 A 
ATOM     32  C   UNL     1       6.266   5.362  15.634  0.00  0.00    +0.000 A 
ATOM     33  C   UNL     1       7.064   4.736  16.588  0.00  0.00    +0.000 A 
ATOM     34  C   UNL     1       6.754   4.855  17.941  0.00  0.00    +0.000 A 
ATOM     35  C   UNL     1       5.637   5.593  18.341  0.00  0.00    +0.000 A 
ENDBRANCH  22  30
ENDBRANCH   5  19
TORSDOF 8
ENDMDL
MODEL 7
REMARK VINA RESULT:      -7.7      7.676     11.602
REMARK  Name = 
REMARK  8 active torsions:
REMARK  status: ('A' for Active; 'I' for Inactive)
REMARK    1  A    between atoms: C_2  and  O_3
REMARK    2  A    between atoms: C_2  and  C_4
REMARK    3  A    between atoms: C_4  and  O_5
REMARK    4  A    between atoms: O_5  and  C_6
REMARK    5  A    between atoms: C_10  and  C_11
REMARK    6  A    between atoms: C_15  and  C_16
REMARK    7  A    between atoms: C_18  and  C_19
REMARK    8  A    between atoms: C_25  and  C_26
REMARK                            x       y       z     vdW  Elec       q    Type
REMARK                         _______ _______ _______ _____ _____    ______ ____
ROOT
ATOM      1  C   UNL     1      -4.343  11.238  16.880  0.00  0.00    +0.000 A 
ATOM      2  N   UNL     1      -4.726  10.743  15.652  0.00  0.00    +0.000 N 
ATOM      3  N   UNL     1      -3.710  10.451  14.822  0.00  0.00    +0.000 NA
ATOM      4  C   UNL     1      -2.626  10.740  15.544  0.00  0.00    +0.000 A 
ATOM      5  C   UNL     1      -2.956  11.170  16.839  0.00  0.00    +0.000 A 
ATOM      6  H   UNL     1      -5.668  10.637  15.295  0.00  0.00    +0.000 HD
ENDROOT
BRANCH   1  11
ATOM      7  C   UNL     1      -6.117  12.150  20.108  0.00  0.00    +0.000 A 
ATOM      8  C   UNL     1      -7.219  12.856  19.623  0.00  0.00    +0.000 A 
ATOM      9  C   UNL     1      -7.364  13.064  18.259  0.00  0.00    +0.000 A 
ATOM     10  C   UNL     1      -6.422  12.534  17.379  0.00  0.00    +0.000 A 
ATOM     11  C   UNL     1      -5.294  11.834  17.836  0.00  0.00    +0.000 A 
ATOM     12  C   UNL     1      -5.153  11.653  19.221  0.00  0.00    +0.000 A 
BRANCH   7  13
ATOM     13  O   UNL     1      -6.127  11.942  21.459  0.00  0.00    +0.000 OA
BRANCH  13  14
ATOM     14  C   UNL     1      -6.949  12.827  22.224  0.00  0.00    +0.000 C 
BRANCH  14  16
ATOM     15  O   UNL     1      -5.745  12.006  24.157  0.00  0.00    +0.000 OA
ATOM     16  C   UNL     1      -6.376  12.909  23.626  0.00  0.00    +0.000 C 
BRANCH  16  17
ATOM     17  O   UNL     1      -6.663  14.070  24.262  0.00  0.00    +0.000 OA
ATOM     18  H   UNL     1      -6.031  14.203  25.004  0.00  0.00    +0.000 HD
ENDBRANCH  16  17
ENDBRANCH  14  16
ENDBRANCH  13  14
ENDBRANCH   7  13
ENDBRANCH   1  11
BRANCH   5  19
ATOM     19  C   UNL     1      -2.018  11.557  17.920  0.00  0.00    +0.000 A 
ATOM     20  N   UNL     1      -1.181  12.569  17.813  0.00  0.00    +0.000 NA
ATOM     21  C   UNL     1      -0.375  12.478  18.919  0.00  0.00    +0.000 A 
ATOM     22  C   UNL     1      -0.769  11.400  19.692  0.00  0.00    +0.000 A 
ATOM     23  O   UNL     1      -1.867  10.844  19.082  0.00  0.00    +0.000 OA
BRANCH  21  24
ATOM     24  C   UNL     1       0.719  13.407  19.143  0.00  0.00    +0.000 A 
ATOM     25  C   UNL     1       2.034  12.966  18.951  0.00  0.00    +0.000 A 
ATOM     26  C   UNL     1       3.108  13.839  19.123  0.00  0.00    +0.000 A 
ATOM     27  C   UNL     1       2.876  15.163  19.492  0.00  0.00    +0.000 A 
ATOM     28  C   UNL     1       1.574  15.603  19.716  0.00  0.00    +0.000 A 
ATOM     29  C   UNL     1       0.501  14.727  19.561  0.00  0.00    +0.000 A 
ENDBRANCH  21  24
BRANCH  22  30
ATOM     30  C   UNL     1      -0.323  10.751  20.916  0.00  0.00    +0.000 A 
ATOM     31  C   UNL     1       0.775   9.881  20.907  0.00  0.00    +0.000 A 
ATOM     32  C   UNL     1       1.156   9.197  22.062  0.00  0.00    +0.000 A 
ATOM     33  C   UNL     1       0.458   9.396  23.250  0.00  0.00    +0.000 A 
ATOM     34  C   UNL     1      -0.625  10.272  23.282  0.00  0.00    +0.000 A 
ATOM     35  C   UNL     1      -1.017  10.943  22.120  0.00  0.00    +0.000 A 
ENDBRANCH  22  30
ENDBRANCH   5  19
TORSDOF 8
ENDMDL
MODEL 8
REMARK VINA RESULT:      -7.7      0.917      3.491
REMARK  Name = 
REMARK  8 active torsions:
REMARK  status: ('A' for Active; 'I' for Inactive)
REMARK    1  A    between atoms: C_2  and  O_3
REMARK    2  A    between atoms: C_2  and  C_4
REMARK    3  A    between atoms: C_4  and  O_5
REMARK    4  A    between atoms: O_5  and  C_6
REMARK    5  A    between atoms: C_10  and  C_11
REMARK    6  A    between atoms: C_15  and  C_16
REMARK    7  A    between atoms: C_18  and  C_19
REMARK    8  A    between atoms: C_25  and  C_26
REMARK                            x       y       z     vdW  Elec       q    Type
REMARK                         _______ _______ _______ _____ _____    ______ ____
ROOT
ATOM      1  C   UNL     1       7.086   6.596  16.350  0.00  0.00    +0.000 A 
ATOM      2  N   UNL     1       7.769   6.188  15.223  0.00  0.00    +0.000 N 
ATOM      3  N   UNL     1       7.173   5.202  14.532  0.00  0.00    +0.000 NA
ATOM      4  C   UNL     1       6.049   4.977  15.216  0.00  0.00    +0.000 A 
ATOM      5  C   UNL     1       5.917   5.848  16.309  0.00  0.00    +0.000 A 
ATOM      6  H   UNL     1       8.678   6.502  14.904  0.00  0.00    +0.000 HD
ENDROOT
BRANCH   1  11
ATOM      7  C   UNL     1       8.471   9.682  18.068  0.00  0.00    +0.000 A 
ATOM      8  C   UNL     1       8.949   9.139  19.261  0.00  0.00    +0.000 A 
ATOM      9  C   UNL     1       8.789   7.785  19.519  0.00  0.00    +0.000 A 
ATOM     10  C   UNL     1       8.181   6.971  18.566  0.00  0.00    +0.000 A 
ATOM     11  C   UNL     1       7.675   7.490  17.363  0.00  0.00    +0.000 A 
ATOM     12  C   UNL     1       7.826   8.866  17.130  0.00  0.00    +0.000 A 
BRANCH   7  13
ATOM     13  O   UNL     1       8.757  11.008  17.894  0.00  0.00    +0.000 OA
BRANCH  13  14
ATOM     14  C   UNL     1       9.805  11.536  18.712  0.00  0.00    +0.000 C 
BRANCH  14  16
ATOM     15  O   UNL     1      10.701  12.858  16.892  0.00  0.00    +0.000 OA
ATOM     16  C   UNL     1      10.897  12.061  17.799  0.00  0.00    +0.000 C 
BRANCH  16  17
ATOM     17  O   UNL     1      12.118  11.532  18.054  0.00  0.00    +0.000 OA
ATOM     18  H   UNL     1      12.052  10.551  18.077  0.00  0.00    +0.000 HD
ENDBRANCH  16  17
ENDBRANCH  14  16
ENDBRANCH  13  14
ENDBRANCH   7  13
ENDBRANCH   1  11
BRANCH   5  19
ATOM     19  C   UNL     1       4.794   5.904  17.277  0.00  0.00    +0.000 A 
ATOM     20  N   UNL     1       4.250   4.827  17.805  0.00  0.00    +0.000 NA
ATOM     21  C   UNL     1       3.148   5.285  18.481  0.00  0.00    +0.000 A 
ATOM     22  C   UNL     1       3.066   6.660  18.356  0.00  0.00    +0.000 A 
ATOM     23  O   UNL     1       4.161   7.068  17.634  0.00  0.00    +0.000 OA
BRANCH  21  24
ATOM     24  C   UNL     1       2.248   4.379  19.172  0.00  0.00    +0.000 A 
ATOM     25  C   UNL     1       1.389   3.570  18.418  0.00  0.00    +0.000 A 
ATOM     26  C   UNL     1       0.534   2.663  19.046  0.00  0.00    +0.000 A 
ATOM     27  C   UNL     1       0.530   2.559  20.435  0.00  0.00    +0.000 A 
ATOM     28  C   UNL     1       1.359   3.380  21.196  0.00  0.00    +0.000 A 
ATOM     29  C   UNL     1       2.200   4.298  20.571  0.00  0.00    +0.000 A 
ENDBRANCH  21  24
BRANCH  22  30
ATOM     30  C   UNL     1       2.152   7.713  18.776  0.00  0.00    +0.000 A 
ATOM     31  C   UNL     1       1.653   8.639  17.852  0.00  0.00    +0.000 A 
ATOM     32  C   UNL     1       0.840   9.695  18.264  0.00  0.00    +0.000 A 
ATOM     33  C   UNL     1       0.494   9.823  19.606  0.00  0.00    +0.000 A 
ATOM     34  C   UNL     1       0.966   8.900  20.537  0.00  0.00    +0.000 A 
ATOM     35  C   UNL     1       1.795   7.852  20.126  0.00  0.00    +0.000 A 
ENDBRANCH  22  30
ENDBRANCH   5  19
TORSDOF 8
ENDMDL
MODEL 9
REMARK VINA RESULT:      -7.6      7.694     11.722
REMARK  Name = 
REMARK  8 active torsions:
REMARK  status: ('A' for Active; 'I' for Inactive)
REMARK    1  A    between atoms: C_2  and  O_3
REMARK    2  A    between atoms: C_2  and  C_4
REMARK    3  A    between atoms: C_4  and  O_5
REMARK    4  A    between atoms: O_5  and  C_6
REMARK    5  A    between atoms: C_10  and  C_11
REMARK    6  A    between atoms: C_15  and  C_16
REMARK    7  A    between atoms: C_18  and  C_19
REMARK    8  A    between atoms: C_25  and  C_26
REMARK                            x       y       z     vdW  Elec       q    Type
REMARK                         _______ _______ _______ _____ _____    ______ ____
ROOT
ATOM      1  C   UNL     1      -4.240  11.198  16.634  0.00  0.00    +0.000 A 
ATOM      2  N   UNL     1      -4.677  10.764  15.401  0.00  0.00    +0.000 N 
ATOM      3  N   UNL     1      -3.699  10.378  14.563  0.00  0.00    +0.000 NA
ATOM      4  C   UNL     1      -2.588  10.541  15.285  0.00  0.00    +0.000 A 
ATOM      5  C   UNL     1      -2.869  10.985  16.587  0.00  0.00    +0.000 A 
ATOM      6  H   UNL     1      -5.626  10.762  15.046  0.00  0.00    +0.000 HD
ENDROOT
BRANCH   1  11
ATOM      7  C   UNL     1      -5.936  12.211  19.874  0.00  0.00    +0.000 A 
ATOM      8  C   UNL     1      -6.925  13.076  19.405  0.00  0.00    +0.000 A 
ATOM      9  C   UNL     1      -7.015  13.356  18.049  0.00  0.00    +0.000 A 
ATOM     10  C   UNL     1      -6.137  12.740  17.160  0.00  0.00    +0.000 A 
ATOM     11  C   UNL     1      -5.121  11.878  17.602  0.00  0.00    +0.000 A 
ATOM     12  C   UNL     1      -5.030  11.625  18.980  0.00  0.00    +0.000 A 
BRANCH   7  13
ATOM     13  O   UNL     1      -5.998  11.953  21.216  0.00  0.00    +0.000 OA
BRANCH  13  14
ATOM     14  C   UNL     1      -6.226  13.083  22.061  0.00  0.00    +0.000 C 
BRANCH  14  16
ATOM     15  O   UNL     1      -4.542  14.508  23.059  0.00  0.00    +0.000 OA
ATOM     16  C   UNL     1      -4.940  13.378  22.811  0.00  0.00    +0.000 C 
BRANCH  16  17
ATOM     17  O   UNL     1      -4.243  12.268  23.152  0.00  0.00    +0.000 OA
ATOM     18  H   UNL     1      -4.863  11.583  23.489  0.00  0.00    +0.000 HD
ENDBRANCH  16  17
ENDBRANCH  14  16
ENDBRANCH  13  14
ENDBRANCH   7  13
ENDBRANCH   1  11
BRANCH   5  19
ATOM     19  C   UNL     1      -1.891  11.257  17.669  0.00  0.00    +0.000 A 
ATOM     20  N   UNL     1      -1.683  10.426  18.670  0.00  0.00    +0.000 NA
ATOM     21  C   UNL     1      -0.869  11.113  19.534  0.00  0.00    +0.000 A 
ATOM     22  C   UNL     1      -0.586  12.361  19.010  0.00  0.00    +0.000 A 
ATOM     23  O   UNL     1      -1.193  12.432  17.780  0.00  0.00    +0.000 OA
BRANCH  21  24
ATOM     24  C   UNL     1      -0.444  10.539  20.798  0.00  0.00    +0.000 A 
ATOM     25  C   UNL     1      -1.069  10.958  21.979  0.00  0.00    +0.000 A 
ATOM     26  C   UNL     1      -0.711  10.403  23.208  0.00  0.00    +0.000 A 
ATOM     27  C   UNL     1       0.279   9.425  23.268  0.00  0.00    +0.000 A 
ATOM     28  C   UNL     1       0.929   9.023  22.103  0.00  0.00    +0.000 A 
ATOM     29  C   UNL     1       0.584   9.589  20.877  0.00  0.00    +0.000 A 
ENDBRANCH  21  24
BRANCH  22  30
ATOM     30  C   UNL     1       0.149  13.546  19.427  0.00  0.00    +0.000 A 
ATOM     31  C   UNL     1       1.132  13.467  20.422  0.00  0.00    +0.000 A 
ATOM     32  C   UNL     1       1.783  14.614  20.878  0.00  0.00    +0.000 A 
ATOM     33  C   UNL     1       1.477  15.854  20.325  0.00  0.00    +0.000 A 
ATOM     34  C   UNL     1       0.516  15.949  19.321  0.00  0.00    +0.000 A 
ATOM     35  C   UNL     1      -0.149  14.803  18.876  0.00  0.00    +0.000 A 
ENDBRANCH  22  30
ENDBRANCH   5  19
TORSDOF 8
ENDMDL
