MODEL 1
REMARK VINA RESULT:      -7.9      0.000      0.000
REMARK  Name = 
REMARK  4 active torsions:
REMARK  status: ('A' for Active; 'I' for Inactive)
REMARK    1  A    between atoms: C_3  and  C_4
REMARK    2  A    between atoms: C_8  and  C_9
REMARK    3  A    between atoms: C_9  and  C_10
REMARK    4  A    between atoms: C_15  and  C_16
REMARK                            x       y       z     vdW  Elec       q    Type
REMARK                         _______ _______ _______ _____ _____    ______ ____
ROOT
ATOM      1  C   UNL     1       0.679  11.604  19.532  0.00  0.00    +0.000 C 
ENDROOT
BRANCH   1   6
ATOM      2  C   UNL     1      -4.465  13.276  21.925  0.00  0.00    +0.000 A 
ATOM      3  N   UNL     1      -3.206  13.218  22.325  0.00  0.00    +0.000 NA
ATOM      4  C   UNL     1      -2.539  12.729  21.229  0.00  0.00    +0.000 A 
ATOM      5  C   UNL     1      -1.183  12.440  21.026  0.00  0.00    +0.000 A 
ATOM      6  C   UNL     1      -0.779  11.926  19.775  0.00  0.00    +0.000 A 
ATOM      7  C   UNL     1      -1.730  11.730  18.754  0.00  0.00    +0.000 A 
ATOM      8  C   UNL     1      -3.088  12.016  18.942  0.00  0.00    +0.000 A 
ATOM      9  C   UNL     1      -3.430  12.507  20.195  0.00  0.00    +0.000 A 
ATOM     10  O   UNL     1      -4.673  12.855  20.633  0.00  0.00    +0.000 OA
BRANCH   2  13
ATOM     11  C   UNL     1      -7.199  15.453  23.233  0.00  0.00    +0.000 A 
ATOM     12  C   UNL     1      -6.071  15.053  22.537  0.00  0.00    +0.000 A 
ATOM     13  C   UNL     1      -5.643  13.728  22.657  0.00  0.00    +0.000 A 
ATOM     14  C   UNL     1      -6.373  12.866  23.482  0.00  0.00    +0.000 A 
ATOM     15  C   UNL     1      -7.487  13.360  24.138  0.00  0.00    +0.000 A 
ATOM     16  N   UNL     1      -7.917  14.634  24.031  0.00  0.00    +0.000 NA
ENDBRANCH   2  13
ENDBRANCH   1   6
BRANCH   1  17
ATOM     17  C   UNL     1       1.032  10.159  19.807  0.00  0.00    +0.000 A 
ATOM     18  C   UNL     1       0.913   9.636  21.110  0.00  0.00    +0.000 A 
ATOM     19  C   UNL     1       1.244   8.306  21.408  0.00  0.00    +0.000 A 
ATOM     20  C   UNL     1       1.697   7.545  20.339  0.00  0.00    +0.000 A 
ATOM     21  O   UNL     1       2.080   6.237  20.357  0.00  0.00    +0.000 OA
ATOM     22  C   UNL     1       2.428   5.975  19.054  0.00  0.00    +0.000 A 
ATOM     23  N   UNL     1       2.300   7.005  18.234  0.00  0.00    +0.000 NA
ATOM     24  C   UNL     1       1.834   8.010  19.044  0.00  0.00    +0.000 A 
ATOM     25  C   UNL     1       1.500   9.340  18.759  0.00  0.00    +0.000 A 
BRANCH  22  26
ATOM     26  C   UNL     1       2.865   4.617  18.752  0.00  0.00    +0.000 A 
ATOM     27  C   UNL     1       2.162   3.789  17.872  0.00  0.00    +0.000 A 
ATOM     28  C   UNL     1       2.653   2.518  17.623  0.00  0.00    +0.000 A 
ATOM     29  N   UNL     1       3.776   2.025  18.183  0.00  0.00    +0.000 NA
ATOM     30  C   UNL     1       4.439   2.836  19.032  0.00  0.00    +0.000 A 
ATOM     31  C   UNL     1       4.029   4.119  19.345  0.00  0.00    +0.000 A 
ENDBRANCH  22  26
ENDBRANCH   1  17
TORSDOF 4
ENDMDL
MODEL 2
REMARK VINA RESULT:      -7.9      4.434      5.603
REMARK  Name = 
REMARK  4 active torsions:
REMARK  status: ('A' for Active; 'I' for Inactive)
REMARK    1  A    between atoms: C_3  and  C_4
REMARK    2  A    between atoms: C_8  and  C_9
REMARK    3  A    between atoms: C_9  and  C_10
REMARK    4  A    between atoms: C_15  and  C_16
REMARK                            x       y       z     vdW  Elec       q    Type
REMARK                         _______ _______ _______ _____ _____    ______ ____
ROOT
ATOM      1  C   UNL     1       0.396   8.663  21.266  0.00  0.00    +0.000 C 
ENDROOT
BRANCH   1   6
ATOM      2  C   UNL     1       0.990  14.113  19.043  0.00  0.00    +0.000 A 
ATOM      3  N   UNL     1       1.601  13.393  19.969  0.00  0.00    +0.000 NA
ATOM      4  C   UNL     1       0.927  12.197  19.948  0.00  0.00    +0.000 A 
ATOM      5  C   UNL     1       1.099  11.028  20.700  0.00  0.00    +0.000 A 
ATOM      6  C   UNL     1       0.234   9.937  20.465  0.00  0.00    +0.000 A 
ATOM      7  C   UNL     1      -0.767  10.033  19.477  0.00  0.00    +0.000 A 
ATOM      8  C   UNL     1      -0.949  11.195  18.717  0.00  0.00    +0.000 A 
ATOM      9  C   UNL     1      -0.078  12.239  18.999  0.00  0.00    +0.000 A 
ATOM     10  O   UNL     1      -0.047  13.468  18.412  0.00  0.00    +0.000 OA
BRANCH   2  13
ATOM     11  C   UNL     1       2.757  17.089  17.649  0.00  0.00    +0.000 A 
ATOM     12  C   UNL     1       2.522  15.792  18.070  0.00  0.00    +0.000 A 
ATOM     13  C   UNL     1       1.269  15.475  18.603  0.00  0.00    +0.000 A 
ATOM     14  C   UNL     1       0.310  16.490  18.693  0.00  0.00    +0.000 A 
ATOM     15  C   UNL     1       0.640  17.757  18.246  0.00  0.00    +0.000 A 
ATOM     16  N   UNL     1       1.842  18.079  17.725  0.00  0.00    +0.000 NA
ENDBRANCH   2  13
ENDBRANCH   1   6
BRANCH   1  17
ATOM     17  C   UNL     1       1.266   7.630  20.585  0.00  0.00    +0.000 A 
ATOM     18  C   UNL     1       1.311   6.308  21.073  0.00  0.00    +0.000 A 
ATOM     19  C   UNL     1       2.115   5.326  20.479  0.00  0.00    +0.000 A 
ATOM     20  C   UNL     1       2.863   5.740  19.385  0.00  0.00    +0.000 A 
ATOM     21  O   UNL     1       3.716   4.990  18.633  0.00  0.00    +0.000 OA
ATOM     22  C   UNL     1       4.184   5.869  17.686  0.00  0.00    +0.000 A 
ATOM     23  N   UNL     1       3.700   7.095  17.789  0.00  0.00    +0.000 NA
ATOM     24  C   UNL     1       2.856   7.024  18.869  0.00  0.00    +0.000 A 
ATOM     25  C   UNL     1       2.048   7.997  19.471  0.00  0.00    +0.000 A 
BRANCH  22  26
ATOM     26  C   UNL     1       5.118   5.337  16.701  0.00  0.00    +0.000 A 
ATOM     27  C   UNL     1       6.338   5.960  16.422  0.00  0.00    +0.000 A 
ATOM     28  C   UNL     1       7.179   5.381  15.485  0.00  0.00    +0.000 A 
ATOM     29  N   UNL     1       6.889   4.245  14.818  0.00  0.00    +0.000 NA
ATOM     30  C   UNL     1       5.706   3.661  15.096  0.00  0.00    +0.000 A 
ATOM     31  C   UNL     1       4.800   4.161  16.014  0.00  0.00    +0.000 A 
ENDBRANCH  22  26
ENDBRANCH   1  17
TORSDOF 4
ENDMDL
MODEL 3
REMARK VINA RESULT:      -7.9      1.477     11.339
REMARK  Name = 
REMARK  4 active torsions:
REMARK  status: ('A' for Active; 'I' for Inactive)
REMARK    1  A    between atoms: C_3  and  C_4
REMARK    2  A    between atoms: C_8  and  C_9
REMARK    3  A    between atoms: C_9  and  C_10
REMARK    4  A    between atoms: C_15  and  C_16
REMARK                            x       y       z     vdW  Elec       q    Type
REMARK                         _______ _______ _______ _____ _____    ______ ____
ROOT
ATOM      1  C   UNL     1       0.987  10.674  18.414  0.00  0.00    +0.000 C 
ENDROOT
BRANCH   1   6
ATOM      2  C   UNL     1       2.819   5.075  18.940  0.00  0.00    +0.000 A 
ATOM      3  N   UNL     1       2.737   5.959  17.960  0.00  0.00    +0.000 NA
ATOM      4  C   UNL     1       2.215   7.073  18.571  0.00  0.00    +0.000 A 
ATOM      5  C   UNL     1       1.891   8.337  18.062  0.00  0.00    +0.000 A 
ATOM      6  C   UNL     1       1.349   9.302  18.939  0.00  0.00    +0.000 A 
ATOM      7  C   UNL     1       1.160   8.989  20.300  0.00  0.00    +0.000 A 
ATOM      8  C   UNL     1       1.482   7.729  20.822  0.00  0.00    +0.000 A 
ATOM      9  C   UNL     1       2.000   6.817  19.913  0.00  0.00    +0.000 A 
ATOM     10  O   UNL     1       2.384   5.534  20.161  0.00  0.00    +0.000 OA
BRANCH   2  13
ATOM     11  C   UNL     1       4.517   1.896  19.909  0.00  0.00    +0.000 A 
ATOM     12  C   UNL     1       4.073   3.206  19.964  0.00  0.00    +0.000 A 
ATOM     13  C   UNL     1       3.311   3.702  18.903  0.00  0.00    +0.000 A 
ATOM     14  C   UNL     1       3.038   2.850  17.827  0.00  0.00    +0.000 A 
ATOM     15  C   UNL     1       3.527   1.556  17.863  0.00  0.00    +0.000 A 
ATOM     16  N   UNL     1       4.260   1.060  18.881  0.00  0.00    +0.000 NA
ENDBRANCH   2  13
ENDBRANCH   1   6
BRANCH   1  17
ATOM     17  C   UNL     1      -0.492  10.980  18.494  0.00  0.00    +0.000 A 
ATOM     18  C   UNL     1      -1.386  10.408  17.567  0.00  0.00    +0.000 A 
ATOM     19  C   UNL     1      -2.761  10.679  17.599  0.00  0.00    +0.000 A 
ATOM     20  C   UNL     1      -3.181  11.547  18.598  0.00  0.00    +0.000 A 
ATOM     21  O   UNL     1      -4.452  11.970  18.847  0.00  0.00    +0.000 OA
ATOM     22  C   UNL     1      -4.317  12.800  19.934  0.00  0.00    +0.000 A 
ATOM     23  N   UNL     1      -3.077  12.932  20.374  0.00  0.00    +0.000 NA
ATOM     24  C   UNL     1      -2.345  12.136  19.529  0.00  0.00    +0.000 A 
ATOM     25  C   UNL     1      -0.973  11.858  19.487  0.00  0.00    +0.000 A 
BRANCH  22  26
ATOM     26  C   UNL     1      -5.539  13.398  20.458  0.00  0.00    +0.000 A 
ATOM     27  C   UNL     1      -5.583  14.028  21.705  0.00  0.00    +0.000 A 
ATOM     28  C   UNL     1      -6.778  14.588  22.124  0.00  0.00    +0.000 A 
ATOM     29  N   UNL     1      -7.914  14.561  21.397  0.00  0.00    +0.000 NA
ATOM     30  C   UNL     1      -7.856  13.945  20.199  0.00  0.00    +0.000 A 
ATOM     31  C   UNL     1      -6.710  13.356  19.694  0.00  0.00    +0.000 A 
ENDBRANCH  22  26
ENDBRANCH   1  17
TORSDOF 4
ENDMDL
MODEL 4
REMARK VINA RESULT:      -7.9      4.346     11.472
REMARK  Name = 
REMARK  4 active torsions:
REMARK  status: ('A' for Active; 'I' for Inactive)
REMARK    1  A    between atoms: C_3  and  C_4
REMARK    2  A    between atoms: C_8  and  C_9
REMARK    3  A    between atoms: C_9  and  C_10
REMARK    4  A    between atoms: C_15  and  C_16
REMARK                            x       y       z     vdW  Elec       q    Type
REMARK                         _______ _______ _______ _____ _____    ______ ____
ROOT
ATOM      1  C   UNL     1       0.630   8.395  21.284  0.00  0.00    +0.000 C 
ENDROOT
BRANCH   1   6
ATOM      2  C   UNL     1       4.258   5.785  17.409  0.00  0.00    +0.000 A 
ATOM      3  N   UNL     1       3.812   7.013  17.615  0.00  0.00    +0.000 NA
ATOM      4  C   UNL     1       2.996   6.884  18.712  0.00  0.00    +0.000 A 
ATOM      5  C   UNL     1       2.232   7.827  19.410  0.00  0.00    +0.000 A 
ATOM      6  C   UNL     1       1.466   7.396  20.515  0.00  0.00    +0.000 A 
ATOM      7  C   UNL     1       1.496   6.042  20.907  0.00  0.00    +0.000 A 
ATOM      8  C   UNL     1       2.258   5.089  20.219  0.00  0.00    +0.000 A 
ATOM      9  C   UNL     1       2.980   5.567  19.134  0.00  0.00    +0.000 A 
ATOM     10  O   UNL     1       3.788   4.851  18.302  0.00  0.00    +0.000 OA
BRANCH   2  13
ATOM     11  C   UNL     1       7.371   5.190  15.439  0.00  0.00    +0.000 A 
ATOM     12  C   UNL     1       6.520   5.676  16.417  0.00  0.00    +0.000 A 
ATOM     13  C   UNL     1       5.174   5.297  16.385  0.00  0.00    +0.000 A 
ATOM     14  C   UNL     1       4.748   4.448  15.359  0.00  0.00    +0.000 A 
ATOM     15  C   UNL     1       5.674   4.015  14.426  0.00  0.00    +0.000 A 
ATOM     16  N   UNL     1       6.977   4.367  14.445  0.00  0.00    +0.000 NA
ENDBRANCH   2  13
ENDBRANCH   1   6
BRANCH   1  17
ATOM     17  C   UNL     1       0.328   9.657  20.506  0.00  0.00    +0.000 A 
ATOM     18  C   UNL     1      -0.641   9.645  19.483  0.00  0.00    +0.000 A 
ATOM     19  C   UNL     1      -0.938  10.790  18.730  0.00  0.00    +0.000 A 
ATOM     20  C   UNL     1      -0.214  11.929  19.056  0.00  0.00    +0.000 A 
ATOM     21  O   UNL     1      -0.309  13.162  18.484  0.00  0.00    +0.000 OA
ATOM     22  C   UNL     1       0.610  13.918  19.171  0.00  0.00    +0.000 A 
ATOM     23  N   UNL     1       1.267  13.261  20.112  0.00  0.00    +0.000 NA
ATOM     24  C   UNL     1       0.749  11.993  20.047  0.00  0.00    +0.000 A 
ATOM     25  C   UNL     1       1.036  10.842  20.793  0.00  0.00    +0.000 A 
BRANCH  22  26
ATOM     26  C   UNL     1       0.721  15.321  18.791  0.00  0.00    +0.000 A 
ATOM     27  C   UNL     1       1.958  15.945  18.606  0.00  0.00    +0.000 A 
ATOM     28  C   UNL     1       1.979  17.277  18.227  0.00  0.00    +0.000 A 
ATOM     29  N   UNL     1       0.869  18.017  18.026  0.00  0.00    +0.000 NA
ATOM     30  C   UNL     1      -0.316  17.401  18.215  0.00  0.00    +0.000 A 
ATOM     31  C   UNL     1      -0.440  16.076  18.593  0.00  0.00    +0.000 A 
ENDBRANCH  22  26
ENDBRANCH   1  17
TORSDOF 4
ENDMDL
MODEL 5
REMARK VINA RESULT:      -7.8      4.440     11.458
REMARK  Name = 
REMARK  4 active torsions:
REMARK  status: ('A' for Active; 'I' for Inactive)
REMARK    1  A    between atoms: C_3  and  C_4
REMARK    2  A    between atoms: C_8  and  C_9
REMARK    3  A    between atoms: C_9  and  C_10
REMARK    4  A    between atoms: C_15  and  C_16
REMARK                            x       y       z     vdW  Elec       q    Type
REMARK                         _______ _______ _______ _____ _____    ______ ____
ROOT
ATOM      1  C   UNL     1       0.548   8.479  21.172  0.00  0.00    +0.000 C 
ENDROOT
BRANCH   1   6
ATOM      2  C   UNL     1       4.285   5.834  17.426  0.00  0.00    +0.000 A 
ATOM      3  N   UNL     1       3.816   7.059  17.594  0.00  0.00    +0.000 NA
ATOM      4  C   UNL     1       2.984   6.943  18.679  0.00  0.00    +0.000 A 
ATOM      5  C   UNL     1       2.192   7.892  19.341  0.00  0.00    +0.000 A 
ATOM      6  C   UNL     1       1.414   7.475  20.442  0.00  0.00    +0.000 A 
ATOM      7  C   UNL     1       1.458   6.132  20.868  0.00  0.00    +0.000 A 
ATOM      8  C   UNL     1       2.246   5.174  20.217  0.00  0.00    +0.000 A 
ATOM      9  C   UNL     1       2.980   5.637  19.133  0.00  0.00    +0.000 A 
ATOM     10  O   UNL     1       3.813   4.914  18.333  0.00  0.00    +0.000 OA
BRANCH   2  13
ATOM     11  C   UNL     1       5.691   4.051  14.465  0.00  0.00    +0.000 A 
ATOM     12  C   UNL     1       4.778   4.500  15.404  0.00  0.00    +0.000 A 
ATOM     13  C   UNL     1       5.227   5.336  16.430  0.00  0.00    +0.000 A 
ATOM     14  C   UNL     1       6.583   5.675  16.465  0.00  0.00    +0.000 A 
ATOM     15  C   UNL     1       7.419   5.175  15.481  0.00  0.00    +0.000 A 
ATOM     16  N   UNL     1       7.002   4.371  14.482  0.00  0.00    +0.000 NA
ENDBRANCH   2  13
ENDBRANCH   1   6
BRANCH   1  17
ATOM     17  C   UNL     1       0.326   9.760  20.399  0.00  0.00    +0.000 A 
ATOM     18  C   UNL     1      -0.623   9.804  19.359  0.00  0.00    +0.000 A 
ATOM     19  C   UNL     1      -0.848  10.968  18.609  0.00  0.00    +0.000 A 
ATOM     20  C   UNL     1      -0.074  12.066  18.958  0.00  0.00    +0.000 A 
ATOM     21  O   UNL     1      -0.095  13.307  18.394  0.00  0.00    +0.000 OA
ATOM     22  C   UNL     1       0.847  14.010  19.105  0.00  0.00    +0.000 A 
ATOM     23  N   UNL     1       1.452  13.315  20.053  0.00  0.00    +0.000 NA
ATOM     24  C   UNL     1       0.872  12.075  19.967  0.00  0.00    +0.000 A 
ATOM     25  C   UNL     1       1.087  10.906  20.709  0.00  0.00    +0.000 A 
BRANCH  22  26
ATOM     26  C   UNL     1       1.036  15.409  18.739  0.00  0.00    +0.000 A 
ATOM     27  C   UNL     1       0.007  16.350  18.841  0.00  0.00    +0.000 A 
ATOM     28  C   UNL     1       0.273  17.664  18.490  0.00  0.00    +0.000 A 
ATOM     29  N   UNL     1       1.473  18.094  18.051  0.00  0.00    +0.000 NA
ATOM     30  C   UNL     1       2.452  17.173  17.953  0.00  0.00    +0.000 A 
ATOM     31  C   UNL     1       2.285  15.839  18.279  0.00  0.00    +0.000 A 
ENDBRANCH  22  26
ENDBRANCH   1  17
TORSDOF 4
ENDMDL
MODEL 6
REMARK VINA RESULT:      -7.8      5.273     10.694
REMARK  Name = 
REMARK  4 active torsions:
REMARK  status: ('A' for Active; 'I' for Inactive)
REMARK    1  A    between atoms: C_3  and  C_4
REMARK    2  A    between atoms: C_8  and  C_9
REMARK    3  A    between atoms: C_9  and  C_10
REMARK    4  A    between atoms: C_15  and  C_16
REMARK                            x       y       z     vdW  Elec       q    Type
REMARK                         _______ _______ _______ _____ _____    ______ ____
ROOT
ATOM      1  C   UNL     1       0.561  12.453  18.735  0.00  0.00    +0.000 C 
ENDROOT
BRANCH   1   6
ATOM      2  C   UNL     1       2.467   6.854  18.780  0.00  0.00    +0.000 A 
ATOM      3  N   UNL     1       2.425   7.836  17.895  0.00  0.00    +0.000 NA
ATOM      4  C   UNL     1       1.847   8.872  18.587  0.00  0.00    +0.000 A 
ATOM      5  C   UNL     1       1.529  10.179  18.195  0.00  0.00    +0.000 A 
ATOM      6  C   UNL     1       0.918  11.038  19.134  0.00  0.00    +0.000 A 
ATOM      7  C   UNL     1       0.657  10.580  20.441  0.00  0.00    +0.000 A 
ATOM      8  C   UNL     1       0.972   9.277  20.846  0.00  0.00    +0.000 A 
ATOM      9  C   UNL     1       1.559   8.473  19.879  0.00  0.00    +0.000 A 
ATOM     10  O   UNL     1       1.953   7.176  20.014  0.00  0.00    +0.000 OA
BRANCH   2  13
ATOM     11  C   UNL     1       2.806   3.292  17.720  0.00  0.00    +0.000 A 
ATOM     12  C   UNL     1       2.286   4.568  17.857  0.00  0.00    +0.000 A 
ATOM     13  C   UNL     1       2.987   5.500  18.628  0.00  0.00    +0.000 A 
ATOM     14  C   UNL     1       4.181   5.096  19.233  0.00  0.00    +0.000 A 
ATOM     15  C   UNL     1       4.620   3.798  19.038  0.00  0.00    +0.000 A 
ATOM     16  N   UNL     1       3.959   2.888  18.294  0.00  0.00    +0.000 NA
ENDBRANCH   2  13
ENDBRANCH   1   6
BRANCH   1  17
ATOM     17  C   UNL     1       1.660  13.454  19.013  0.00  0.00    +0.000 A 
ATOM     18  C   UNL     1       1.470  14.468  19.972  0.00  0.00    +0.000 A 
ATOM     19  C   UNL     1       2.460  15.423  20.247  0.00  0.00    +0.000 A 
ATOM     20  C   UNL     1       3.632  15.305  19.512  0.00  0.00    +0.000 A 
ATOM     21  O   UNL     1       4.739  16.095  19.586  0.00  0.00    +0.000 OA
ATOM     22  C   UNL     1       5.599  15.548  18.664  0.00  0.00    +0.000 A 
ATOM     23  N   UNL     1       5.120  14.494  18.025  0.00  0.00    +0.000 NA
ATOM     24  C   UNL     1       3.867  14.331  18.558  0.00  0.00    +0.000 A 
ATOM     25  C   UNL     1       2.871  13.383  18.293  0.00  0.00    +0.000 A 
BRANCH  22  26
ATOM     26  C   UNL     1       6.907  16.179  18.531  0.00  0.00    +0.000 A 
ATOM     27  C   UNL     1       7.196  17.419  19.107  0.00  0.00    +0.000 A 
ATOM     28  C   UNL     1       8.469  17.942  18.951  0.00  0.00    +0.000 A 
ATOM     29  N   UNL     1       9.455  17.324  18.269  0.00  0.00    +0.000 NA
ATOM     30  C   UNL     1       9.157  16.131  17.715  0.00  0.00    +0.000 A 
ATOM     31  C   UNL     1       7.917  15.527  17.816  0.00  0.00    +0.000 A 
ENDBRANCH  22  26
ENDBRANCH   1  17
TORSDOF 4
ENDMDL
MODEL 7
REMARK VINA RESULT:      -7.8      4.442      5.550
REMARK  Name = 
REMARK  4 active torsions:
REMARK  status: ('A' for Active; 'I' for Inactive)
REMARK    1  A    between atoms: C_3  and  C_4
REMARK    2  A    between atoms: C_8  and  C_9
REMARK    3  A    between atoms: C_9  and  C_10
REMARK    4  A    between atoms: C_15  and  C_16
REMARK                            x       y       z     vdW  Elec       q    Type
REMARK                         _______ _______ _______ _____ _____    ______ ____
ROOT
ATOM      1  C   UNL     1       0.475   8.525  21.261  0.00  0.00    +0.000 C 
ENDROOT
BRANCH   1   6
ATOM      2  C   UNL     1       1.040  14.038  19.193  0.00  0.00    +0.000 A 
ATOM      3  N   UNL     1       1.651  13.298  20.102  0.00  0.00    +0.000 NA
ATOM      4  C   UNL     1       0.986  12.098  20.044  0.00  0.00    +0.000 A 
ATOM      5  C   UNL     1       1.163  10.909  20.765  0.00  0.00    +0.000 A 
ATOM      6  C   UNL     1       0.307   9.819  20.495  0.00  0.00    +0.000 A 
ATOM      7  C   UNL     1      -0.688   9.934  19.503  0.00  0.00    +0.000 A 
ATOM      8  C   UNL     1      -0.874  11.116  18.775  0.00  0.00    +0.000 A 
ATOM      9  C   UNL     1      -0.013  12.158  19.091  0.00  0.00    +0.000 A 
ATOM     10  O   UNL     1       0.012  13.403  18.537  0.00  0.00    +0.000 OA
BRANCH   2  13
ATOM     11  C   UNL     1       0.672  17.719  18.699  0.00  0.00    +0.000 A 
ATOM     12  C   UNL     1       0.384  16.419  19.081  0.00  0.00    +0.000 A 
ATOM     13  C   UNL     1       1.311  15.414  18.792  0.00  0.00    +0.000 A 
ATOM     14  C   UNL     1       2.486  15.768  18.120  0.00  0.00    +0.000 A 
ATOM     15  C   UNL     1       2.683  17.094  17.779  0.00  0.00    +0.000 A 
ATOM     16  N   UNL     1       1.802  18.078  18.055  0.00  0.00    +0.000 NA
ENDBRANCH   2  13
ENDBRANCH   1   6
BRANCH   1  17
ATOM     17  C   UNL     1       1.339   7.509  20.548  0.00  0.00    +0.000 A 
ATOM     18  C   UNL     1       1.383   6.175  20.999  0.00  0.00    +0.000 A 
ATOM     19  C   UNL     1       2.183   5.207  20.374  0.00  0.00    +0.000 A 
ATOM     20  C   UNL     1       2.926   5.651  19.289  0.00  0.00    +0.000 A 
ATOM     21  O   UNL     1       3.775   4.920  18.512  0.00  0.00    +0.000 OA
ATOM     22  C   UNL     1       4.240   5.824  17.588  0.00  0.00    +0.000 A 
ATOM     23  N   UNL     1       3.759   7.048  17.727  0.00  0.00    +0.000 NA
ATOM     24  C   UNL     1       2.920   6.948  18.808  0.00  0.00    +0.000 A 
ATOM     25  C   UNL     1       2.118   7.905  19.441  0.00  0.00    +0.000 A 
BRANCH  22  26
ATOM     26  C   UNL     1       5.168   5.318  16.584  0.00  0.00    +0.000 A 
ATOM     27  C   UNL     1       4.750   4.502  15.529  0.00  0.00    +0.000 A 
ATOM     28  C   UNL     1       5.691   4.077  14.606  0.00  0.00    +0.000 A 
ATOM     29  N   UNL     1       6.999   4.403  14.664  0.00  0.00    +0.000 NA
ATOM     30  C   UNL     1       7.386   5.186  15.691  0.00  0.00    +0.000 A 
ATOM     31  C   UNL     1       6.522   5.660  16.663  0.00  0.00    +0.000 A 
ENDBRANCH  22  26
ENDBRANCH   1  17
TORSDOF 4
ENDMDL
MODEL 8
REMARK VINA RESULT:      -7.8      0.938     11.302
REMARK  Name = 
REMARK  4 active torsions:
REMARK  status: ('A' for Active; 'I' for Inactive)
REMARK    1  A    between atoms: C_3  and  C_4
REMARK    2  A    between atoms: C_8  and  C_9
REMARK    3  A    between atoms: C_9  and  C_10
REMARK    4  A    between atoms: C_15  and  C_16
REMARK                            x       y       z     vdW  Elec       q    Type
REMARK                         _______ _______ _______ _____ _____    ______ ____
ROOT
ATOM      1  C   UNL     1       0.915  11.062  18.721  0.00  0.00    +0.000 C 
ENDROOT
BRANCH   1   6
ATOM      2  C   UNL     1       2.614   5.402  18.995  0.00  0.00    +0.000 A 
ATOM      3  N   UNL     1       2.543   6.328  18.054  0.00  0.00    +0.000 NA
ATOM      4  C   UNL     1       2.055   7.428  18.715  0.00  0.00    +0.000 A 
ATOM      5  C   UNL     1       1.757   8.720  18.263  0.00  0.00    +0.000 A 
ATOM      6  C   UNL     1       1.248   9.660  19.185  0.00  0.00    +0.000 A 
ATOM      7  C   UNL     1       1.067   9.296  20.534  0.00  0.00    +0.000 A 
ATOM      8  C   UNL     1       1.363   8.009  21.000  0.00  0.00    +0.000 A 
ATOM      9  C   UNL     1       1.848   7.122  20.048  0.00  0.00    +0.000 A 
ATOM     10  O   UNL     1       2.203   5.821  20.239  0.00  0.00    +0.000 OA
BRANCH   2  13
ATOM     11  C   UNL     1       4.390   2.201  19.720  0.00  0.00    +0.000 A 
ATOM     12  C   UNL     1       3.981   3.519  19.830  0.00  0.00    +0.000 A 
ATOM     13  C   UNL     1       3.070   4.021  18.895  0.00  0.00    +0.000 A 
ATOM     14  C   UNL     1       2.619   3.166  17.885  0.00  0.00    +0.000 A 
ATOM     15  C   UNL     1       3.086   1.864  17.857  0.00  0.00    +0.000 A 
ATOM     16  N   UNL     1       3.961   1.363  18.753  0.00  0.00    +0.000 NA
ENDBRANCH   2  13
ENDBRANCH   1   6
BRANCH   1  17
ATOM     17  C   UNL     1      -0.496  11.490  19.060  0.00  0.00    +0.000 A 
ATOM     18  C   UNL     1      -1.559  11.182  18.188  0.00  0.00    +0.000 A 
ATOM     19  C   UNL     1      -2.877  11.574  18.459  0.00  0.00    +0.000 A 
ATOM     20  C   UNL     1      -3.063  12.286  19.637  0.00  0.00    +0.000 A 
ATOM     21  O   UNL     1      -4.234  12.778  20.131  0.00  0.00    +0.000 OA
ATOM     22  C   UNL     1      -3.868  13.384  21.308  0.00  0.00    +0.000 A 
ATOM     23  N   UNL     1      -2.577  13.314  21.584  0.00  0.00    +0.000 NA
ATOM     24  C   UNL     1      -2.055  12.616  20.524  0.00  0.00    +0.000 A 
ATOM     25  C   UNL     1      -0.742  12.218  20.242  0.00  0.00    +0.000 A 
BRANCH  22  26
ATOM     26  C   UNL     1      -4.936  13.994  22.092  0.00  0.00    +0.000 A 
ATOM     27  C   UNL     1      -4.674  14.863  23.155  0.00  0.00    +0.000 A 
ATOM     28  C   UNL     1      -5.744  15.416  23.839  0.00  0.00    +0.000 A 
ATOM     29  N   UNL     1      -7.035  15.163  23.541  0.00  0.00    +0.000 NA
ATOM     30  C   UNL     1      -7.270  14.318  22.517  0.00  0.00    +0.000 A 
ATOM     31  C   UNL     1      -6.269  13.716  21.775  0.00  0.00    +0.000 A 
ENDBRANCH  22  26
ENDBRANCH   1  17
TORSDOF 4
ENDMDL
MODEL 9
REMARK VINA RESULT:      -7.7      3.495      5.383
REMARK  Name = 
REMARK  4 active torsions:
REMARK  status: ('A' for Active; 'I' for Inactive)
REMARK    1  A    between atoms: C_3  and  C_4
REMARK    2  A    between atoms: C_8  and  C_9
REMARK    3  A    between atoms: C_9  and  C_10
REMARK    4  A    between atoms: C_15  and  C_16
REMARK                            x       y       z     vdW  Elec       q    Type
REMARK                         _______ _______ _______ _____ _____    ______ ____
ROOT
ATOM      1  C   UNL     1       2.403   6.153  20.531  0.00  0.00    +0.000 C 
ENDROOT
BRANCH   1   6
ATOM      2  C   UNL     1      -0.701  11.165  21.014  0.00  0.00    +0.000 A 
ATOM      3  N   UNL     1      -0.416  10.144  21.805  0.00  0.00    +0.000 NA
ATOM      4  C   UNL     1       0.369   9.335  21.022  0.00  0.00    +0.000 A 
ATOM      5  C   UNL     1       0.981   8.104  21.289  0.00  0.00    +0.000 A 
ATOM      6  C   UNL     1       1.735   7.485  20.269  0.00  0.00    +0.000 A 
ATOM      7  C   UNL     1       1.876   8.117  19.016  0.00  0.00    +0.000 A 
ATOM      8  C   UNL     1       1.271   9.349  18.736  0.00  0.00    +0.000 A 
ATOM      9  C   UNL     1       0.532   9.904  19.772  0.00  0.00    +0.000 A 
ATOM     10  O   UNL     1      -0.153  11.082  19.756  0.00  0.00    +0.000 OA
BRANCH   2  13
ATOM     11  C   UNL     1      -1.933  14.303  22.616  0.00  0.00    +0.000 A 
ATOM     12  C   UNL     1      -1.167  13.174  22.378  0.00  0.00    +0.000 A 
ATOM     13  C   UNL     1      -1.498  12.354  21.296  0.00  0.00    +0.000 A 
ATOM     14  C   UNL     1      -2.597  12.708  20.506  0.00  0.00    +0.000 A 
ATOM     15  C   UNL     1      -3.302  13.855  20.824  0.00  0.00    +0.000 A 
ATOM     16  N   UNL     1      -2.993  14.661  21.862  0.00  0.00    +0.000 NA
ENDBRANCH   2  13
ENDBRANCH   1   6
BRANCH   1  17
ATOM     17  C   UNL     1       2.881   5.460  19.274  0.00  0.00    +0.000 A 
ATOM     18  C   UNL     1       2.344   4.210  18.906  0.00  0.00    +0.000 A 
ATOM     19  C   UNL     1       2.772   3.529  17.757  0.00  0.00    +0.000 A 
ATOM     20  C   UNL     1       3.755   4.165  17.012  0.00  0.00    +0.000 A 
ATOM     21  O   UNL     1       4.339   3.723  15.862  0.00  0.00    +0.000 OA
ATOM     22  C   UNL     1       5.229   4.718  15.539  0.00  0.00    +0.000 A 
ATOM     23  N   UNL     1       5.252   5.732  16.387  0.00  0.00    +0.000 NA
ATOM     24  C   UNL     1       4.316   5.389  17.330  0.00  0.00    +0.000 A 
ATOM     25  C   UNL     1       3.881   6.059  18.481  0.00  0.00    +0.000 A 
BRANCH  22  26
ATOM     26  C   UNL     1       6.000   4.537  14.315  0.00  0.00    +0.000 A 
ATOM     27  C   UNL     1       7.188   5.234  14.074  0.00  0.00    +0.000 A 
ATOM     28  C   UNL     1       7.872   4.991  12.894  0.00  0.00    +0.000 A 
ATOM     29  N   UNL     1       7.458   4.117  11.954  0.00  0.00    +0.000 NA
ATOM     30  C   UNL     1       6.308   3.457  12.200  0.00  0.00    +0.000 A 
ATOM     31  C   UNL     1       5.554   3.631  13.347  0.00  0.00    +0.000 A 
ENDBRANCH  22  26
ENDBRANCH   1  17
TORSDOF 4
ENDMDL
