MODEL 1
REMARK VINA RESULT:      -6.7      0.000      0.000
REMARK  Name = 
REMARK  1 active torsions:
REMARK  status: ('A' for Active; 'I' for Inactive)
REMARK    1  A    between atoms: C_1  and  C_2
REMARK                            x       y       z     vdW  Elec       q    Type
REMARK                         _______ _______ _______ _____ _____    ______ ____
ROOT
ATOM      1  C   UNL     1       6.455   4.794  18.266  0.00  0.00    +0.000 C 
ATOM      2  C   UNL     1       5.003   4.647  17.797  0.00  0.00    +0.000 C 
ATOM      3  S   UNL     1       4.540   6.139  16.876  0.00  0.00    +0.000 S 
ATOM      4  C   UNL     1       3.439   6.988  17.988  0.00  0.00    +0.000 A 
ATOM      5  C   UNL     1       3.120   8.311  17.623  0.00  0.00    +0.000 A 
ATOM      6  C   UNL     1       2.191   9.054  18.349  0.00  0.00    +0.000 A 
ATOM      7  C   UNL     1       1.570   8.473  19.443  0.00  0.00    +0.000 A 
ATOM      8 CL   UNL     1       0.383   9.358  20.319  0.00  0.00    +0.000 Cl
ATOM      9  C   UNL     1       1.895   7.171  19.826  0.00  0.00    +0.000 A 
ATOM     10  C   UNL     1       2.846   6.398  19.115  0.00  0.00    +0.000 A 
ATOM     11  C   UNL     1       3.166   5.022  19.548  0.00  0.00    +0.000 A 
ATOM     12  N   UNL     1       2.479   4.581  20.633  0.00  0.00    +0.000 NA
ATOM     13  C   UNL     1       2.743   3.361  21.100  0.00  0.00    +0.000 A 
ATOM     14  N   UNL     1       2.085   2.942  22.235  0.00  0.00    +0.000 N 
ATOM     15  N   UNL     1       3.587   2.505  20.534  0.00  0.00    +0.000 NA
ATOM     16  C   UNL     1       4.251   2.960  19.461  0.00  0.00    +0.000 A 
ATOM     17  C   UNL     1       4.110   4.229  18.924  0.00  0.00    +0.000 A 
ATOM     18  H   UNL     1       1.205   3.425  22.333  0.00  0.00    +0.000 HD
ATOM     19  H   UNL     1       2.076   1.933  22.275  0.00  0.00    +0.000 HD
ENDROOT
TORSDOF 0
ENDMDL
MODEL 2
REMARK VINA RESULT:      -6.5      2.877      4.009
REMARK  Name = 
REMARK  1 active torsions:
REMARK  status: ('A' for Active; 'I' for Inactive)
REMARK    1  A    between atoms: C_1  and  C_2
REMARK                            x       y       z     vdW  Elec       q    Type
REMARK                         _______ _______ _______ _____ _____    ______ ____
ROOT
ATOM      1  C   UNL     1       2.905   1.862  17.913  0.00  0.00    +0.000 C 
ATOM      2  C   UNL     1       3.829   2.819  18.676  0.00  0.00    +0.000 C 
ATOM      3  S   UNL     1       3.028   3.271  20.239  0.00  0.00    +0.000 S 
ATOM      4  C   UNL     1       2.529   4.960  19.975  0.00  0.00    +0.000 A 
ATOM      5  C   UNL     1       1.656   5.487  20.947  0.00  0.00    +0.000 A 
ATOM      6  C   UNL     1       1.269   6.825  20.917  0.00  0.00    +0.000 A 
ATOM      7  C   UNL     1       1.760   7.647  19.915  0.00  0.00    +0.000 A 
ATOM      8 CL   UNL     1       1.333   9.313  19.893  0.00  0.00    +0.000 Cl
ATOM      9  C   UNL     1       2.606   7.130  18.934  0.00  0.00    +0.000 A 
ATOM     10  C   UNL     1       3.005   5.770  18.932  0.00  0.00    +0.000 A 
ATOM     11  C   UNL     1       3.903   5.255  17.878  0.00  0.00    +0.000 A 
ATOM     12  N   UNL     1       4.309   6.172  16.963  0.00  0.00    +0.000 NA
ATOM     13  C   UNL     1       5.094   5.770  15.963  0.00  0.00    +0.000 A 
ATOM     14  N   UNL     1       5.454   6.692  15.006  0.00  0.00    +0.000 N 
ATOM     15  N   UNL     1       5.573   4.537  15.833  0.00  0.00    +0.000 NA
ATOM     16  C   UNL     1       5.164   3.650  16.751  0.00  0.00    +0.000 A 
ATOM     17  C   UNL     1       4.300   3.933  17.795  0.00  0.00    +0.000 A 
ATOM     18  H   UNL     1       5.429   7.626  15.387  0.00  0.00    +0.000 HD
ATOM     19  H   UNL     1       6.299   6.395  14.541  0.00  0.00    +0.000 HD
ENDROOT
TORSDOF 0
ENDMDL
MODEL 3
REMARK VINA RESULT:      -6.5      0.991      1.147
REMARK  Name = 
REMARK  1 active torsions:
REMARK  status: ('A' for Active; 'I' for Inactive)
REMARK    1  A    between atoms: C_1  and  C_2
REMARK                            x       y       z     vdW  Elec       q    Type
REMARK                         _______ _______ _______ _____ _____    ______ ____
ROOT
ATOM      1  C   UNL     1       5.748   5.470  18.434  0.00  0.00    +0.000 C 
ATOM      2  C   UNL     1       4.268   5.304  18.069  0.00  0.00    +0.000 C 
ATOM      3  S   UNL     1       3.620   6.916  17.545  0.00  0.00    +0.000 S 
ATOM      4  C   UNL     1       2.584   7.408  18.907  0.00  0.00    +0.000 A 
ATOM      5  C   UNL     1       2.146   8.746  18.875  0.00  0.00    +0.000 A 
ATOM      6  C   UNL     1       1.249   9.233  19.824  0.00  0.00    +0.000 A 
ATOM      7  C   UNL     1       0.780   8.379  20.810  0.00  0.00    +0.000 A 
ATOM      8 CL   UNL     1      -0.366   8.950  21.958  0.00  0.00    +0.000 Cl
ATOM      9  C   UNL     1       1.226   7.058  20.865  0.00  0.00    +0.000 A 
ATOM     10  C   UNL     1       2.148   6.540  19.922  0.00  0.00    +0.000 A 
ATOM     11  C   UNL     1       2.599   5.136  20.008  0.00  0.00    +0.000 A 
ATOM     12  N   UNL     1       2.055   4.414  21.021  0.00  0.00    +0.000 NA
ATOM     13  C   UNL     1       2.442   3.149  21.181  0.00  0.00    +0.000 A 
ATOM     14  N   UNL     1       1.931   2.441  22.245  0.00  0.00    +0.000 N 
ATOM     15  N   UNL     1       3.278   2.511  20.369  0.00  0.00    +0.000 NA
ATOM     16  C   UNL     1       3.799   3.241  19.372  0.00  0.00    +0.000 A 
ATOM     17  C   UNL     1       3.523   4.579  19.145  0.00  0.00    +0.000 A 
ATOM     18  H   UNL     1       1.036   2.814  22.523  0.00  0.00    +0.000 HD
ATOM     19  H   UNL     1       1.991   1.449  22.061  0.00  0.00    +0.000 HD
ENDROOT
TORSDOF 0
ENDMDL
MODEL 4
REMARK VINA RESULT:      -6.5      2.835      3.839
REMARK  Name = 
REMARK  1 active torsions:
REMARK  status: ('A' for Active; 'I' for Inactive)
REMARK    1  A    between atoms: C_1  and  C_2
REMARK                            x       y       z     vdW  Elec       q    Type
REMARK                         _______ _______ _______ _____ _____    ______ ____
ROOT
ATOM      1  C   UNL     1       2.241   2.675  18.830  0.00  0.00    +0.000 C 
ATOM      2  C   UNL     1       3.288   3.675  19.336  0.00  0.00    +0.000 C 
ATOM      3  S   UNL     1       2.501   4.771  20.548  0.00  0.00    +0.000 S 
ATOM      4  C   UNL     1       2.356   6.317  19.676  0.00  0.00    +0.000 A 
ATOM      5  C   UNL     1       1.548   7.286  20.302  0.00  0.00    +0.000 A 
ATOM      6  C   UNL     1       1.431   8.573  19.780  0.00  0.00    +0.000 A 
ATOM      7  C   UNL     1       2.129   8.899  18.628  0.00  0.00    +0.000 A 
ATOM      8 CL   UNL     1       2.036  10.496  17.998  0.00  0.00    +0.000 Cl
ATOM      9  C   UNL     1       2.914   7.940  17.987  0.00  0.00    +0.000 A 
ATOM     10  C   UNL     1       3.040   6.621  18.488  0.00  0.00    +0.000 A 
ATOM     11  C   UNL     1       3.881   5.630  17.784  0.00  0.00    +0.000 A 
ATOM     12  N   UNL     1       4.509   6.088  16.672  0.00  0.00    +0.000 NA
ATOM     13  C   UNL     1       5.257   5.239  15.968  0.00  0.00    +0.000 A 
ATOM     14  N   UNL     1       5.844   5.695  14.808  0.00  0.00    +0.000 N 
ATOM     15  N   UNL     1       5.494   3.979  16.316  0.00  0.00    +0.000 NA
ATOM     16  C   UNL     1       4.868   3.549  17.421  0.00  0.00    +0.000 A 
ATOM     17  C   UNL     1       4.017   4.317  18.197  0.00  0.00    +0.000 A 
ATOM     18  H   UNL     1       5.979   6.694  14.849  0.00  0.00    +0.000 HD
ATOM     19  H   UNL     1       6.641   5.120  14.576  0.00  0.00    +0.000 HD
ENDROOT
TORSDOF 0
ENDMDL
MODEL 5
REMARK VINA RESULT:      -6.4      2.934      4.077
REMARK  Name = 
REMARK  1 active torsions:
REMARK  status: ('A' for Active; 'I' for Inactive)
REMARK    1  A    between atoms: C_1  and  C_2
REMARK                            x       y       z     vdW  Elec       q    Type
REMARK                         _______ _______ _______ _____ _____    ______ ____
ROOT
ATOM      1  C   UNL     1       0.637   4.582  20.066  0.00  0.00    +0.000 C 
ATOM      2  C   UNL     1       2.019   5.107  20.472  0.00  0.00    +0.000 C 
ATOM      3  S   UNL     1       2.384   6.589  19.492  0.00  0.00    +0.000 S 
ATOM      4  C   UNL     1       3.624   6.029  18.343  0.00  0.00    +0.000 A 
ATOM      5  C   UNL     1       3.913   6.920  17.290  0.00  0.00    +0.000 A 
ATOM      6  C   UNL     1       4.934   6.653  16.380  0.00  0.00    +0.000 A 
ATOM      7  C   UNL     1       5.677   5.492  16.522  0.00  0.00    +0.000 A 
ATOM      8 CL   UNL     1       6.973   5.171  15.438  0.00  0.00    +0.000 Cl
ATOM      9  C   UNL     1       5.384   4.591  17.547  0.00  0.00    +0.000 A 
ATOM     10  C   UNL     1       4.343   4.831  18.478  0.00  0.00    +0.000 A 
ATOM     11  C   UNL     1       4.060   3.856  19.552  0.00  0.00    +0.000 A 
ATOM     12  N   UNL     1       4.869   2.766  19.573  0.00  0.00    +0.000 NA
ATOM     13  C   UNL     1       4.649   1.828  20.494  0.00  0.00    +0.000 A 
ATOM     14  N   UNL     1       5.435   0.698  20.473  0.00  0.00    +0.000 N 
ATOM     15  N   UNL     1       3.730   1.915  21.451  0.00  0.00    +0.000 NA
ATOM     16  C   UNL     1       2.947   3.002  21.413  0.00  0.00    +0.000 A 
ATOM     17  C   UNL     1       3.037   4.010  20.468  0.00  0.00    +0.000 A 
ATOM     18  H   UNL     1       6.327   0.894  20.044  0.00  0.00    +0.000 HD
ATOM     19  H   UNL     1       5.436   0.262  21.384  0.00  0.00    +0.000 HD
ENDROOT
TORSDOF 0
ENDMDL
MODEL 6
REMARK VINA RESULT:      -6.2      2.943      4.173
REMARK  Name = 
REMARK  1 active torsions:
REMARK  status: ('A' for Active; 'I' for Inactive)
REMARK    1  A    between atoms: C_1  and  C_2
REMARK                            x       y       z     vdW  Elec       q    Type
REMARK                         _______ _______ _______ _____ _____    ______ ____
ROOT
ATOM      1  C   UNL     1       3.333   1.617  18.774  0.00  0.00    +0.000 C 
ATOM      2  C   UNL     1       3.001   2.780  17.831  0.00  0.00    +0.000 C 
ATOM      3  S   UNL     1       4.279   2.865  16.547  0.00  0.00    +0.000 S 
ATOM      4  C   UNL     1       5.216   4.313  16.990  0.00  0.00    +0.000 A 
ATOM      5  C   UNL     1       6.431   4.477  16.298  0.00  0.00    +0.000 A 
ATOM      6  C   UNL     1       7.212   5.617  16.474  0.00  0.00    +0.000 A 
ATOM      7  C   UNL     1       6.777   6.605  17.342  0.00  0.00    +0.000 A 
ATOM      8 CL   UNL     1       7.703   8.042  17.533  0.00  0.00    +0.000 Cl
ATOM      9  C   UNL     1       5.586   6.442  18.051  0.00  0.00    +0.000 A 
ATOM     10  C   UNL     1       4.779   5.288  17.902  0.00  0.00    +0.000 A 
ATOM     11  C   UNL     1       3.523   5.147  18.667  0.00  0.00    +0.000 A 
ATOM     12  N   UNL     1       3.218   6.193  19.477  0.00  0.00    +0.000 NA
ATOM     13  C   UNL     1       2.117   6.120  20.223  0.00  0.00    +0.000 A 
ATOM     14  N   UNL     1       1.844   7.159  21.086  0.00  0.00    +0.000 N 
ATOM     15  N   UNL     1       1.245   5.118  20.181  0.00  0.00    +0.000 NA
ATOM     16  C   UNL     1       1.563   4.099  19.371  0.00  0.00    +0.000 A 
ATOM     17  C   UNL     1       2.710   4.032  18.598  0.00  0.00    +0.000 A 
ATOM     18  H   UNL     1       2.269   8.013  20.758  0.00  0.00    +0.000 HD
ATOM     19  H   UNL     1       0.858   7.176  21.304  0.00  0.00    +0.000 HD
ENDROOT
TORSDOF 0
ENDMDL
MODEL 7
REMARK VINA RESULT:      -6.2      3.381      5.623
REMARK  Name = 
REMARK  1 active torsions:
REMARK  status: ('A' for Active; 'I' for Inactive)
REMARK    1  A    between atoms: C_1  and  C_2
REMARK                            x       y       z     vdW  Elec       q    Type
REMARK                         _______ _______ _______ _____ _____    ______ ____
ROOT
ATOM      1  C   UNL     1       0.025  10.064  17.781  0.00  0.00    +0.000 C 
ATOM      2  C   UNL     1       1.334   9.865  18.555  0.00  0.00    +0.000 C 
ATOM      3  S   UNL     1       2.311   8.587  17.717  0.00  0.00    +0.000 S 
ATOM      4  C   UNL     1       2.181   7.185  18.808  0.00  0.00    +0.000 A 
ATOM      5  C   UNL     1       2.646   5.966  18.277  0.00  0.00    +0.000 A 
ATOM      6  C   UNL     1       2.696   4.813  19.058  0.00  0.00    +0.000 A 
ATOM      7  C   UNL     1       2.286   4.875  20.380  0.00  0.00    +0.000 A 
ATOM      8 CL   UNL     1       2.390   3.474  21.372  0.00  0.00    +0.000 Cl
ATOM      9  C   UNL     1       1.803   6.072  20.910  0.00  0.00    +0.000 A 
ATOM     10  C   UNL     1       1.727   7.256  20.135  0.00  0.00    +0.000 A 
ATOM     11  C   UNL     1       1.210   8.507  20.727  0.00  0.00    +0.000 A 
ATOM     12  N   UNL     1       0.849   8.424  22.033  0.00  0.00    +0.000 NA
ATOM     13  C   UNL     1       0.342   9.505  22.624  0.00  0.00    +0.000 A 
ATOM     14  N   UNL     1      -0.077   9.398  23.931  0.00  0.00    +0.000 N 
ATOM     15  N   UNL     1       0.228  10.695  22.043  0.00  0.00    +0.000 NA
ATOM     16  C   UNL     1       0.596  10.756  20.755  0.00  0.00    +0.000 A 
ATOM     17  C   UNL     1       1.075   9.686  20.018  0.00  0.00    +0.000 A 
ATOM     18  H   UNL     1       0.418   8.656  24.402  0.00  0.00    +0.000 HD
ATOM     19  H   UNL     1      -0.088  10.310  24.366  0.00  0.00    +0.000 HD
ENDROOT
TORSDOF 0
ENDMDL
MODEL 8
REMARK VINA RESULT:      -6.0      3.540      4.503
REMARK  Name = 
REMARK  1 active torsions:
REMARK  status: ('A' for Active; 'I' for Inactive)
REMARK    1  A    between atoms: C_1  and  C_2
REMARK                            x       y       z     vdW  Elec       q    Type
REMARK                         _______ _______ _______ _____ _____    ______ ____
ROOT
ATOM      1  C   UNL     1       5.203   5.904  15.276  0.00  0.00    +0.000 C 
ATOM      2  C   UNL     1       5.410   4.528  15.920  0.00  0.00    +0.000 C 
ATOM      3  S   UNL     1       3.828   3.641  15.907  0.00  0.00    +0.000 S 
ATOM      4  C   UNL     1       3.322   3.671  17.614  0.00  0.00    +0.000 A 
ATOM      5  C   UNL     1       1.995   3.264  17.854  0.00  0.00    +0.000 A 
ATOM      6  C   UNL     1       1.503   3.143  19.152  0.00  0.00    +0.000 A 
ATOM      7  C   UNL     1       2.341   3.424  20.220  0.00  0.00    +0.000 A 
ATOM      8 CL   UNL     1       1.765   3.230  21.829  0.00  0.00    +0.000 Cl
ATOM      9  C   UNL     1       3.650   3.849  19.993  0.00  0.00    +0.000 A 
ATOM     10  C   UNL     1       4.172   3.994  18.684  0.00  0.00    +0.000 A 
ATOM     11  C   UNL     1       5.564   4.447  18.479  0.00  0.00    +0.000 A 
ATOM     12  N   UNL     1       6.270   4.682  19.614  0.00  0.00    +0.000 NA
ATOM     13  C   UNL     1       7.522   5.125  19.505  0.00  0.00    +0.000 A 
ATOM     14  N   UNL     1       8.213   5.417  20.659  0.00  0.00    +0.000 N 
ATOM     15  N   UNL     1       8.163   5.290  18.352  0.00  0.00    +0.000 NA
ATOM     16  C   UNL     1       7.448   5.047  17.244  0.00  0.00    +0.000 A 
ATOM     17  C   UNL     1       6.123   4.645  17.231  0.00  0.00    +0.000 A 
ATOM     18  H   UNL     1       7.851   4.882  21.434  0.00  0.00    +0.000 HD
ATOM     19  H   UNL     1       9.207   5.382  20.485  0.00  0.00    +0.000 HD
ENDROOT
TORSDOF 0
ENDMDL
MODEL 9
REMARK VINA RESULT:      -5.9      2.753      4.736
REMARK  Name = 
REMARK  1 active torsions:
REMARK  status: ('A' for Active; 'I' for Inactive)
REMARK    1  A    between atoms: C_1  and  C_2
REMARK                            x       y       z     vdW  Elec       q    Type
REMARK                         _______ _______ _______ _____ _____    ______ ____
ROOT
ATOM      1  C   UNL     1       5.221   5.470  15.599  0.00  0.00    +0.000 C 
ATOM      2  C   UNL     1       5.458   5.863  17.062  0.00  0.00    +0.000 C 
ATOM      3  S   UNL     1       5.957   4.381  17.982  0.00  0.00    +0.000 S 
ATOM      4  C   UNL     1       4.522   4.004  18.968  0.00  0.00    +0.000 A 
ATOM      5  C   UNL     1       4.543   2.746  19.602  0.00  0.00    +0.000 A 
ATOM      6  C   UNL     1       3.532   2.367  20.483  0.00  0.00    +0.000 A 
ATOM      7  C   UNL     1       2.495   3.249  20.739  0.00  0.00    +0.000 A 
ATOM      8 CL   UNL     1       1.266   2.818  21.862  0.00  0.00    +0.000 Cl
ATOM      9  C   UNL     1       2.452   4.488  20.098  0.00  0.00    +0.000 A 
ATOM     10  C   UNL     1       3.459   4.894  19.188  0.00  0.00    +0.000 A 
ATOM     11  C   UNL     1       3.383   6.214  18.528  0.00  0.00    +0.000 A 
ATOM     12  N   UNL     1       2.315   6.976  18.875  0.00  0.00    +0.000 NA
ATOM     13  C   UNL     1       2.164   8.165  18.293  0.00  0.00    +0.000 A 
ATOM     14  N   UNL     1       1.048   8.907  18.606  0.00  0.00    +0.000 N 
ATOM     15  N   UNL     1       3.031   8.698  17.438  0.00  0.00    +0.000 NA
ATOM     16  C   UNL     1       4.081   7.931  17.113  0.00  0.00    +0.000 A 
ATOM     17  C   UNL     1       4.310   6.656  17.602  0.00  0.00    +0.000 A 
ATOM     18  H   UNL     1       0.703   8.660  19.522  0.00  0.00    +0.000 HD
ATOM     19  H   UNL     1       1.218   9.884  18.414  0.00  0.00    +0.000 HD
ENDROOT
TORSDOF 0
ENDMDL
