MODEL 1
REMARK VINA RESULT:      -7.9      0.000      0.000
REMARK  Name = 
REMARK  8 active torsions:
REMARK  status: ('A' for Active; 'I' for Inactive)
REMARK    1  A    between atoms: C_1  and  N_2
REMARK    2  A    between atoms: C_6  and  C_7
REMARK    3  A    between atoms: C_7  and  O_8
REMARK    4  A    between atoms: C_7  and  C_9
REMARK    5  A    between atoms: C_7  and  C_17
REMARK    6  A    between atoms: C_12  and  C_13
REMARK    7  A    between atoms: N_23  and  C_24
REMARK    8  A    between atoms: N_35  and  C_36
REMARK                            x       y       z     vdW  Elec       q    Type
REMARK                         _______ _______ _______ _____ _____    ______ ____
ROOT
ATOM      1  C   UNL     1       0.930  12.913  19.487  0.00  0.00    +0.000 A 
ATOM      2  C   UNL     1       0.026  13.913  19.905  0.00  0.00    +0.000 A 
ATOM      3  C   UNL     1       0.508  15.048  20.517  0.00  0.00    +0.000 A 
ATOM      4  C   UNL     1       1.598  15.529  19.837  0.00  0.00    +0.000 A 
ATOM      5  C   UNL     1       2.662  14.702  19.478  0.00  0.00    +0.000 A 
ATOM      6  C   UNL     1       2.318  13.321  19.390  0.00  0.00    +0.000 A 
ATOM      7  N   UNL     1       3.421  15.407  18.467  0.00  0.00    +0.000 N 
ATOM      8  C   UNL     1       2.576  16.473  17.992  0.00  0.00    +0.000 A 
ATOM      9  O   UNL     1       2.722  17.194  17.014  0.00  0.00    +0.000 OA
ATOM     10  N   UNL     1       1.465  16.519  18.850  0.00  0.00    +0.000 N 
ATOM     11  C   UNL     1       0.169  16.943  18.380  0.00  0.00    +0.000 C 
ENDROOT
BRANCH   7  12
ATOM     12  C   UNL     1       4.848  15.620  18.501  0.00  0.00    +0.000 A 
ATOM     13  C   UNL     1       5.723  14.672  17.890  0.00  0.00    +0.000 A 
ATOM     14  C   UNL     1       7.104  14.886  17.740  0.00  0.00    +0.000 A 
ATOM     15  C   UNL     1       7.592  16.084  18.191  0.00  0.00    +0.000 A 
ATOM     16  C   UNL     1       6.786  17.010  18.788  0.00  0.00    +0.000 A 
ATOM     17  C   UNL     1       5.421  16.802  18.996  0.00  0.00    +0.000 A 
ATOM     18  O   UNL     1       7.480  18.137  19.137  0.00  0.00    +0.000 OA
ATOM     19  C   UNL     1       8.737  17.880  18.468  0.00  0.00    +0.000 C 
ATOM     20  O   UNL     1       8.888  16.506  18.064  0.00  0.00    +0.000 OA
ENDBRANCH   7  12
BRANCH   1  21
ATOM     21  C   UNL     1       0.246  11.527  19.213  0.00  0.00    +0.000 C 
BRANCH  21  27
ATOM     22  C   UNL     1      -0.439  11.299  22.351  0.00  0.00    +0.000 C 
ATOM     23  N   UNL     1       0.238  10.325  21.539  0.00  0.00    +0.000 N 
ATOM     24  C   UNL     1       0.622   9.097  22.024  0.00  0.00    +0.000 A 
ATOM     25  N   UNL     1       1.205   8.376  21.101  0.00  0.00    +0.000 NA
ATOM     26  C   UNL     1       1.170   9.153  19.978  0.00  0.00    +0.000 A 
ATOM     27  C   UNL     1       0.583  10.394  20.201  0.00  0.00    +0.000 A 
ENDBRANCH  21  27
BRANCH  21  28
ATOM     28  C   UNL     1      -1.252  11.502  18.915  0.00  0.00    +0.000 A 
ATOM     29  C   UNL     1      -2.159  12.223  19.706  0.00  0.00    +0.000 A 
ATOM     30  C   UNL     1      -3.514  12.259  19.403  0.00  0.00    +0.000 A 
ATOM     31  C   UNL     1      -4.016  11.496  18.347  0.00  0.00    +0.000 A 
ATOM     32  C   UNL     1      -3.161  10.669  17.625  0.00  0.00    +0.000 A 
ATOM     33  C   UNL     1      -1.794  10.671  17.904  0.00  0.00    +0.000 A 
BRANCH  31  34
ATOM     34  C   UNL     1      -5.404  11.546  18.024  0.00  0.00    +0.000 C 
ATOM     35  N   UNL     1      -6.536  11.584  17.761  0.00  0.00    +0.000 NA
ENDBRANCH  31  34
ENDBRANCH  21  28
BRANCH  21  36
ATOM     36  O   UNL     1       0.892  11.163  17.965  0.00  0.00    +0.000 OA
ATOM     37  H   UNL     1       0.923  10.202  17.892  0.00  0.00    +0.000 HD
ENDBRANCH  21  36
ENDBRANCH   1  21
TORSDOF 6
ENDMDL
MODEL 2
REMARK VINA RESULT:      -7.8      1.217      1.681
REMARK  Name = 
REMARK  8 active torsions:
REMARK  status: ('A' for Active; 'I' for Inactive)
REMARK    1  A    between atoms: C_1  and  N_2
REMARK    2  A    between atoms: C_6  and  C_7
REMARK    3  A    between atoms: C_7  and  O_8
REMARK    4  A    between atoms: C_7  and  C_9
REMARK    5  A    between atoms: C_7  and  C_17
REMARK    6  A    between atoms: C_12  and  C_13
REMARK    7  A    between atoms: N_23  and  C_24
REMARK    8  A    between atoms: N_35  and  C_36
REMARK                            x       y       z     vdW  Elec       q    Type
REMARK                         _______ _______ _______ _____ _____    ______ ____
ROOT
ATOM      1  C   UNL     1       1.151  12.931  20.070  0.00  0.00    +0.000 A 
ATOM      2  C   UNL     1       0.229  13.958  20.370  0.00  0.00    +0.000 A 
ATOM      3  C   UNL     1       0.693  15.180  20.800  0.00  0.00    +0.000 A 
ATOM      4  C   UNL     1       1.749  15.587  20.024  0.00  0.00    +0.000 A 
ATOM      5  C   UNL     1       2.827  14.746  19.752  0.00  0.00    +0.000 A 
ATOM      6  C   UNL     1       2.522  13.358  19.872  0.00  0.00    +0.000 A 
ATOM      7  N   UNL     1       3.536  15.318  18.628  0.00  0.00    +0.000 N 
ATOM      8  C   UNL     1       2.646  16.284  18.033  0.00  0.00    +0.000 A 
ATOM      9  O   UNL     1       2.743  16.861  16.959  0.00  0.00    +0.000 OA
ATOM     10  N   UNL     1       1.558  16.423  18.912  0.00  0.00    +0.000 N 
ATOM     11  C   UNL     1       0.238  16.741  18.428  0.00  0.00    +0.000 C 
ENDROOT
BRANCH   7  12
ATOM     12  C   UNL     1       4.956  15.571  18.586  0.00  0.00    +0.000 A 
ATOM     13  C   UNL     1       5.822  14.654  17.917  0.00  0.00    +0.000 A 
ATOM     14  C   UNL     1       7.186  14.908  17.693  0.00  0.00    +0.000 A 
ATOM     15  C   UNL     1       7.665  16.115  18.131  0.00  0.00    +0.000 A 
ATOM     16  C   UNL     1       6.868  17.012  18.783  0.00  0.00    +0.000 A 
ATOM     17  C   UNL     1       5.523  16.763  19.063  0.00  0.00    +0.000 A 
ATOM     18  O   UNL     1       7.549  18.154  19.105  0.00  0.00    +0.000 OA
ATOM     19  C   UNL     1       8.774  17.939  18.366  0.00  0.00    +0.000 C 
ATOM     20  O   UNL     1       8.940  16.575  17.938  0.00  0.00    +0.000 OA
ENDBRANCH   7  12
BRANCH   1  21
ATOM     21  C   UNL     1       0.501  11.504  20.018  0.00  0.00    +0.000 C 
BRANCH  21  27
ATOM     22  C   UNL     1       0.940   8.613  21.365  0.00  0.00    +0.000 C 
ATOM     23  N   UNL     1       0.190   9.714  21.904  0.00  0.00    +0.000 N 
ATOM     24  C   UNL     1      -0.390   9.674  23.150  0.00  0.00    +0.000 A 
ATOM     25  N   UNL     1      -1.005  10.794  23.430  0.00  0.00    +0.000 NA
ATOM     26  C   UNL     1      -0.789  11.593  22.343  0.00  0.00    +0.000 A 
ATOM     27  C   UNL     1      -0.053  10.958  21.348  0.00  0.00    +0.000 A 
ENDBRANCH  21  27
BRANCH  21  28
ATOM     28  C   UNL     1      -0.491  11.197  18.898  0.00  0.00    +0.000 A 
ATOM     29  C   UNL     1      -1.584  12.041  18.649  0.00  0.00    +0.000 A 
ATOM     30  C   UNL     1      -2.453  11.805  17.592  0.00  0.00    +0.000 A 
ATOM     31  C   UNL     1      -2.306  10.661  16.806  0.00  0.00    +0.000 A 
ATOM     32  C   UNL     1      -1.311   9.738  17.110  0.00  0.00    +0.000 A 
ATOM     33  C   UNL     1      -0.413  10.000  18.144  0.00  0.00    +0.000 A 
BRANCH  31  34
ATOM     34  C   UNL     1      -3.189  10.428  15.710  0.00  0.00    +0.000 C 
ATOM     35  N   UNL     1      -3.909  10.235  14.817  0.00  0.00    +0.000 NA
ENDBRANCH  31  34
ENDBRANCH  21  28
BRANCH  21  36
ATOM     36  O   UNL     1       1.673  10.699  19.723  0.00  0.00    +0.000 OA
ATOM     37  H   UNL     1       2.292  11.220  19.197  0.00  0.00    +0.000 HD
ENDBRANCH  21  36
ENDBRANCH   1  21
TORSDOF 6
ENDMDL
MODEL 3
REMARK VINA RESULT:      -7.8      1.450      1.868
REMARK  Name = 
REMARK  8 active torsions:
REMARK  status: ('A' for Active; 'I' for Inactive)
REMARK    1  A    between atoms: C_1  and  N_2
REMARK    2  A    between atoms: C_6  and  C_7
REMARK    3  A    between atoms: C_7  and  O_8
REMARK    4  A    between atoms: C_7  and  C_9
REMARK    5  A    between atoms: C_7  and  C_17
REMARK    6  A    between atoms: C_12  and  C_13
REMARK    7  A    between atoms: N_23  and  C_24
REMARK    8  A    between atoms: N_35  and  C_36
REMARK                            x       y       z     vdW  Elec       q    Type
REMARK                         _______ _______ _______ _____ _____    ______ ____
ROOT
ATOM      1  C   UNL     1       0.041  13.926  19.103  0.00  0.00    +0.000 A 
ATOM      2  C   UNL     1      -0.723  15.092  19.326  0.00  0.00    +0.000 A 
ATOM      3  C   UNL     1      -0.126  16.196  19.891  0.00  0.00    +0.000 A 
ATOM      4  C   UNL     1       1.091  16.430  19.303  0.00  0.00    +0.000 A 
ATOM      5  C   UNL     1       2.035  15.417  19.140  0.00  0.00    +0.000 A 
ATOM      6  C   UNL     1       1.480  14.104  19.132  0.00  0.00    +0.000 A 
ATOM      7  N   UNL     1       2.998  15.889  18.168  0.00  0.00    +0.000 N 
ATOM      8  C   UNL     1       2.391  17.018  17.508  0.00  0.00    +0.000 A 
ATOM      9  O   UNL     1       2.750  17.604  16.496  0.00  0.00    +0.000 OA
ATOM     10  N   UNL     1       1.222  17.323  18.226  0.00  0.00    +0.000 N 
ATOM     11  C   UNL     1       0.067  17.890  17.575  0.00  0.00    +0.000 C 
ENDROOT
BRANCH   7  12
ATOM     12  C   UNL     1       4.429  15.883  18.347  0.00  0.00    +0.000 A 
ATOM     13  C   UNL     1       5.204  14.794  17.843  0.00  0.00    +0.000 A 
ATOM     14  C   UNL     1       6.610  14.790  17.835  0.00  0.00    +0.000 A 
ATOM     15  C   UNL     1       7.229  15.913  18.320  0.00  0.00    +0.000 A 
ATOM     16  C   UNL     1       6.520  16.967  18.819  0.00  0.00    +0.000 A 
ATOM     17  C   UNL     1       5.125  16.976  18.885  0.00  0.00    +0.000 A 
ATOM     18  O   UNL     1       7.342  17.984  19.224  0.00  0.00    +0.000 OA
ATOM     19  C   UNL     1       8.605  17.519  18.693  0.00  0.00    +0.000 C 
ATOM     20  O   UNL     1       8.581  16.127  18.324  0.00  0.00    +0.000 OA
ENDBRANCH   7  12
BRANCH   1  21
ATOM     21  C   UNL     1      -0.830  12.642  18.871  0.00  0.00    +0.000 C 
BRANCH  21  27
ATOM     22  C   UNL     1       0.498  11.377  21.517  0.00  0.00    +0.000 C 
ATOM     23  N   UNL     1       0.417  10.773  20.216  0.00  0.00    +0.000 N 
ATOM     24  C   UNL     1       0.856   9.494  19.966  0.00  0.00    +0.000 A 
ATOM     25  N   UNL     1       0.666   9.156  18.716  0.00  0.00    +0.000 NA
ATOM     26  C   UNL     1       0.057  10.240  18.150  0.00  0.00    +0.000 A 
ATOM     27  C   UNL     1      -0.112  11.290  19.046  0.00  0.00    +0.000 A 
ENDBRANCH  21  27
BRANCH  21  28
ATOM     28  C   UNL     1      -2.206  12.568  19.533  0.00  0.00    +0.000 A 
ATOM     29  C   UNL     1      -3.336  12.164  18.806  0.00  0.00    +0.000 A 
ATOM     30  C   UNL     1      -4.577  12.030  19.415  0.00  0.00    +0.000 A 
ATOM     31  C   UNL     1      -4.742  12.387  20.755  0.00  0.00    +0.000 A 
ATOM     32  C   UNL     1      -3.669  12.915  21.466  0.00  0.00    +0.000 A 
ATOM     33  C   UNL     1      -2.414  13.006  20.864  0.00  0.00    +0.000 A 
BRANCH  31  34
ATOM     34  C   UNL     1      -6.012  12.234  21.385  0.00  0.00    +0.000 C 
ATOM     35  N   UNL     1      -7.049  12.111  21.898  0.00  0.00    +0.000 NA
ENDBRANCH  31  34
ENDBRANCH  21  28
BRANCH  21  36
ATOM     36  O   UNL     1      -1.095  12.764  17.449  0.00  0.00    +0.000 OA
ATOM     37  H   UNL     1      -0.479  12.202  16.962  0.00  0.00    +0.000 HD
ENDBRANCH  21  36
ENDBRANCH   1  21
TORSDOF 6
ENDMDL
MODEL 4
REMARK VINA RESULT:      -7.8      2.037      3.098
REMARK  Name = 
REMARK  8 active torsions:
REMARK  status: ('A' for Active; 'I' for Inactive)
REMARK    1  A    between atoms: C_1  and  N_2
REMARK    2  A    between atoms: C_6  and  C_7
REMARK    3  A    between atoms: C_7  and  O_8
REMARK    4  A    between atoms: C_7  and  C_9
REMARK    5  A    between atoms: C_7  and  C_17
REMARK    6  A    between atoms: C_12  and  C_13
REMARK    7  A    between atoms: N_23  and  C_24
REMARK    8  A    between atoms: N_35  and  C_36
REMARK                            x       y       z     vdW  Elec       q    Type
REMARK                         _______ _______ _______ _____ _____    ______ ____
ROOT
ATOM      1  C   UNL     1       0.362  14.279  19.659  0.00  0.00    +0.000 A 
ATOM      2  C   UNL     1      -0.296  15.512  19.860  0.00  0.00    +0.000 A 
ATOM      3  C   UNL     1       0.434  16.616  20.237  0.00  0.00    +0.000 A 
ATOM      4  C   UNL     1       1.576  16.710  19.483  0.00  0.00    +0.000 A 
ATOM      5  C   UNL     1       2.429  15.621  19.304  0.00  0.00    +0.000 A 
ATOM      6  C   UNL     1       1.800  14.356  19.493  0.00  0.00    +0.000 A 
ATOM      7  N   UNL     1       3.284  15.934  18.179  0.00  0.00    +0.000 N 
ATOM      8  C   UNL     1       2.665  17.041  17.493  0.00  0.00    +0.000 A 
ATOM      9  O   UNL     1       2.924  17.506  16.391  0.00  0.00    +0.000 OA
ATOM     10  N   UNL     1       1.620  17.491  18.316  0.00  0.00    +0.000 N 
ATOM     11  C   UNL     1       0.426  18.079  17.760  0.00  0.00    +0.000 C 
ENDROOT
BRANCH   7  12
ATOM     12  C   UNL     1       4.723  15.842  18.180  0.00  0.00    +0.000 A 
ATOM     13  C   UNL     1       5.501  16.866  18.801  0.00  0.00    +0.000 A 
ATOM     14  C   UNL     1       6.891  16.770  18.985  0.00  0.00    +0.000 A 
ATOM     15  C   UNL     1       7.489  15.614  18.556  0.00  0.00    +0.000 A 
ATOM     16  C   UNL     1       6.778  14.619  17.949  0.00  0.00    +0.000 A 
ATOM     17  C   UNL     1       5.406  14.710  17.709  0.00  0.00    +0.000 A 
ATOM     18  O   UNL     1       7.573  13.552  17.628  0.00  0.00    +0.000 OA
ATOM     19  C   UNL     1       8.788  13.920  18.322  0.00  0.00    +0.000 C 
ATOM     20  O   UNL     1       8.813  15.304  18.717  0.00  0.00    +0.000 OA
ENDBRANCH   7  12
BRANCH   1  21
ATOM     21  C   UNL     1      -0.607  13.045  19.664  0.00  0.00    +0.000 C 
BRANCH  21  27
ATOM     22  C   UNL     1      -1.964  10.546  18.154  0.00  0.00    +0.000 C 
ATOM     23  N   UNL     1      -0.602  10.653  18.600  0.00  0.00    +0.000 N 
ATOM     24  C   UNL     1       0.336   9.678  18.352  0.00  0.00    +0.000 A 
ATOM     25  N   UNL     1       1.506  10.001  18.840  0.00  0.00    +0.000 NA
ATOM     26  C   UNL     1       1.325  11.237  19.392  0.00  0.00    +0.000 A 
ATOM     27  C   UNL     1       0.014  11.689  19.280  0.00  0.00    +0.000 A 
ENDBRANCH  21  27
BRANCH  21  28
ATOM     28  C   UNL     1      -1.532  12.851  20.864  0.00  0.00    +0.000 A 
ATOM     29  C   UNL     1      -2.907  13.107  20.766  0.00  0.00    +0.000 A 
ATOM     30  C   UNL     1      -3.765  12.870  21.833  0.00  0.00    +0.000 A 
ATOM     31  C   UNL     1      -3.254  12.455  23.064  0.00  0.00    +0.000 A 
ATOM     32  C   UNL     1      -1.879  12.319  23.230  0.00  0.00    +0.000 A 
ATOM     33  C   UNL     1      -1.026  12.514  22.144  0.00  0.00    +0.000 A 
BRANCH  31  34
ATOM     34  C   UNL     1      -4.136  12.196  24.154  0.00  0.00    +0.000 C 
ATOM     35  N   UNL     1      -4.853  11.985  25.045  0.00  0.00    +0.000 NA
ENDBRANCH  31  34
ENDBRANCH  21  28
BRANCH  21  36
ATOM     36  O   UNL     1      -1.482  13.401  18.560  0.00  0.00    +0.000 OA
ATOM     37  H   UNL     1      -2.005  14.173  18.806  0.00  0.00    +0.000 HD
ENDBRANCH  21  36
ENDBRANCH   1  21
TORSDOF 6
ENDMDL
MODEL 5
REMARK VINA RESULT:      -7.7      0.642      1.484
REMARK  Name = 
REMARK  8 active torsions:
REMARK  status: ('A' for Active; 'I' for Inactive)
REMARK    1  A    between atoms: C_1  and  N_2
REMARK    2  A    between atoms: C_6  and  C_7
REMARK    3  A    between atoms: C_7  and  O_8
REMARK    4  A    between atoms: C_7  and  C_9
REMARK    5  A    between atoms: C_7  and  C_17
REMARK    6  A    between atoms: C_12  and  C_13
REMARK    7  A    between atoms: N_23  and  C_24
REMARK    8  A    between atoms: N_35  and  C_36
REMARK                            x       y       z     vdW  Elec       q    Type
REMARK                         _______ _______ _______ _____ _____    ______ ____
ROOT
ATOM      1  C   UNL     1       1.098  12.754  19.458  0.00  0.00    +0.000 A 
ATOM      2  C   UNL     1       0.208  13.710  19.993  0.00  0.00    +0.000 A 
ATOM      3  C   UNL     1       0.710  14.821  20.630  0.00  0.00    +0.000 A 
ATOM      4  C   UNL     1       1.739  15.362  19.901  0.00  0.00    +0.000 A 
ATOM      5  C   UNL     1       2.790  14.581  19.422  0.00  0.00    +0.000 A 
ATOM      6  C   UNL     1       2.467  13.199  19.284  0.00  0.00    +0.000 A 
ATOM      7  N   UNL     1       3.460  15.355  18.400  0.00  0.00    +0.000 N 
ATOM      8  C   UNL     1       2.562  16.425  18.044  0.00  0.00    +0.000 A 
ATOM      9  O   UNL     1       2.623  17.199  17.099  0.00  0.00    +0.000 OA
ATOM     10  N   UNL     1       1.516  16.400  18.981  0.00  0.00    +0.000 N 
ATOM     11  C   UNL     1       0.181  16.818  18.628  0.00  0.00    +0.000 C 
ENDROOT
BRANCH   7  12
ATOM     12  C   UNL     1       4.881  15.599  18.343  0.00  0.00    +0.000 A 
ATOM     13  C   UNL     1       5.418  16.804  18.890  0.00  0.00    +0.000 A 
ATOM     14  C   UNL     1       6.797  17.043  19.018  0.00  0.00    +0.000 A 
ATOM     15  C   UNL     1       7.634  16.038  18.609  0.00  0.00    +0.000 A 
ATOM     16  C   UNL     1       7.156  14.877  18.072  0.00  0.00    +0.000 A 
ATOM     17  C   UNL     1       5.793  14.635  17.887  0.00  0.00    +0.000 A 
ATOM     18  O   UNL     1       8.167  14.010  17.758  0.00  0.00    +0.000 OA
ATOM     19  C   UNL     1       9.285  14.682  18.385  0.00  0.00    +0.000 C 
ATOM     20  O   UNL     1       8.998  16.052  18.724  0.00  0.00    +0.000 OA
ENDBRANCH   7  12
BRANCH   1  21
ATOM     21  C   UNL     1       0.422  11.369  19.159  0.00  0.00    +0.000 C 
BRANCH  21  27
ATOM     22  C   UNL     1      -0.236  11.079  22.298  0.00  0.00    +0.000 C 
ATOM     23  N   UNL     1       0.438  10.123  21.462  0.00  0.00    +0.000 N 
ATOM     24  C   UNL     1       0.830   8.887  21.921  0.00  0.00    +0.000 A 
ATOM     25  N   UNL     1       1.409   8.186  20.979  0.00  0.00    +0.000 NA
ATOM     26  C   UNL     1       1.361   8.984  19.871  0.00  0.00    +0.000 A 
ATOM     27  C   UNL     1       0.772  10.218  20.122  0.00  0.00    +0.000 A 
ENDBRANCH  21  27
BRANCH  21  28
ATOM     28  C   UNL     1      -1.077  11.339  18.866  0.00  0.00    +0.000 A 
ATOM     29  C   UNL     1      -1.602  10.503  17.870  0.00  0.00    +0.000 A 
ATOM     30  C   UNL     1      -2.969  10.421  17.642  0.00  0.00    +0.000 A 
ATOM     31  C   UNL     1      -3.848  11.246  18.346  0.00  0.00    +0.000 A 
ATOM     32  C   UNL     1      -3.346  12.179  19.247  0.00  0.00    +0.000 A 
ATOM     33  C   UNL     1      -1.976  12.228  19.506  0.00  0.00    +0.000 A 
BRANCH  31  34
ATOM     34  C   UNL     1      -5.254  11.150  18.123  0.00  0.00    +0.000 C 
ATOM     35  N   UNL     1      -6.400  11.073  17.945  0.00  0.00    +0.000 NA
ENDBRANCH  31  34
ENDBRANCH  21  28
BRANCH  21  36
ATOM     36  O   UNL     1       1.066  11.035  17.901  0.00  0.00    +0.000 OA
ATOM     37  H   UNL     1       1.825  11.615  17.769  0.00  0.00    +0.000 HD
ENDBRANCH  21  36
ENDBRANCH   1  21
TORSDOF 6
ENDMDL
MODEL 6
REMARK VINA RESULT:      -7.7      0.467      1.006
REMARK  Name = 
REMARK  8 active torsions:
REMARK  status: ('A' for Active; 'I' for Inactive)
REMARK    1  A    between atoms: C_1  and  N_2
REMARK    2  A    between atoms: C_6  and  C_7
REMARK    3  A    between atoms: C_7  and  O_8
REMARK    4  A    between atoms: C_7  and  C_9
REMARK    5  A    between atoms: C_7  and  C_17
REMARK    6  A    between atoms: C_12  and  C_13
REMARK    7  A    between atoms: N_23  and  C_24
REMARK    8  A    between atoms: N_35  and  C_36
REMARK                            x       y       z     vdW  Elec       q    Type
REMARK                         _______ _______ _______ _____ _____    ______ ____
ROOT
ATOM      1  C   UNL     1       0.960  13.111  19.610  0.00  0.00    +0.000 A 
ATOM      2  C   UNL     1       0.071  14.144  19.979  0.00  0.00    +0.000 A 
ATOM      3  C   UNL     1       0.569  15.299  20.537  0.00  0.00    +0.000 A 
ATOM      4  C   UNL     1       1.666  15.731  19.835  0.00  0.00    +0.000 A 
ATOM      5  C   UNL     1       2.717  14.873  19.515  0.00  0.00    +0.000 A 
ATOM      6  C   UNL     1       2.354  13.494  19.494  0.00  0.00    +0.000 A 
ATOM      7  N   UNL     1       3.486  15.517  18.472  0.00  0.00    +0.000 N 
ATOM      8  C   UNL     1       2.656  16.572  17.946  0.00  0.00    +0.000 A 
ATOM      9  O   UNL     1       2.812  17.242  16.934  0.00  0.00    +0.000 OA
ATOM     10  N   UNL     1       1.547  16.675  18.801  0.00  0.00    +0.000 N 
ATOM     11  C   UNL     1       0.257  17.094  18.311  0.00  0.00    +0.000 C 
ENDROOT
BRANCH   7  12
ATOM     12  C   UNL     1       4.916  15.711  18.495  0.00  0.00    +0.000 A 
ATOM     13  C   UNL     1       5.774  14.748  17.883  0.00  0.00    +0.000 A 
ATOM     14  C   UNL     1       7.157  14.942  17.723  0.00  0.00    +0.000 A 
ATOM     15  C   UNL     1       7.664  16.136  18.166  0.00  0.00    +0.000 A 
ATOM     16  C   UNL     1       6.874  17.076  18.764  0.00  0.00    +0.000 A 
ATOM     17  C   UNL     1       5.508  16.886  18.981  0.00  0.00    +0.000 A 
ATOM     18  O   UNL     1       7.586  18.194  19.102  0.00  0.00    +0.000 OA
ATOM     19  C   UNL     1       8.835  17.917  18.427  0.00  0.00    +0.000 C 
ATOM     20  O   UNL     1       8.965  16.540  18.028  0.00  0.00    +0.000 OA
ENDBRANCH   7  12
BRANCH   1  21
ATOM     21  C   UNL     1       0.255  11.724  19.403  0.00  0.00    +0.000 C 
BRANCH  21  27
ATOM     22  C   UNL     1       1.448   8.746  19.135  0.00  0.00    +0.000 C 
ATOM     23  N   UNL     1       1.038   9.409  20.342  0.00  0.00    +0.000 N 
ATOM     24  C   UNL     1       1.186   8.839  21.585  0.00  0.00    +0.000 A 
ATOM     25  N   UNL     1       0.757   9.633  22.532  0.00  0.00    +0.000 NA
ATOM     26  C   UNL     1       0.347  10.763  21.882  0.00  0.00    +0.000 A 
ATOM     27  C   UNL     1       0.490  10.670  20.502  0.00  0.00    +0.000 A 
ENDBRANCH  21  27
BRANCH  21  28
ATOM     28  C   UNL     1      -1.219  11.710  19.003  0.00  0.00    +0.000 A 
ATOM     29  C   UNL     1      -2.210  12.183  19.876  0.00  0.00    +0.000 A 
ATOM     30  C   UNL     1      -3.545  12.235  19.494  0.00  0.00    +0.000 A 
ATOM     31  C   UNL     1      -3.939  11.726  18.256  0.00  0.00    +0.000 A 
ATOM     32  C   UNL     1      -2.998  11.131  17.422  0.00  0.00    +0.000 A 
ATOM     33  C   UNL     1      -1.652  11.121  17.789  0.00  0.00    +0.000 A 
BRANCH  31  34
ATOM     34  C   UNL     1      -5.307  11.794  17.857  0.00  0.00    +0.000 C 
ATOM     35  N   UNL     1      -6.422  11.852  17.532  0.00  0.00    +0.000 NA
ENDBRANCH  31  34
ENDBRANCH  21  28
BRANCH  21  36
ATOM     36  O   UNL     1       0.974  11.242  18.238  0.00  0.00    +0.000 OA
ATOM     37  H   UNL     1       0.696  11.745  17.463  0.00  0.00    +0.000 HD
ENDBRANCH  21  36
ENDBRANCH   1  21
TORSDOF 6
ENDMDL
MODEL 7
REMARK VINA RESULT:      -7.6      2.107      4.382
REMARK  Name = 
REMARK  8 active torsions:
REMARK  status: ('A' for Active; 'I' for Inactive)
REMARK    1  A    between atoms: C_1  and  N_2
REMARK    2  A    between atoms: C_6  and  C_7
REMARK    3  A    between atoms: C_7  and  O_8
REMARK    4  A    between atoms: C_7  and  C_9
REMARK    5  A    between atoms: C_7  and  C_17
REMARK    6  A    between atoms: C_12  and  C_13
REMARK    7  A    between atoms: N_23  and  C_24
REMARK    8  A    between atoms: N_35  and  C_36
REMARK                            x       y       z     vdW  Elec       q    Type
REMARK                         _______ _______ _______ _____ _____    ______ ____
ROOT
ATOM      1  C   UNL     1       0.601  12.046  20.265  0.00  0.00    +0.000 A 
ATOM      2  C   UNL     1      -0.192  12.764  21.185  0.00  0.00    +0.000 A 
ATOM      3  C   UNL     1       0.376  13.778  21.923  0.00  0.00    +0.000 A 
ATOM      4  C   UNL     1       1.154  14.571  21.119  0.00  0.00    +0.000 A 
ATOM      5  C   UNL     1       2.105  14.031  20.254  0.00  0.00    +0.000 A 
ATOM      6  C   UNL     1       1.853  12.676  19.890  0.00  0.00    +0.000 A 
ATOM      7  N   UNL     1       2.450  15.067  19.305  0.00  0.00    +0.000 N 
ATOM      8  C   UNL     1       1.422  16.073  19.408  0.00  0.00    +0.000 A 
ATOM      9  O   UNL     1       1.196  17.022  18.670  0.00  0.00    +0.000 OA
ATOM     10  N   UNL     1       0.642  15.737  20.527  0.00  0.00    +0.000 N 
ATOM     11  C   UNL     1      -0.763  16.056  20.587  0.00  0.00    +0.000 C 
ENDROOT
BRANCH   7  12
ATOM     12  C   UNL     1       3.793  15.485  18.984  0.00  0.00    +0.000 A 
ATOM     13  C   UNL     1       4.334  16.663  19.584  0.00  0.00    +0.000 A 
ATOM     14  C   UNL     1       5.679  17.046  19.450  0.00  0.00    +0.000 A 
ATOM     15  C   UNL     1       6.485  16.210  18.721  0.00  0.00    +0.000 A 
ATOM     16  C   UNL     1       6.000  15.082  18.125  0.00  0.00    +0.000 A 
ATOM     17  C   UNL     1       4.657  14.705  18.200  0.00  0.00    +0.000 A 
ATOM     18  O   UNL     1       6.984  14.391  17.472  0.00  0.00    +0.000 OA
ATOM     19  C   UNL     1       8.152  15.103  17.942  0.00  0.00    +0.000 C 
ATOM     20  O   UNL     1       7.833  16.372  18.543  0.00  0.00    +0.000 OA
ENDBRANCH   7  12
BRANCH   1  21
ATOM     21  C   UNL     1      -0.032  10.679  19.827  0.00  0.00    +0.000 C 
BRANCH  21  27
ATOM     22  C   UNL     1      -0.813  13.042  17.784  0.00  0.00    +0.000 C 
ATOM     23  N   UNL     1      -1.491  11.787  17.955  0.00  0.00    +0.000 N 
ATOM     24  C   UNL     1      -2.558  11.410  17.174  0.00  0.00    +0.000 A 
ATOM     25  N   UNL     1      -3.000  10.224  17.504  0.00  0.00    +0.000 NA
ATOM     26  C   UNL     1      -2.173   9.809  18.509  0.00  0.00    +0.000 A 
ATOM     27  C   UNL     1      -1.213  10.759  18.841  0.00  0.00    +0.000 A 
ENDBRANCH  21  27
BRANCH  21  28
ATOM     28  C   UNL     1       0.902   9.549  19.398  0.00  0.00    +0.000 A 
ATOM     29  C   UNL     1       1.307   8.561  20.308  0.00  0.00    +0.000 A 
ATOM     30  C   UNL     1       2.103   7.494  19.911  0.00  0.00    +0.000 A 
ATOM     31  C   UNL     1       2.594   7.435  18.605  0.00  0.00    +0.000 A 
ATOM     32  C   UNL     1       2.318   8.468  17.716  0.00  0.00    +0.000 A 
ATOM     33  C   UNL     1       1.482   9.515  18.105  0.00  0.00    +0.000 A 
BRANCH  31  34
ATOM     34  C   UNL     1       3.397   6.331  18.192  0.00  0.00    +0.000 C 
ATOM     35  N   UNL     1       4.054   5.432  17.856  0.00  0.00    +0.000 NA
ENDBRANCH  31  34
ENDBRANCH  21  28
BRANCH  21  36
ATOM     36  O   UNL     1      -0.605  10.244  21.089  0.00  0.00    +0.000 OA
ATOM     37  H   UNL     1       0.105  10.101  21.726  0.00  0.00    +0.000 HD
ENDBRANCH  21  36
ENDBRANCH   1  21
TORSDOF 6
ENDMDL
MODEL 8
REMARK VINA RESULT:      -7.6      1.334      2.062
REMARK  Name = 
REMARK  8 active torsions:
REMARK  status: ('A' for Active; 'I' for Inactive)
REMARK    1  A    between atoms: C_1  and  N_2
REMARK    2  A    between atoms: C_6  and  C_7
REMARK    3  A    between atoms: C_7  and  O_8
REMARK    4  A    between atoms: C_7  and  C_9
REMARK    5  A    between atoms: C_7  and  C_17
REMARK    6  A    between atoms: C_12  and  C_13
REMARK    7  A    between atoms: N_23  and  C_24
REMARK    8  A    between atoms: N_35  and  C_36
REMARK                            x       y       z     vdW  Elec       q    Type
REMARK                         _______ _______ _______ _____ _____    ______ ____
ROOT
ATOM      1  C   UNL     1       1.126  12.952  20.034  0.00  0.00    +0.000 A 
ATOM      2  C   UNL     1       0.211  13.963  20.398  0.00  0.00    +0.000 A 
ATOM      3  C   UNL     1       0.684  15.182  20.828  0.00  0.00    +0.000 A 
ATOM      4  C   UNL     1       1.697  15.614  20.010  0.00  0.00    +0.000 A 
ATOM      5  C   UNL     1       2.768  14.789  19.669  0.00  0.00    +0.000 A 
ATOM      6  C   UNL     1       2.483  13.396  19.777  0.00  0.00    +0.000 A 
ATOM      7  N   UNL     1       3.416  15.390  18.523  0.00  0.00    +0.000 N 
ATOM      8  C   UNL     1       2.489  16.357  17.991  0.00  0.00    +0.000 A 
ATOM      9  O   UNL     1       2.527  16.955  16.924  0.00  0.00    +0.000 OA
ATOM     10  N   UNL     1       1.445  16.468  18.924  0.00  0.00    +0.000 N 
ATOM     11  C   UNL     1       0.099  16.782  18.511  0.00  0.00    +0.000 C 
ENDROOT
BRANCH   7  12
ATOM     12  C   UNL     1       4.829  15.658  18.416  0.00  0.00    +0.000 A 
ATOM     13  C   UNL     1       5.363  16.878  18.933  0.00  0.00    +0.000 A 
ATOM     14  C   UNL     1       6.741  17.142  19.012  0.00  0.00    +0.000 A 
ATOM     15  C   UNL     1       7.581  16.147  18.585  0.00  0.00    +0.000 A 
ATOM     16  C   UNL     1       7.107  14.973  18.076  0.00  0.00    +0.000 A 
ATOM     17  C   UNL     1       5.743  14.706  17.940  0.00  0.00    +0.000 A 
ATOM     18  O   UNL     1       8.122  14.120  17.737  0.00  0.00    +0.000 OA
ATOM     19  C   UNL     1       9.248  14.818  18.320  0.00  0.00    +0.000 C 
ATOM     20  O   UNL     1       8.948  16.186  18.655  0.00  0.00    +0.000 OA
ENDBRANCH   7  12
BRANCH   1  21
ATOM     21  C   UNL     1       0.489  11.519  19.986  0.00  0.00    +0.000 C 
BRANCH  21  27
ATOM     22  C   UNL     1       0.890   8.606  21.298  0.00  0.00    +0.000 C 
ATOM     23  N   UNL     1       0.170   9.717  21.859  0.00  0.00    +0.000 N 
ATOM     24  C   UNL     1      -0.393   9.676  23.113  0.00  0.00    +0.000 A 
ATOM     25  N   UNL     1      -0.981  10.805  23.413  0.00  0.00    +0.000 NA
ATOM     26  C   UNL     1      -0.766  11.610  22.331  0.00  0.00    +0.000 A 
ATOM     27  C   UNL     1      -0.057  10.971  21.319  0.00  0.00    +0.000 A 
ENDBRANCH  21  27
BRANCH  21  28
ATOM     28  C   UNL     1      -0.505  11.202  18.870  0.00  0.00    +0.000 A 
ATOM     29  C   UNL     1      -1.605  12.037  18.623  0.00  0.00    +0.000 A 
ATOM     30  C   UNL     1      -2.476  11.793  17.569  0.00  0.00    +0.000 A 
ATOM     31  C   UNL     1      -2.322  10.648  16.785  0.00  0.00    +0.000 A 
ATOM     32  C   UNL     1      -1.319   9.733  17.087  0.00  0.00    +0.000 A 
ATOM     33  C   UNL     1      -0.419  10.005  18.118  0.00  0.00    +0.000 A 
BRANCH  31  34
ATOM     34  C   UNL     1      -3.206  10.406  15.692  0.00  0.00    +0.000 C 
ATOM     35  N   UNL     1      -3.925  10.208  14.799  0.00  0.00    +0.000 NA
ENDBRANCH  31  34
ENDBRANCH  21  28
BRANCH  21  36
ATOM     36  O   UNL     1       1.666  10.723  19.689  0.00  0.00    +0.000 OA
ATOM     37  H   UNL     1       2.312  10.835  20.397  0.00  0.00    +0.000 HD
ENDBRANCH  21  36
ENDBRANCH   1  21
TORSDOF 6
ENDMDL
MODEL 9
REMARK VINA RESULT:      -7.6      3.189      3.819
REMARK  Name = 
REMARK  8 active torsions:
REMARK  status: ('A' for Active; 'I' for Inactive)
REMARK    1  A    between atoms: C_1  and  N_2
REMARK    2  A    between atoms: C_6  and  C_7
REMARK    3  A    between atoms: C_7  and  O_8
REMARK    4  A    between atoms: C_7  and  C_9
REMARK    5  A    between atoms: C_7  and  C_17
REMARK    6  A    between atoms: C_12  and  C_13
REMARK    7  A    between atoms: N_23  and  C_24
REMARK    8  A    between atoms: N_35  and  C_36
REMARK                            x       y       z     vdW  Elec       q    Type
REMARK                         _______ _______ _______ _____ _____    ______ ____
ROOT
ATOM      1  C   UNL     1       1.151  12.576  19.532  0.00  0.00    +0.000 A 
ATOM      2  C   UNL     1       0.951  13.593  18.574  0.00  0.00    +0.000 A 
ATOM      3  C   UNL     1       1.169  14.906  18.924  0.00  0.00    +0.000 A 
ATOM      4  C   UNL     1       2.343  15.022  19.625  0.00  0.00    +0.000 A 
ATOM      5  C   UNL     1       2.637  14.193  20.706  0.00  0.00    +0.000 A 
ATOM      6  C   UNL     1       1.933  12.953  20.694  0.00  0.00    +0.000 A 
ATOM      7  N   UNL     1       4.058  14.307  20.952  0.00  0.00    +0.000 N 
ATOM      8  C   UNL     1       4.628  14.916  19.776  0.00  0.00    +0.000 A 
ATOM      9  O   UNL     1       5.804  15.025  19.458  0.00  0.00    +0.000 OA
ATOM     10  N   UNL     1       3.550  15.340  18.981  0.00  0.00    +0.000 N 
ATOM     11  C   UNL     1       3.647  15.379  17.542  0.00  0.00    +0.000 C 
ENDROOT
BRANCH   7  12
ATOM     12  C   UNL     1       4.658  14.589  22.234  0.00  0.00    +0.000 A 
ATOM     13  C   UNL     1       4.308  15.783  22.936  0.00  0.00    +0.000 A 
ATOM     14  C   UNL     1       4.722  16.050  24.251  0.00  0.00    +0.000 A 
ATOM     15  C   UNL     1       5.477  15.085  24.865  0.00  0.00    +0.000 A 
ATOM     16  C   UNL     1       5.838  13.936  24.221  0.00  0.00    +0.000 A 
ATOM     17  C   UNL     1       5.483  13.669  22.898  0.00  0.00    +0.000 A 
ATOM     18  O   UNL     1       6.567  13.109  25.032  0.00  0.00    +0.000 OA
ATOM     19  C   UNL     1       6.399  13.782  26.302  0.00  0.00    +0.000 C 
ATOM     20  O   UNL     1       5.908  15.128  26.164  0.00  0.00    +0.000 OA
ENDBRANCH   7  12
BRANCH   1  21
ATOM     21  C   UNL     1       0.468  11.215  19.151  0.00  0.00    +0.000 C 
BRANCH  21  27
ATOM     22  C   UNL     1      -0.350  10.657  22.215  0.00  0.00    +0.000 C 
ATOM     23  N   UNL     1       0.409   9.795  21.350  0.00  0.00    +0.000 N 
ATOM     24  C   UNL     1       0.826   8.543  21.736  0.00  0.00    +0.000 A 
ATOM     25  N   UNL     1       1.485   7.940  20.780  0.00  0.00    +0.000 NA
ATOM     26  C   UNL     1       1.466   8.819  19.735  0.00  0.00    +0.000 A 
ATOM     27  C   UNL     1       0.812  10.007  20.043  0.00  0.00    +0.000 A 
ENDBRANCH  21  27
BRANCH  21  28
ATOM     28  C   UNL     1      -1.031  11.211  18.857  0.00  0.00    +0.000 A 
ATOM     29  C   UNL     1      -1.577  10.343  17.900  0.00  0.00    +0.000 A 
ATOM     30  C   UNL     1      -2.946  10.286  17.673  0.00  0.00    +0.000 A 
ATOM     31  C   UNL     1      -3.803  11.165  18.337  0.00  0.00    +0.000 A 
ATOM     32  C   UNL     1      -3.278  12.126  19.195  0.00  0.00    +0.000 A 
ATOM     33  C   UNL     1      -1.907  12.151  19.454  0.00  0.00    +0.000 A 
BRANCH  31  34
ATOM     34  C   UNL     1      -5.211  11.095  18.117  0.00  0.00    +0.000 C 
ATOM     35  N   UNL     1      -6.358  11.038  17.936  0.00  0.00    +0.000 NA
ENDBRANCH  31  34
ENDBRANCH  21  28
BRANCH  21  36
ATOM     36  O   UNL     1       1.110  10.954  17.875  0.00  0.00    +0.000 OA
ATOM     37  H   UNL     1       0.546  10.374  17.349  0.00  0.00    +0.000 HD
ENDBRANCH  21  36
ENDBRANCH   1  21
TORSDOF 6
ENDMDL
