MODEL 1
REMARK VINA RESULT:      -9.0      0.000      0.000
REMARK  Name = 
REMARK  9 active torsions:
REMARK  status: ('A' for Active; 'I' for Inactive)
REMARK    1  A    between atoms: C_1  and  C_2
REMARK    2  A    between atoms: C_2  and  C_3
REMARK    3  A    between atoms: C_3  and  C_4
REMARK    4  A    between atoms: C_3  and  C_6
REMARK    5  A    between atoms: C_4  and  C_5
REMARK    6  A    between atoms: C_11  and  C_13
REMARK    7  A    between atoms: C_14  and  C_15
REMARK    8  A    between atoms: N_17  and  C_18
REMARK    9  A    between atoms: C_25  and  C_26
REMARK                            x       y       z     vdW  Elec       q    Type
REMARK                         _______ _______ _______ _____ _____    ______ ____
ROOT
ATOM      1  C   UNL     1       3.126   6.478  17.977  0.00  0.00    +0.000 A 
ATOM      2  C   UNL     1       3.991   6.679  16.935  0.00  0.00    +0.000 A 
ATOM      3  N   UNL     1       4.494   5.444  16.593  0.00  0.00    +0.000 N 
ATOM      4  N   UNL     1       3.958   4.461  17.362  0.00  0.00    +0.000 NA
ATOM      5  C   UNL     1       3.178   5.086  18.261  0.00  0.00    +0.000 A 
ENDROOT
BRANCH   5   6
ATOM      6  C   UNL     1       2.514   4.339  19.338  0.00  0.00    +0.000 A 
ATOM      7  C   UNL     1       1.461   3.449  19.061  0.00  0.00    +0.000 A 
ATOM      8  C   UNL     1       0.849   2.724  20.087  0.00  0.00    +0.000 A 
ATOM      9  C   UNL     1       1.276   2.900  21.395  0.00  0.00    +0.000 A 
ATOM     10  F   UNL     1       0.688   2.203  22.378  0.00  0.00    +0.000 F 
ATOM     11  C   UNL     1       2.298   3.790  21.699  0.00  0.00    +0.000 A 
ATOM     12  C   UNL     1       2.915   4.511  20.672  0.00  0.00    +0.000 A 
ENDBRANCH   5   6
BRANCH   3  13
ATOM     13  C   UNL     1       5.451   5.148  15.582  0.00  0.00    +0.000 A 
ATOM     14  C   UNL     1       6.753   5.666  15.645  0.00  0.00    +0.000 A 
ATOM     15  C   UNL     1       7.678   5.367  14.643  0.00  0.00    +0.000 A 
ATOM     16  C   UNL     1       7.313   4.556  13.570  0.00  0.00    +0.000 A 
ATOM     17  C   UNL     1       6.021   4.035  13.501  0.00  0.00    +0.000 A 
ATOM     18  C   UNL     1       5.093   4.323  14.504  0.00  0.00    +0.000 A 
ENDBRANCH   3  13
BRANCH   1  20
ATOM     19  C   UNL     1       1.877   8.591  18.060  0.00  0.00    +0.000 C 
ATOM     20  C   UNL     1       2.422   7.512  18.649  0.00  0.00    +0.000 C 
BRANCH  19  26
ATOM     21  C   UNL     1      -0.684  11.445  22.642  0.00  0.00    +0.000 A 
ATOM     22  N   UNL     1      -0.223  10.405  23.309  0.00  0.00    +0.000 NA
ATOM     23  N   UNL     1       0.497   9.541  22.500  0.00  0.00    +0.000 NA
ATOM     24  C   UNL     1       0.522   9.939  21.248  0.00  0.00    +0.000 A 
ATOM     25  N   UNL     1       1.162   9.236  20.251  0.00  0.00    +0.000 N 
ATOM     26  C   UNL     1       1.060   9.498  18.910  0.00  0.00    +0.000 C 
ATOM     27  O   UNL     1       0.371  10.368  18.383  0.00  0.00    +0.000 OA
ATOM     28  S   UNL     1      -0.264  11.430  20.977  0.00  0.00    +0.000 S 
ATOM     29  H   UNL     1       1.674   8.430  20.587  0.00  0.00    +0.000 HD
BRANCH  21  30
ATOM     30  C   UNL     1      -1.499  12.579  23.218  0.00  0.00    +0.000 C 
BRANCH  30  32
ATOM     31  C   UNL     1      -1.150  15.052  23.845  0.00  0.00    +0.000 C 
ATOM     32  C   UNL     1      -0.882  13.942  22.837  0.00  0.00    +0.000 C 
ENDBRANCH  30  32
BRANCH  30  33
ATOM     33  C   UNL     1      -2.994  12.429  22.864  0.00  0.00    +0.000 C 
ATOM     34  C   UNL     1      -3.957  12.567  24.035  0.00  0.00    +0.000 C 
ENDBRANCH  30  33
ENDBRANCH  21  30
ENDBRANCH  19  26
ENDBRANCH   1  20
TORSDOF 7
ENDMDL
MODEL 2
REMARK VINA RESULT:      -8.7      0.366      1.180
REMARK  Name = 
REMARK  9 active torsions:
REMARK  status: ('A' for Active; 'I' for Inactive)
REMARK    1  A    between atoms: C_1  and  C_2
REMARK    2  A    between atoms: C_2  and  C_3
REMARK    3  A    between atoms: C_3  and  C_4
REMARK    4  A    between atoms: C_3  and  C_6
REMARK    5  A    between atoms: C_4  and  C_5
REMARK    6  A    between atoms: C_11  and  C_13
REMARK    7  A    between atoms: C_14  and  C_15
REMARK    8  A    between atoms: N_17  and  C_18
REMARK    9  A    between atoms: C_25  and  C_26
REMARK                            x       y       z     vdW  Elec       q    Type
REMARK                         _______ _______ _______ _____ _____    ______ ____
ROOT
ATOM      1  C   UNL     1       3.054   6.471  17.985  0.00  0.00    +0.000 A 
ATOM      2  C   UNL     1       3.942   6.684  16.964  0.00  0.00    +0.000 A 
ATOM      3  N   UNL     1       4.510   5.464  16.674  0.00  0.00    +0.000 N 
ATOM      4  N   UNL     1       3.995   4.478  17.454  0.00  0.00    +0.000 NA
ATOM      5  C   UNL     1       3.160   5.091  18.310  0.00  0.00    +0.000 A 
ENDROOT
BRANCH   5   6
ATOM      6  C   UNL     1       2.497   4.345  19.388  0.00  0.00    +0.000 A 
ATOM      7  C   UNL     1       1.382   3.529  19.126  0.00  0.00    +0.000 A 
ATOM      8  C   UNL     1       0.770   2.803  20.151  0.00  0.00    +0.000 A 
ATOM      9  C   UNL     1       1.259   2.905  21.445  0.00  0.00    +0.000 A 
ATOM     10  F   UNL     1       0.671   2.207  22.427  0.00  0.00    +0.000 F 
ATOM     11  C   UNL     1       2.345   3.721  21.735  0.00  0.00    +0.000 A 
ATOM     12  C   UNL     1       2.962   4.443  20.709  0.00  0.00    +0.000 A 
ENDBRANCH   5   6
BRANCH   3  13
ATOM     13  C   UNL     1       5.511   5.184  15.700  0.00  0.00    +0.000 A 
ATOM     14  C   UNL     1       6.827   5.644  15.863  0.00  0.00    +0.000 A 
ATOM     15  C   UNL     1       7.795   5.362  14.897  0.00  0.00    +0.000 A 
ATOM     16  C   UNL     1       7.459   4.627  13.762  0.00  0.00    +0.000 A 
ATOM     17  C   UNL     1       6.155   4.163  13.593  0.00  0.00    +0.000 A 
ATOM     18  C   UNL     1       5.184   4.434  14.559  0.00  0.00    +0.000 A 
ENDBRANCH   3  13
BRANCH   1  20
ATOM     19  C   UNL     1       1.892   8.635  18.018  0.00  0.00    +0.000 C 
ATOM     20  C   UNL     1       2.284   7.491  18.605  0.00  0.00    +0.000 C 
BRANCH  19  26
ATOM     21  C   UNL     1      -0.927  11.681  22.317  0.00  0.00    +0.000 A 
ATOM     22  N   UNL     1      -0.294  10.818  23.088  0.00  0.00    +0.000 NA
ATOM     23  N   UNL     1       0.522   9.967  22.362  0.00  0.00    +0.000 NA
ATOM     24  C   UNL     1       0.448  10.191  21.069  0.00  0.00    +0.000 A 
ATOM     25  N   UNL     1       1.156   9.459  20.141  0.00  0.00    +0.000 N 
ATOM     26  C   UNL     1       0.975   9.520  18.783  0.00  0.00    +0.000 C 
ATOM     27  O   UNL     1       0.147  10.201  18.184  0.00  0.00    +0.000 OA
ATOM     28  S   UNL     1      -0.561  11.501  20.649  0.00  0.00    +0.000 S 
ATOM     29  H   UNL     1       1.793   8.790  20.551  0.00  0.00    +0.000 HD
BRANCH  21  30
ATOM     30  C   UNL     1      -1.885  12.751  22.782  0.00  0.00    +0.000 C 
BRANCH  30  32
ATOM     31  C   UNL     1      -4.333  12.946  23.558  0.00  0.00    +0.000 C 
ATOM     32  C   UNL     1      -3.047  12.130  23.587  0.00  0.00    +0.000 C 
ENDBRANCH  30  32
BRANCH  30  33
ATOM     33  C   UNL     1      -1.140  13.893  23.505  0.00  0.00    +0.000 C 
ATOM     34  C   UNL     1      -1.440  15.295  22.992  0.00  0.00    +0.000 C 
ENDBRANCH  30  33
ENDBRANCH  21  30
ENDBRANCH  19  26
ENDBRANCH   1  20
TORSDOF 7
ENDMDL
MODEL 3
REMARK VINA RESULT:      -8.4      3.519     10.831
REMARK  Name = 
REMARK  9 active torsions:
REMARK  status: ('A' for Active; 'I' for Inactive)
REMARK    1  A    between atoms: C_1  and  C_2
REMARK    2  A    between atoms: C_2  and  C_3
REMARK    3  A    between atoms: C_3  and  C_4
REMARK    4  A    between atoms: C_3  and  C_6
REMARK    5  A    between atoms: C_4  and  C_5
REMARK    6  A    between atoms: C_11  and  C_13
REMARK    7  A    between atoms: C_14  and  C_15
REMARK    8  A    between atoms: N_17  and  C_18
REMARK    9  A    between atoms: C_25  and  C_26
REMARK                            x       y       z     vdW  Elec       q    Type
REMARK                         _______ _______ _______ _____ _____    ______ ____
ROOT
ATOM      1  C   UNL     1      -0.480  11.068  20.419  0.00  0.00    +0.000 A 
ATOM      2  C   UNL     1      -0.392  11.713  21.625  0.00  0.00    +0.000 A 
ATOM      3  N   UNL     1      -1.577  12.391  21.798  0.00  0.00    +0.000 N 
ATOM      4  N   UNL     1      -2.427  12.179  20.760  0.00  0.00    +0.000 NA
ATOM      5  C   UNL     1      -1.742  11.433  19.876  0.00  0.00    +0.000 A 
ENDROOT
BRANCH   5   6
ATOM      6  C   UNL     1      -2.314  11.096  18.565  0.00  0.00    +0.000 A 
ATOM      7  C   UNL     1      -3.534  11.651  18.142  0.00  0.00    +0.000 A 
ATOM      8  C   UNL     1      -4.062  11.345  16.885  0.00  0.00    +0.000 A 
ATOM      9  C   UNL     1      -3.380  10.468  16.054  0.00  0.00    +0.000 A 
ATOM     10  F   UNL     1      -3.887  10.177  14.848  0.00  0.00    +0.000 F 
ATOM     11  C   UNL     1      -2.184   9.888  16.457  0.00  0.00    +0.000 A 
ATOM     12  C   UNL     1      -1.653  10.198  17.712  0.00  0.00    +0.000 A 
ENDBRANCH   5   6
BRANCH   3  13
ATOM     13  C   UNL     1      -1.944  13.227  22.890  0.00  0.00    +0.000 A 
ATOM     14  C   UNL     1      -1.044  14.166  23.417  0.00  0.00    +0.000 A 
ATOM     15  C   UNL     1      -1.420  14.976  24.490  0.00  0.00    +0.000 A 
ATOM     16  C   UNL     1      -2.691  14.854  25.049  0.00  0.00    +0.000 A 
ATOM     17  C   UNL     1      -3.593  13.926  24.530  0.00  0.00    +0.000 A 
ATOM     18  C   UNL     1      -3.226  13.118  23.451  0.00  0.00    +0.000 A 
ENDBRANCH   3  13
BRANCH   1  20
ATOM     19  C   UNL     1       0.871   9.027  20.215  0.00  0.00    +0.000 C 
ATOM     20  C   UNL     1       0.557  10.282  19.850  0.00  0.00    +0.000 C 
BRANCH  19  26
ATOM     21  C   UNL     1       4.727   5.016  18.035  0.00  0.00    +0.000 A 
ATOM     22  N   UNL     1       4.536   4.464  19.217  0.00  0.00    +0.000 NA
ATOM     23  N   UNL     1       3.611   5.159  19.978  0.00  0.00    +0.000 NA
ATOM     24  C   UNL     1       3.166   6.231  19.360  0.00  0.00    +0.000 A 
ATOM     25  N   UNL     1       2.251   7.093  19.923  0.00  0.00    +0.000 N 
ATOM     26  C   UNL     1       1.899   8.315  19.411  0.00  0.00    +0.000 C 
ATOM     27  O   UNL     1       2.355   8.845  18.401  0.00  0.00    +0.000 OA
ATOM     28  S   UNL     1       3.783   6.429  17.782  0.00  0.00    +0.000 S 
ATOM     29  H   UNL     1       1.898   6.784  20.819  0.00  0.00    +0.000 HD
BRANCH  21  30
ATOM     30  C   UNL     1       5.659   4.512  16.959  0.00  0.00    +0.000 C 
BRANCH  30  32
ATOM     31  C   UNL     1       5.694   4.337  14.390  0.00  0.00    +0.000 C 
ATOM     32  C   UNL     1       5.342   5.185  15.606  0.00  0.00    +0.000 C 
ENDBRANCH  30  32
BRANCH  30  33
ATOM     33  C   UNL     1       7.133   4.619  17.401  0.00  0.00    +0.000 C 
ATOM     34  C   UNL     1       7.557   5.983  17.930  0.00  0.00    +0.000 C 
ENDBRANCH  30  33
ENDBRANCH  21  30
ENDBRANCH  19  26
ENDBRANCH   1  20
TORSDOF 7
ENDMDL
MODEL 4
REMARK VINA RESULT:      -8.3      1.517      2.262
REMARK  Name = 
REMARK  9 active torsions:
REMARK  status: ('A' for Active; 'I' for Inactive)
REMARK    1  A    between atoms: C_1  and  C_2
REMARK    2  A    between atoms: C_2  and  C_3
REMARK    3  A    between atoms: C_3  and  C_4
REMARK    4  A    between atoms: C_3  and  C_6
REMARK    5  A    between atoms: C_4  and  C_5
REMARK    6  A    between atoms: C_11  and  C_13
REMARK    7  A    between atoms: C_14  and  C_15
REMARK    8  A    between atoms: N_17  and  C_18
REMARK    9  A    between atoms: C_25  and  C_26
REMARK                            x       y       z     vdW  Elec       q    Type
REMARK                         _______ _______ _______ _____ _____    ______ ____
ROOT
ATOM      1  C   UNL     1       3.535   6.301  17.692  0.00  0.00    +0.000 A 
ATOM      2  C   UNL     1       4.336   6.475  16.595  0.00  0.00    +0.000 A 
ATOM      3  N   UNL     1       4.716   5.220  16.179  0.00  0.00    +0.000 N 
ATOM      4  N   UNL     1       4.162   4.251  16.953  0.00  0.00    +0.000 NA
ATOM      5  C   UNL     1       3.499   4.899  17.927  0.00  0.00    +0.000 A 
ENDROOT
BRANCH   5   6
ATOM      6  C   UNL     1       2.858   4.164  19.026  0.00  0.00    +0.000 A 
ATOM      7  C   UNL     1       3.620   3.406  19.932  0.00  0.00    +0.000 A 
ATOM      8  C   UNL     1       3.008   2.728  20.990  0.00  0.00    +0.000 A 
ATOM      9  C   UNL     1       1.630   2.792  21.134  0.00  0.00    +0.000 A 
ATOM     10  F   UNL     1       1.044   2.142  22.150  0.00  0.00    +0.000 F 
ATOM     11  C   UNL     1       0.851   3.515  20.240  0.00  0.00    +0.000 A 
ATOM     12  C   UNL     1       1.464   4.199  19.185  0.00  0.00    +0.000 A 
ENDBRANCH   5   6
BRANCH   3  13
ATOM     13  C   UNL     1       5.572   4.891  15.090  0.00  0.00    +0.000 A 
ATOM     14  C   UNL     1       5.160   3.997  14.090  0.00  0.00    +0.000 A 
ATOM     15  C   UNL     1       6.014   3.685  13.030  0.00  0.00    +0.000 A 
ATOM     16  C   UNL     1       7.285   4.254  12.963  0.00  0.00    +0.000 A 
ATOM     17  C   UNL     1       7.702   5.145  13.951  0.00  0.00    +0.000 A 
ATOM     18  C   UNL     1       6.849   5.468  15.009  0.00  0.00    +0.000 A 
ENDBRANCH   3  13
BRANCH   1  20
ATOM     19  C   UNL     1       2.065   8.247  17.985  0.00  0.00    +0.000 C 
ATOM     20  C   UNL     1       2.963   7.359  18.447  0.00  0.00    +0.000 C 
BRANCH  19  26
ATOM     21  C   UNL     1      -0.673  12.873  20.593  0.00  0.00    +0.000 A 
ATOM     22  N   UNL     1      -0.502  13.410  19.401  0.00  0.00    +0.000 NA
ATOM     23  N   UNL     1       0.088  12.529  18.509  0.00  0.00    +0.000 NA
ATOM     24  C   UNL     1       0.376  11.375  19.069  0.00  0.00    +0.000 A 
ATOM     25  N   UNL     1       0.985  10.344  18.388  0.00  0.00    +0.000 N 
ATOM     26  C   UNL     1       1.478   9.201  18.962  0.00  0.00    +0.000 C 
ATOM     27  O   UNL     1       1.485   8.926  20.159  0.00  0.00    +0.000 OA
ATOM     28  S   UNL     1      -0.118  11.251  20.698  0.00  0.00    +0.000 S 
ATOM     29  H   UNL     1       1.117  10.530  17.402  0.00  0.00    +0.000 HD
BRANCH  21  30
ATOM     30  C   UNL     1      -1.294  13.551  21.792  0.00  0.00    +0.000 C 
BRANCH  30  32
ATOM     31  C   UNL     1      -3.265  12.476  23.053  0.00  0.00    +0.000 C 
ATOM     32  C   UNL     1      -1.758  12.505  22.829  0.00  0.00    +0.000 C 
ENDBRANCH  30  32
BRANCH  30  33
ATOM     33  C   UNL     1      -0.366  14.648  22.356  0.00  0.00    +0.000 C 
ATOM     34  C   UNL     1      -0.863  15.334  23.621  0.00  0.00    +0.000 C 
ENDBRANCH  30  33
ENDBRANCH  21  30
ENDBRANCH  19  26
ENDBRANCH   1  20
TORSDOF 7
ENDMDL
MODEL 5
REMARK VINA RESULT:      -8.2      1.682      1.898
REMARK  Name = 
REMARK  9 active torsions:
REMARK  status: ('A' for Active; 'I' for Inactive)
REMARK    1  A    between atoms: C_1  and  C_2
REMARK    2  A    between atoms: C_2  and  C_3
REMARK    3  A    between atoms: C_3  and  C_4
REMARK    4  A    between atoms: C_3  and  C_6
REMARK    5  A    between atoms: C_4  and  C_5
REMARK    6  A    between atoms: C_11  and  C_13
REMARK    7  A    between atoms: C_14  and  C_15
REMARK    8  A    between atoms: N_17  and  C_18
REMARK    9  A    between atoms: C_25  and  C_26
REMARK                            x       y       z     vdW  Elec       q    Type
REMARK                         _______ _______ _______ _____ _____    ______ ____
ROOT
ATOM      1  C   UNL     1       3.703   6.308  17.493  0.00  0.00    +0.000 A 
ATOM      2  C   UNL     1       4.474   6.466  16.372  0.00  0.00    +0.000 A 
ATOM      3  N   UNL     1       4.843   5.204  15.964  0.00  0.00    +0.000 N 
ATOM      4  N   UNL     1       4.312   4.247  16.769  0.00  0.00    +0.000 NA
ATOM      5  C   UNL     1       3.675   4.909  17.750  0.00  0.00    +0.000 A 
ENDROOT
BRANCH   5   6
ATOM      6  C   UNL     1       3.066   4.191  18.878  0.00  0.00    +0.000 A 
ATOM      7  C   UNL     1       1.710   4.372  19.205  0.00  0.00    +0.000 A 
ATOM      8  C   UNL     1       1.130   3.669  20.264  0.00  0.00    +0.000 A 
ATOM      9  C   UNL     1       1.909   2.797  21.012  0.00  0.00    +0.000 A 
ATOM     10  F   UNL     1       1.351   2.123  22.027  0.00  0.00    +0.000 F 
ATOM     11  C   UNL     1       3.256   2.618  20.725  0.00  0.00    +0.000 A 
ATOM     12  C   UNL     1       3.835   3.317  19.661  0.00  0.00    +0.000 A 
ENDBRANCH   5   6
BRANCH   3  13
ATOM     13  C   UNL     1       5.669   4.859  14.857  0.00  0.00    +0.000 A 
ATOM     14  C   UNL     1       6.947   5.419  14.706  0.00  0.00    +0.000 A 
ATOM     15  C   UNL     1       7.742   5.070  13.613  0.00  0.00    +0.000 A 
ATOM     16  C   UNL     1       7.270   4.168  12.661  0.00  0.00    +0.000 A 
ATOM     17  C   UNL     1       6.003   3.604  12.805  0.00  0.00    +0.000 A 
ATOM     18  C   UNL     1       5.205   3.942  13.900  0.00  0.00    +0.000 A 
ENDBRANCH   3  13
BRANCH   1  20
ATOM     19  C   UNL     1       2.157   8.184  17.839  0.00  0.00    +0.000 C 
ATOM     20  C   UNL     1       3.152   7.377  18.248  0.00  0.00    +0.000 C 
BRANCH  19  26
ATOM     21  C   UNL     1      -0.135  13.021  20.495  0.00  0.00    +0.000 A 
ATOM     22  N   UNL     1       0.224  13.588  19.359  0.00  0.00    +0.000 NA
ATOM     23  N   UNL     1       0.766  12.678  18.467  0.00  0.00    +0.000 NA
ATOM     24  C   UNL     1       0.833  11.466  18.974  0.00  0.00    +0.000 A 
ATOM     25  N   UNL     1       1.351  10.394  18.282  0.00  0.00    +0.000 N 
ATOM     26  C   UNL     1       1.620   9.162  18.822  0.00  0.00    +0.000 C 
ATOM     27  O   UNL     1       1.473   8.828  19.995  0.00  0.00    +0.000 OA
ATOM     28  S   UNL     1       0.172  11.332  20.542  0.00  0.00    +0.000 S 
ATOM     29  H   UNL     1       1.602  10.609  17.326  0.00  0.00    +0.000 HD
BRANCH  21  30
ATOM     30  C   UNL     1      -0.765  13.720  21.676  0.00  0.00    +0.000 C 
BRANCH  30  32
ATOM     31  C   UNL     1      -2.088  15.914  21.941  0.00  0.00    +0.000 C 
ATOM     32  C   UNL     1      -1.969  14.574  21.225  0.00  0.00    +0.000 C 
ENDBRANCH  30  32
BRANCH  30  33
ATOM     33  C   UNL     1      -1.073  12.725  22.815  0.00  0.00    +0.000 C 
ATOM     34  C   UNL     1      -2.544  12.378  22.996  0.00  0.00    +0.000 C 
ENDBRANCH  30  33
ENDBRANCH  21  30
ENDBRANCH  19  26
ENDBRANCH   1  20
TORSDOF 7
ENDMDL
MODEL 6
REMARK VINA RESULT:      -8.2      1.632      2.142
REMARK  Name = 
REMARK  9 active torsions:
REMARK  status: ('A' for Active; 'I' for Inactive)
REMARK    1  A    between atoms: C_1  and  C_2
REMARK    2  A    between atoms: C_2  and  C_3
REMARK    3  A    between atoms: C_3  and  C_4
REMARK    4  A    between atoms: C_3  and  C_6
REMARK    5  A    between atoms: C_4  and  C_5
REMARK    6  A    between atoms: C_11  and  C_13
REMARK    7  A    between atoms: C_14  and  C_15
REMARK    8  A    between atoms: N_17  and  C_18
REMARK    9  A    between atoms: C_25  and  C_26
REMARK                            x       y       z     vdW  Elec       q    Type
REMARK                         _______ _______ _______ _____ _____    ______ ____
ROOT
ATOM      1  C   UNL     1       3.414   6.359  17.763  0.00  0.00    +0.000 A 
ATOM      2  C   UNL     1       4.238   6.529  16.682  0.00  0.00    +0.000 A 
ATOM      3  N   UNL     1       4.662   5.274  16.307  0.00  0.00    +0.000 N 
ATOM      4  N   UNL     1       4.115   4.310  17.092  0.00  0.00    +0.000 NA
ATOM      5  C   UNL     1       3.410   4.963  18.032  0.00  0.00    +0.000 A 
ENDROOT
BRANCH   5   6
ATOM      6  C   UNL     1       2.762   4.238  19.134  0.00  0.00    +0.000 A 
ATOM      7  C   UNL     1       3.514   3.457  20.029  0.00  0.00    +0.000 A 
ATOM      8  C   UNL     1       2.895   2.788  21.089  0.00  0.00    +0.000 A 
ATOM      9  C   UNL     1       1.520   2.884  21.246  0.00  0.00    +0.000 A 
ATOM     10  F   UNL     1       0.928   2.243  22.264  0.00  0.00    +0.000 F 
ATOM     11  C   UNL     1       0.751   3.631  20.362  0.00  0.00    +0.000 A 
ATOM     12  C   UNL     1       1.370   4.305  19.305  0.00  0.00    +0.000 A 
ENDBRANCH   5   6
BRANCH   3  13
ATOM     13  C   UNL     1       5.554   4.942  15.248  0.00  0.00    +0.000 A 
ATOM     14  C   UNL     1       6.855   5.465  15.208  0.00  0.00    +0.000 A 
ATOM     15  C   UNL     1       7.716   5.130  14.162  0.00  0.00    +0.000 A 
ATOM     16  C   UNL     1       7.287   4.278  13.146  0.00  0.00    +0.000 A 
ATOM     17  C   UNL     1       5.996   3.751  13.178  0.00  0.00    +0.000 A 
ATOM     18  C   UNL     1       5.132   4.076  14.227  0.00  0.00    +0.000 A 
ENDBRANCH   3  13
BRANCH   1  20
ATOM     19  C   UNL     1       2.233   8.506  17.920  0.00  0.00    +0.000 C 
ATOM     20  C   UNL     1       2.795   7.419  18.477  0.00  0.00    +0.000 C 
BRANCH  19  26
ATOM     21  C   UNL     1      -0.690  13.173  20.239  0.00  0.00    +0.000 A 
ATOM     22  N   UNL     1      -0.230  13.766  19.155  0.00  0.00    +0.000 NA
ATOM     23  N   UNL     1       0.479  12.896  18.343  0.00  0.00    +0.000 NA
ATOM     24  C   UNL     1       0.562  11.691  18.861  0.00  0.00    +0.000 A 
ATOM     25  N   UNL     1       1.233  10.657  18.246  0.00  0.00    +0.000 N 
ATOM     26  C   UNL     1       1.513   9.444  18.822  0.00  0.00    +0.000 C 
ATOM     27  O   UNL     1       1.243   9.098  19.969  0.00  0.00    +0.000 OA
ATOM     28  S   UNL     1      -0.280  11.509  20.334  0.00  0.00    +0.000 S 
ATOM     29  H   UNL     1       1.588  10.891  17.328  0.00  0.00    +0.000 HD
BRANCH  21  30
ATOM     30  C   UNL     1      -1.509  13.826  21.328  0.00  0.00    +0.000 C 
BRANCH  30  32
ATOM     31  C   UNL     1      -3.815  12.720  21.631  0.00  0.00    +0.000 C 
ATOM     32  C   UNL     1      -3.008  13.824  20.958  0.00  0.00    +0.000 C 
ENDBRANCH  30  32
BRANCH  30  33
ATOM     33  C   UNL     1      -1.187  13.217  22.709  0.00  0.00    +0.000 C 
ATOM     34  C   UNL     1      -1.361  14.160  23.893  0.00  0.00    +0.000 C 
ENDBRANCH  30  33
ENDBRANCH  21  30
ENDBRANCH  19  26
ENDBRANCH   1  20
TORSDOF 7
ENDMDL
MODEL 7
REMARK VINA RESULT:      -8.2      1.753      2.172
REMARK  Name = 
REMARK  9 active torsions:
REMARK  status: ('A' for Active; 'I' for Inactive)
REMARK    1  A    between atoms: C_1  and  C_2
REMARK    2  A    between atoms: C_2  and  C_3
REMARK    3  A    between atoms: C_3  and  C_4
REMARK    4  A    between atoms: C_3  and  C_6
REMARK    5  A    between atoms: C_4  and  C_5
REMARK    6  A    between atoms: C_11  and  C_13
REMARK    7  A    between atoms: C_14  and  C_15
REMARK    8  A    between atoms: N_17  and  C_18
REMARK    9  A    between atoms: C_25  and  C_26
REMARK                            x       y       z     vdW  Elec       q    Type
REMARK                         _______ _______ _______ _____ _____    ______ ____
ROOT
ATOM      1  C   UNL     1       3.871   6.246  17.299  0.00  0.00    +0.000 A 
ATOM      2  C   UNL     1       4.626   6.392  16.165  0.00  0.00    +0.000 A 
ATOM      3  N   UNL     1       4.954   5.123  15.742  0.00  0.00    +0.000 N 
ATOM      4  N   UNL     1       4.410   4.175  16.549  0.00  0.00    +0.000 NA
ATOM      5  C   UNL     1       3.809   4.847  17.546  0.00  0.00    +0.000 A 
ENDROOT
BRANCH   5   6
ATOM      6  C   UNL     1       3.199   4.137  18.679  0.00  0.00    +0.000 A 
ATOM      7  C   UNL     1       1.819   4.227  18.932  0.00  0.00    +0.000 A 
ATOM      8  C   UNL     1       1.241   3.531  19.997  0.00  0.00    +0.000 A 
ATOM      9  C   UNL     1       2.044   2.759  20.824  0.00  0.00    +0.000 A 
ATOM     10  F   UNL     1       1.488   2.091  21.845  0.00  0.00    +0.000 F 
ATOM     11  C   UNL     1       3.414   2.672  20.610  0.00  0.00    +0.000 A 
ATOM     12  C   UNL     1       3.992   3.363  19.540  0.00  0.00    +0.000 A 
ENDBRANCH   5   6
BRANCH   3  13
ATOM     13  C   UNL     1       5.751   4.764  14.619  0.00  0.00    +0.000 A 
ATOM     14  C   UNL     1       5.289   3.841  13.669  0.00  0.00    +0.000 A 
ATOM     15  C   UNL     1       6.086   3.499  12.575  0.00  0.00    +0.000 A 
ATOM     16  C   UNL     1       7.348   4.069  12.422  0.00  0.00    +0.000 A 
ATOM     17  C   UNL     1       7.815   4.989  13.359  0.00  0.00    +0.000 A 
ATOM     18  C   UNL     1       7.020   5.342  14.452  0.00  0.00    +0.000 A 
ENDBRANCH   3  13
BRANCH   1  20
ATOM     19  C   UNL     1       2.211   7.977  17.829  0.00  0.00    +0.000 C 
ATOM     20  C   UNL     1       3.362   7.324  18.070  0.00  0.00    +0.000 C 
BRANCH  19  26
ATOM     21  C   UNL     1       0.460  12.993  20.563  0.00  0.00    +0.000 A 
ATOM     22  N   UNL     1       0.906  13.539  19.448  0.00  0.00    +0.000 NA
ATOM     23  N   UNL     1       1.354  12.590  18.544  0.00  0.00    +0.000 NA
ATOM     24  C   UNL     1       1.265  11.368  19.021  0.00  0.00    +0.000 A 
ATOM     25  N   UNL     1       1.666  10.257  18.312  0.00  0.00    +0.000 N 
ATOM     26  C   UNL     1       1.775   8.991  18.825  0.00  0.00    +0.000 C 
ATOM     27  O   UNL     1       1.567   8.650  19.987  0.00  0.00    +0.000 OA
ATOM     28  S   UNL     1       0.563  11.279  20.573  0.00  0.00    +0.000 S 
ATOM     29  H   UNL     1       1.960  10.462  17.366  0.00  0.00    +0.000 HD
BRANCH  21  30
ATOM     30  C   UNL     1      -0.106  13.736  21.750  0.00  0.00    +0.000 C 
BRANCH  30  32
ATOM     31  C   UNL     1      -0.172  16.309  21.702  0.00  0.00    +0.000 C 
ATOM     32  C   UNL     1      -0.850  15.008  21.292  0.00  0.00    +0.000 C 
ENDBRANCH  30  32
BRANCH  30  33
ATOM     33  C   UNL     1      -0.934  12.797  22.654  0.00  0.00    +0.000 C 
ATOM     34  C   UNL     1      -2.350  13.267  22.957  0.00  0.00    +0.000 C 
ENDBRANCH  30  33
ENDBRANCH  21  30
ENDBRANCH  19  26
ENDBRANCH   1  20
TORSDOF 7
ENDMDL
MODEL 8
REMARK VINA RESULT:      -8.2      1.652      2.182
REMARK  Name = 
REMARK  9 active torsions:
REMARK  status: ('A' for Active; 'I' for Inactive)
REMARK    1  A    between atoms: C_1  and  C_2
REMARK    2  A    between atoms: C_2  and  C_3
REMARK    3  A    between atoms: C_3  and  C_4
REMARK    4  A    between atoms: C_3  and  C_6
REMARK    5  A    between atoms: C_4  and  C_5
REMARK    6  A    between atoms: C_11  and  C_13
REMARK    7  A    between atoms: C_14  and  C_15
REMARK    8  A    between atoms: N_17  and  C_18
REMARK    9  A    between atoms: C_25  and  C_26
REMARK                            x       y       z     vdW  Elec       q    Type
REMARK                         _______ _______ _______ _____ _____    ______ ____
ROOT
ATOM      1  C   UNL     1       3.424   6.345  17.772  0.00  0.00    +0.000 A 
ATOM      2  C   UNL     1       4.233   6.524  16.681  0.00  0.00    +0.000 A 
ATOM      3  N   UNL     1       4.669   5.275  16.301  0.00  0.00    +0.000 N 
ATOM      4  N   UNL     1       4.145   4.305  17.094  0.00  0.00    +0.000 NA
ATOM      5  C   UNL     1       3.442   4.949  18.041  0.00  0.00    +0.000 A 
ENDROOT
BRANCH   5   6
ATOM      6  C   UNL     1       2.817   4.216  19.151  0.00  0.00    +0.000 A 
ATOM      7  C   UNL     1       1.431   4.288  19.377  0.00  0.00    +0.000 A 
ATOM      8  C   UNL     1       0.838   3.571  20.420  0.00  0.00    +0.000 A 
ATOM      9  C   UNL     1       1.632   2.794  21.251  0.00  0.00    +0.000 A 
ATOM     10  F   UNL     1       1.062   2.106  22.250  0.00  0.00    +0.000 F 
ATOM     11  C   UNL     1       3.007   2.724  21.064  0.00  0.00    +0.000 A 
ATOM     12  C   UNL     1       3.599   3.437  20.017  0.00  0.00    +0.000 A 
ENDBRANCH   5   6
BRANCH   3  13
ATOM     13  C   UNL     1       5.554   4.955  15.232  0.00  0.00    +0.000 A 
ATOM     14  C   UNL     1       6.845   5.501  15.173  0.00  0.00    +0.000 A 
ATOM     15  C   UNL     1       7.697   5.177  14.116  0.00  0.00    +0.000 A 
ATOM     16  C   UNL     1       7.270   4.312  13.110  0.00  0.00    +0.000 A 
ATOM     17  C   UNL     1       5.990   3.762  13.162  0.00  0.00    +0.000 A 
ATOM     18  C   UNL     1       5.134   4.076  14.221  0.00  0.00    +0.000 A 
ENDBRANCH   3  13
BRANCH   1  20
ATOM     19  C   UNL     1       2.063   8.381  17.946  0.00  0.00    +0.000 C 
ATOM     20  C   UNL     1       2.799   7.397  18.491  0.00  0.00    +0.000 C 
BRANCH  19  26
ATOM     21  C   UNL     1      -1.052  12.892  20.323  0.00  0.00    +0.000 A 
ATOM     22  N   UNL     1      -0.848  13.419  19.131  0.00  0.00    +0.000 NA
ATOM     23  N   UNL     1      -0.166  12.557  18.288  0.00  0.00    +0.000 NA
ATOM     24  C   UNL     1       0.154  11.430  18.883  0.00  0.00    +0.000 A 
ATOM     25  N   UNL     1       0.852  10.423  18.254  0.00  0.00    +0.000 N 
ATOM     26  C   UNL     1       1.375   9.318  18.874  0.00  0.00    +0.000 C 
ATOM     27  O   UNL     1       1.335   9.063  20.075  0.00  0.00    +0.000 OA
ATOM     28  S   UNL     1      -0.416  11.306  20.487  0.00  0.00    +0.000 S 
ATOM     29  H   UNL     1       1.025  10.599  17.273  0.00  0.00    +0.000 HD
BRANCH  21  30
ATOM     30  C   UNL     1      -1.769  13.555  21.475  0.00  0.00    +0.000 C 
BRANCH  30  32
ATOM     31  C   UNL     1      -4.179  12.819  20.942  0.00  0.00    +0.000 C 
ATOM     32  C   UNL     1      -2.999  12.724  21.901  0.00  0.00    +0.000 C 
ENDBRANCH  30  32
BRANCH  30  33
ATOM     33  C   UNL     1      -0.793  13.892  22.622  0.00  0.00    +0.000 C 
ATOM     34  C   UNL     1       0.348  14.830  22.252  0.00  0.00    +0.000 C 
ENDBRANCH  30  33
ENDBRANCH  21  30
ENDBRANCH  19  26
ENDBRANCH   1  20
TORSDOF 7
ENDMDL
MODEL 9
REMARK VINA RESULT:      -8.2      1.710      1.989
REMARK  Name = 
REMARK  9 active torsions:
REMARK  status: ('A' for Active; 'I' for Inactive)
REMARK    1  A    between atoms: C_1  and  C_2
REMARK    2  A    between atoms: C_2  and  C_3
REMARK    3  A    between atoms: C_3  and  C_4
REMARK    4  A    between atoms: C_3  and  C_6
REMARK    5  A    between atoms: C_4  and  C_5
REMARK    6  A    between atoms: C_11  and  C_13
REMARK    7  A    between atoms: C_14  and  C_15
REMARK    8  A    between atoms: N_17  and  C_18
REMARK    9  A    between atoms: C_25  and  C_26
REMARK                            x       y       z     vdW  Elec       q    Type
REMARK                         _______ _______ _______ _____ _____    ______ ____
ROOT
ATOM      1  C   UNL     1       3.873   6.193  17.337  0.00  0.00    +0.000 A 
ATOM      2  C   UNL     1       4.648   6.362  16.219  0.00  0.00    +0.000 A 
ATOM      3  N   UNL     1       4.952   5.102  15.755  0.00  0.00    +0.000 N 
ATOM      4  N   UNL     1       4.376   4.139  16.520  0.00  0.00    +0.000 NA
ATOM      5  C   UNL     1       3.776   4.788  17.533  0.00  0.00    +0.000 A 
ENDROOT
BRANCH   5   6
ATOM      6  C   UNL     1       3.136   4.053  18.631  0.00  0.00    +0.000 A 
ATOM      7  C   UNL     1       3.900   3.320  19.556  0.00  0.00    +0.000 A 
ATOM      8  C   UNL     1       3.288   2.641  20.613  0.00  0.00    +0.000 A 
ATOM      9  C   UNL     1       1.906   2.679  20.738  0.00  0.00    +0.000 A 
ATOM     10  F   UNL     1       1.320   2.028  21.753  0.00  0.00    +0.000 F 
ATOM     11  C   UNL     1       1.126   3.376  19.824  0.00  0.00    +0.000 A 
ATOM     12  C   UNL     1       1.739   4.060  18.770  0.00  0.00    +0.000 A 
ENDBRANCH   5   6
BRANCH   3  13
ATOM     13  C   UNL     1       5.757   4.765  14.630  0.00  0.00    +0.000 A 
ATOM     14  C   UNL     1       7.024   5.340  14.449  0.00  0.00    +0.000 A 
ATOM     15  C   UNL     1       7.799   5.000  13.338  0.00  0.00    +0.000 A 
ATOM     16  C   UNL     1       7.316   4.089  12.400  0.00  0.00    +0.000 A 
ATOM     17  C   UNL     1       6.060   3.511  12.573  0.00  0.00    +0.000 A 
ATOM     18  C   UNL     1       5.283   3.841  13.686  0.00  0.00    +0.000 A 
ENDBRANCH   3  13
BRANCH   1  20
ATOM     19  C   UNL     1       2.156   7.805  18.033  0.00  0.00    +0.000 C 
ATOM     20  C   UNL     1       3.378   7.255  18.140  0.00  0.00    +0.000 C 
BRANCH  19  26
ATOM     21  C   UNL     1       0.317  12.748  20.840  0.00  0.00    +0.000 A 
ATOM     22  N   UNL     1       0.542  13.284  19.656  0.00  0.00    +0.000 NA
ATOM     23  N   UNL     1       0.949  12.343  18.725  0.00  0.00    +0.000 NA
ATOM     24  C   UNL     1       1.054  11.141  19.247  0.00  0.00    +0.000 A 
ATOM     25  N   UNL     1       1.459  10.042  18.521  0.00  0.00    +0.000 N 
ATOM     26  C   UNL     1       1.767   8.816  19.051  0.00  0.00    +0.000 C 
ATOM     27  O   UNL     1       1.762   8.509  20.241  0.00  0.00    +0.000 OA
ATOM     28  S   UNL     1       0.592  11.054  20.887  0.00  0.00    +0.000 S 
ATOM     29  H   UNL     1       1.592  10.232  17.537  0.00  0.00    +0.000 HD
BRANCH  21  30
ATOM     30  C   UNL     1      -0.145  13.486  22.075  0.00  0.00    +0.000 C 
BRANCH  30  32
ATOM     31  C   UNL     1      -0.636  15.835  23.009  0.00  0.00    +0.000 C 
ATOM     32  C   UNL     1      -0.080  15.013  21.853  0.00  0.00    +0.000 C 
ENDBRANCH  30  32
BRANCH  30  33
ATOM     33  C   UNL     1      -1.515  12.964  22.557  0.00  0.00    +0.000 C 
ATOM     34  C   UNL     1      -2.617  12.959  21.506  0.00  0.00    +0.000 C 
ENDBRANCH  30  33
ENDBRANCH  21  30
ENDBRANCH  19  26
ENDBRANCH   1  20
TORSDOF 7
ENDMDL
