MODEL 1
REMARK VINA RESULT:      -7.9      0.000      0.000
REMARK  Name = 
REMARK  10 active torsions:
REMARK  status: ('A' for Active; 'I' for Inactive)
REMARK    1  A    between atoms: C_1  and  C_2
REMARK    2  A    between atoms: C_2  and  C_3
REMARK    3  A    between atoms: C_2  and  N_4
REMARK    4  A    between atoms: N_4  and  C_5
REMARK    5  A    between atoms: C_5  and  C_6
REMARK    6  A    between atoms: N_8  and  C_9
REMARK    7  A    between atoms: C_9  and  C_10
REMARK    8  A    between atoms: N_12  and  C_13
REMARK    9  A    between atoms: C_17  and  C_18
REMARK   10  A    between atoms: C_26  and  C_27
REMARK                            x       y       z     vdW  Elec       q    Type
REMARK                         _______ _______ _______ _____ _____    ______ ____
ROOT
ATOM      1  C   UNL     1       1.990   6.064  20.409  0.00  0.00    +0.000 C 
ATOM      2  O   UNL     1       0.806   5.764  20.653  0.00  0.00    +0.000 OA
ATOM      3  N   UNL     1       2.474   7.359  20.525  0.00  0.00    +0.000 N 
ATOM      4  H   UNL     1       3.430   7.515  20.821  0.00  0.00    +0.000 HD
ENDROOT
BRANCH   3   5
ATOM      5  C   UNL     1       1.581   8.427  20.590  0.00  0.00    +0.000 A 
ATOM      6  S   UNL     1       1.037   8.845  22.154  0.00  0.00    +0.000 S 
ATOM      7  C   UNL     1      -0.026  10.041  21.541  0.00  0.00    +0.000 A 
ATOM      8  C   UNL     1       0.103  10.185  20.178  0.00  0.00    +0.000 A 
ATOM      9  C   UNL     1       1.050   9.248  19.607  0.00  0.00    +0.000 A 
ATOM     10  C   UNL     1      -0.654  11.224  19.420  0.00  0.00    +0.000 C 
ATOM     11  C   UNL     1      -1.191  12.368  20.258  0.00  0.00    +0.000 C 
ATOM     12  C   UNL     1      -1.579  12.060  21.705  0.00  0.00    +0.000 C 
ATOM     13  C   UNL     1      -0.949  10.840  22.408  0.00  0.00    +0.000 C 
BRANCH   9  14
ATOM     14  C   UNL     1       1.499   9.237  18.219  0.00  0.00    +0.000 C 
ATOM     15  N   UNL     1       1.900  10.423  17.687  0.00  0.00    +0.000 N 
ATOM     16  O   UNL     1       1.582   8.214  17.536  0.00  0.00    +0.000 OA
ATOM     17  H   UNL     1       1.716  11.316  18.124  0.00  0.00    +0.000 HD
ATOM     18  H   UNL     1       2.208  10.415  16.728  0.00  0.00    +0.000 HD
ENDBRANCH   9  14
ENDBRANCH   3   5
BRANCH   1  19
ATOM     19  C   UNL     1       2.970   4.949  20.124  0.00  0.00    +0.000 C 
BRANCH  19  22
ATOM     20  C   UNL     1       5.033   5.472  17.190  0.00  0.00    +0.000 A 
ATOM     21  C   UNL     1       3.788   5.276  17.759  0.00  0.00    +0.000 A 
ATOM     22  N   UNL     1       3.970   5.220  19.105  0.00  0.00    +0.000 N 
ATOM     23  N   UNL     1       5.267   5.289  19.464  0.00  0.00    +0.000 NA
ATOM     24  C   UNL     1       5.940   5.421  18.299  0.00  0.00    +0.000 A 
BRANCH  24  25
ATOM     25  C   UNL     1       7.449   5.505  18.266  0.00  0.00    +0.000 C 
ATOM     26  F   UNL     1       7.903   6.625  17.633  0.00  0.00    +0.000 F 
ATOM     27  F   UNL     1       7.993   5.538  19.514  0.00  0.00    +0.000 F 
ATOM     28  F   UNL     1       8.017   4.454  17.615  0.00  0.00    +0.000 F 
ENDBRANCH  24  25
BRANCH  20  29
ATOM     29  C   UNL     1       5.316   5.731  15.744  0.00  0.00    +0.000 C 
BRANCH  29  30
ATOM     30  N   UNL     1       5.106   4.514  14.964  0.00  0.00    +0.000 NA
ATOM     31  H   UNL     1       4.788   3.777  15.594  0.00  0.00    +0.000 HD
BRANCH  30  33
ATOM     32  C   UNL     1       6.002   3.562  12.918  0.00  0.00    +0.000 C 
ATOM     33  C   UNL     1       6.346   4.024  14.337  0.00  0.00    +0.000 C 
ATOM     34  C   UNL     1       7.446   5.083  14.282  0.00  0.00    +0.000 C 
ENDBRANCH  30  33
ENDBRANCH  29  30
ENDBRANCH  20  29
ENDBRANCH  19  22
ENDBRANCH   1  19
TORSDOF 8
ENDMDL
MODEL 2
REMARK VINA RESULT:      -7.8      2.988      3.972
REMARK  Name = 
REMARK  10 active torsions:
REMARK  status: ('A' for Active; 'I' for Inactive)
REMARK    1  A    between atoms: C_1  and  C_2
REMARK    2  A    between atoms: C_2  and  C_3
REMARK    3  A    between atoms: C_2  and  N_4
REMARK    4  A    between atoms: N_4  and  C_5
REMARK    5  A    between atoms: C_5  and  C_6
REMARK    6  A    between atoms: N_8  and  C_9
REMARK    7  A    between atoms: C_9  and  C_10
REMARK    8  A    between atoms: N_12  and  C_13
REMARK    9  A    between atoms: C_17  and  C_18
REMARK   10  A    between atoms: C_26  and  C_27
REMARK                            x       y       z     vdW  Elec       q    Type
REMARK                         _______ _______ _______ _____ _____    ______ ____
ROOT
ATOM      1  C   UNL     1       1.853   9.511  18.055  0.00  0.00    +0.000 C 
ATOM      2  O   UNL     1       2.274  10.683  18.094  0.00  0.00    +0.000 OA
ATOM      3  N   UNL     1       0.620   9.141  18.572  0.00  0.00    +0.000 N 
ATOM      4  H   UNL     1       0.088   8.402  18.128  0.00  0.00    +0.000 HD
ENDROOT
BRANCH   3   5
ATOM      5  C   UNL     1      -0.043   9.992  19.454  0.00  0.00    +0.000 A 
ATOM      6  S   UNL     1       0.392   9.843  21.098  0.00  0.00    +0.000 S 
ATOM      7  C   UNL     1      -0.784  10.989  21.587  0.00  0.00    +0.000 A 
ATOM      8  C   UNL     1      -1.430  11.546  20.507  0.00  0.00    +0.000 A 
ATOM      9  C   UNL     1      -0.998  10.975  19.246  0.00  0.00    +0.000 A 
ATOM     10  C   UNL     1      -2.439  12.633  20.667  0.00  0.00    +0.000 C 
ATOM     11  C   UNL     1      -2.373  13.383  21.984  0.00  0.00    +0.000 C 
ATOM     12  C   UNL     1      -1.901  12.606  23.214  0.00  0.00    +0.000 C 
ATOM     13  C   UNL     1      -1.035  11.345  23.019  0.00  0.00    +0.000 C 
BRANCH   9  14
ATOM     14  C   UNL     1      -1.399  11.443  17.923  0.00  0.00    +0.000 C 
ATOM     15  N   UNL     1      -1.067  12.720  17.590  0.00  0.00    +0.000 N 
ATOM     16  O   UNL     1      -1.964  10.732  17.090  0.00  0.00    +0.000 OA
ATOM     17  H   UNL     1      -0.750  13.402  18.264  0.00  0.00    +0.000 HD
ATOM     18  H   UNL     1      -1.346  13.042  16.678  0.00  0.00    +0.000 HD
ENDBRANCH   9  14
ENDBRANCH   3   5
BRANCH   1  19
ATOM     19  C   UNL     1       2.648   8.487  17.278  0.00  0.00    +0.000 C 
BRANCH  19  22
ATOM     20  C   UNL     1       4.246   5.586  18.751  0.00  0.00    +0.000 A 
ATOM     21  C   UNL     1       4.289   6.671  17.894  0.00  0.00    +0.000 A 
ATOM     22  N   UNL     1       3.107   7.330  18.028  0.00  0.00    +0.000 N 
ATOM     23  N   UNL     1       2.249   6.708  18.860  0.00  0.00    +0.000 NA
ATOM     24  C   UNL     1       2.921   5.621  19.299  0.00  0.00    +0.000 A 
BRANCH  24  25
ATOM     25  C   UNL     1       2.285   4.630  20.247  0.00  0.00    +0.000 C 
ATOM     26  F   UNL     1       0.923   4.708  20.258  0.00  0.00    +0.000 F 
ATOM     27  F   UNL     1       2.580   3.341  19.922  0.00  0.00    +0.000 F 
ATOM     28  F   UNL     1       2.679   4.812  21.536  0.00  0.00    +0.000 F 
ENDBRANCH  24  25
BRANCH  20  29
ATOM     29  C   UNL     1       5.371   4.647  19.049  0.00  0.00    +0.000 C 
BRANCH  29  30
ATOM     30  N   UNL     1       6.474   5.364  19.682  0.00  0.00    +0.000 NA
ATOM     31  H   UNL     1       6.163   6.314  19.891  0.00  0.00    +0.000 HD
BRANCH  30  33
ATOM     32  C   UNL     1       7.421   4.583  17.588  0.00  0.00    +0.000 C 
ATOM     33  C   UNL     1       7.646   5.492  18.799  0.00  0.00    +0.000 C 
ATOM     34  C   UNL     1       7.887   6.927  18.331  0.00  0.00    +0.000 C 
ENDBRANCH  30  33
ENDBRANCH  29  30
ENDBRANCH  20  29
ENDBRANCH  19  22
ENDBRANCH   1  19
TORSDOF 8
ENDMDL
MODEL 3
REMARK VINA RESULT:      -7.6      2.579      4.639
REMARK  Name = 
REMARK  10 active torsions:
REMARK  status: ('A' for Active; 'I' for Inactive)
REMARK    1  A    between atoms: C_1  and  C_2
REMARK    2  A    between atoms: C_2  and  C_3
REMARK    3  A    between atoms: C_2  and  N_4
REMARK    4  A    between atoms: N_4  and  C_5
REMARK    5  A    between atoms: C_5  and  C_6
REMARK    6  A    between atoms: N_8  and  C_9
REMARK    7  A    between atoms: C_9  and  C_10
REMARK    8  A    between atoms: N_12  and  C_13
REMARK    9  A    between atoms: C_17  and  C_18
REMARK   10  A    between atoms: C_26  and  C_27
REMARK                            x       y       z     vdW  Elec       q    Type
REMARK                         _______ _______ _______ _____ _____    ______ ____
ROOT
ATOM      1  C   UNL     1       0.871  10.123  18.634  0.00  0.00    +0.000 C 
ATOM      2  O   UNL     1      -0.249   9.728  18.262  0.00  0.00    +0.000 OA
ATOM      3  N   UNL     1       1.055  10.876  19.785  0.00  0.00    +0.000 N 
ATOM      4  H   UNL     1       1.901  10.763  20.332  0.00  0.00    +0.000 HD
ENDROOT
BRANCH   3   5
ATOM      5  C   UNL     1      -0.037  11.504  20.381  0.00  0.00    +0.000 A 
ATOM      6  S   UNL     1      -0.384  11.026  21.983  0.00  0.00    +0.000 S 
ATOM      7  C   UNL     1      -1.785  12.009  22.049  0.00  0.00    +0.000 A 
ATOM      8  C   UNL     1      -1.932  12.761  20.905  0.00  0.00    +0.000 A 
ATOM      9  C   UNL     1      -0.906  12.481  19.920  0.00  0.00    +0.000 A 
ATOM     10  C   UNL     1      -3.029  13.761  20.755  0.00  0.00    +0.000 C 
ATOM     11  C   UNL     1      -3.663  14.219  22.054  0.00  0.00    +0.000 C 
ATOM     12  C   UNL     1      -3.712  13.216  23.207  0.00  0.00    +0.000 C 
ATOM     13  C   UNL     1      -2.704  12.049  23.230  0.00  0.00    +0.000 C 
BRANCH   9  14
ATOM     14  C   UNL     1      -0.715  13.204  18.667  0.00  0.00    +0.000 C 
ATOM     15  N   UNL     1      -1.229  12.641  17.541  0.00  0.00    +0.000 N 
ATOM     16  O   UNL     1      -0.167  14.306  18.592  0.00  0.00    +0.000 OA
ATOM     17  H   UNL     1      -1.547  11.682  17.498  0.00  0.00    +0.000 HD
ATOM     18  H   UNL     1      -1.095  13.140  16.677  0.00  0.00    +0.000 HD
ENDBRANCH   9  14
ENDBRANCH   3   5
BRANCH   1  19
ATOM     19  C   UNL     1       2.092   9.634  17.888  0.00  0.00    +0.000 C 
BRANCH  19  22
ATOM     20  C   UNL     1       2.908   6.316  19.097  0.00  0.00    +0.000 A 
ATOM     21  C   UNL     1       2.272   7.532  19.273  0.00  0.00    +0.000 A 
ATOM     22  N   UNL     1       2.491   8.261  18.146  0.00  0.00    +0.000 N 
ATOM     23  N   UNL     1       3.298   7.638  17.265  0.00  0.00    +0.000 NA
ATOM     24  C   UNL     1       3.584   6.449  17.840  0.00  0.00    +0.000 A 
BRANCH  24  25
ATOM     25  C   UNL     1       4.499   5.449  17.171  0.00  0.00    +0.000 C 
ATOM     26  F   UNL     1       5.057   5.928  16.022  0.00  0.00    +0.000 F 
ATOM     27  F   UNL     1       5.543   5.090  17.968  0.00  0.00    +0.000 F 
ATOM     28  F   UNL     1       3.856   4.302  16.822  0.00  0.00    +0.000 F 
ENDBRANCH  24  25
BRANCH  20  29
ATOM     29  C   UNL     1       2.833   5.136  20.014  0.00  0.00    +0.000 C 
BRANCH  29  30
ATOM     30  N   UNL     1       1.494   5.027  20.588  0.00  0.00    +0.000 NA
ATOM     31  H   UNL     1       1.540   5.304  21.570  0.00  0.00    +0.000 HD
BRANCH  30  33
ATOM     32  C   UNL     1       1.135   3.113  19.139  0.00  0.00    +0.000 C 
ATOM     33  C   UNL     1       0.980   3.646  20.566  0.00  0.00    +0.000 C 
ATOM     34  C   UNL     1       1.707   2.724  21.544  0.00  0.00    +0.000 C 
ENDBRANCH  30  33
ENDBRANCH  29  30
ENDBRANCH  20  29
ENDBRANCH  19  22
ENDBRANCH   1  19
TORSDOF 8
ENDMDL
MODEL 4
REMARK VINA RESULT:      -7.6      2.935      3.924
REMARK  Name = 
REMARK  10 active torsions:
REMARK  status: ('A' for Active; 'I' for Inactive)
REMARK    1  A    between atoms: C_1  and  C_2
REMARK    2  A    between atoms: C_2  and  C_3
REMARK    3  A    between atoms: C_2  and  N_4
REMARK    4  A    between atoms: N_4  and  C_5
REMARK    5  A    between atoms: C_5  and  C_6
REMARK    6  A    between atoms: N_8  and  C_9
REMARK    7  A    between atoms: C_9  and  C_10
REMARK    8  A    between atoms: N_12  and  C_13
REMARK    9  A    between atoms: C_17  and  C_18
REMARK   10  A    between atoms: C_26  and  C_27
REMARK                            x       y       z     vdW  Elec       q    Type
REMARK                         _______ _______ _______ _____ _____    ______ ____
ROOT
ATOM      1  C   UNL     1       1.716   9.029  18.496  0.00  0.00    +0.000 C 
ATOM      2  O   UNL     1       1.565   8.545  19.634  0.00  0.00    +0.000 OA
ATOM      3  N   UNL     1       1.315  10.317  18.171  0.00  0.00    +0.000 N 
ATOM      4  H   UNL     1       1.847  10.855  17.497  0.00  0.00    +0.000 HD
ENDROOT
BRANCH   3   5
ATOM      5  C   UNL     1       0.426  10.994  19.003  0.00  0.00    +0.000 A 
ATOM      6  S   UNL     1       1.108  11.698  20.401  0.00  0.00    +0.000 S 
ATOM      7  C   UNL     1      -0.422  12.213  20.975  0.00  0.00    +0.000 A 
ATOM      8  C   UNL     1      -1.422  11.938  20.070  0.00  0.00    +0.000 A 
ATOM      9  C   UNL     1      -0.937  11.229  18.903  0.00  0.00    +0.000 A 
ATOM     10  C   UNL     1      -2.833  12.366  20.300  0.00  0.00    +0.000 C 
ATOM     11  C   UNL     1      -3.009  13.479  21.315  0.00  0.00    +0.000 C 
ATOM     12  C   UNL     1      -2.003  13.551  22.465  0.00  0.00    +0.000 C 
ATOM     13  C   UNL     1      -0.615  12.903  22.289  0.00  0.00    +0.000 C 
BRANCH   9  14
ATOM     14  C   UNL     1      -1.724  10.914  17.715  0.00  0.00    +0.000 C 
ATOM     15  N   UNL     1      -2.095  11.954  16.922  0.00  0.00    +0.000 N 
ATOM     16  O   UNL     1      -2.015   9.765  17.375  0.00  0.00    +0.000 OA
ATOM     17  H   UNL     1      -2.031  12.920  17.211  0.00  0.00    +0.000 HD
ATOM     18  H   UNL     1      -2.639  11.735  16.103  0.00  0.00    +0.000 HD
ENDBRANCH   9  14
ENDBRANCH   3   5
BRANCH   1  19
ATOM     19  C   UNL     1       2.504   8.238  17.477  0.00  0.00    +0.000 C 
BRANCH  19  22
ATOM     20  C   UNL     1       4.296   5.245  18.460  0.00  0.00    +0.000 A 
ATOM     21  C   UNL     1       4.296   6.591  18.146  0.00  0.00    +0.000 A 
ATOM     22  N   UNL     1       3.004   6.946  17.917  0.00  0.00    +0.000 N 
ATOM     23  N   UNL     1       2.153   5.903  17.981  0.00  0.00    +0.000 NA
ATOM     24  C   UNL     1       2.931   4.842  18.292  0.00  0.00    +0.000 A 
BRANCH  24  25
ATOM     25  C   UNL     1       2.351   3.454  18.431  0.00  0.00    +0.000 C 
ATOM     26  F   UNL     1       2.545   2.920  19.672  0.00  0.00    +0.000 F 
ATOM     27  F   UNL     1       1.005   3.432  18.225  0.00  0.00    +0.000 F 
ATOM     28  F   UNL     1       2.898   2.568  17.556  0.00  0.00    +0.000 F 
ENDBRANCH  24  25
BRANCH  20  29
ATOM     29  C   UNL     1       5.472   4.442  18.920  0.00  0.00    +0.000 C 
BRANCH  29  30
ATOM     30  N   UNL     1       6.439   5.303  19.594  0.00  0.00    +0.000 NA
ATOM     31  H   UNL     1       6.028   6.232  19.696  0.00  0.00    +0.000 HD
BRANCH  30  33
ATOM     32  C   UNL     1       7.588   4.577  17.582  0.00  0.00    +0.000 C 
ATOM     33  C   UNL     1       7.679   5.478  18.817  0.00  0.00    +0.000 C 
ATOM     34  C   UNL     1       7.913   6.925  18.385  0.00  0.00    +0.000 C 
ENDBRANCH  30  33
ENDBRANCH  29  30
ENDBRANCH  20  29
ENDBRANCH  19  22
ENDBRANCH   1  19
TORSDOF 8
ENDMDL
MODEL 5
REMARK VINA RESULT:      -7.5      2.796      4.531
REMARK  Name = 
REMARK  10 active torsions:
REMARK  status: ('A' for Active; 'I' for Inactive)
REMARK    1  A    between atoms: C_1  and  C_2
REMARK    2  A    between atoms: C_2  and  C_3
REMARK    3  A    between atoms: C_2  and  N_4
REMARK    4  A    between atoms: N_4  and  C_5
REMARK    5  A    between atoms: C_5  and  C_6
REMARK    6  A    between atoms: N_8  and  C_9
REMARK    7  A    between atoms: C_9  and  C_10
REMARK    8  A    between atoms: N_12  and  C_13
REMARK    9  A    between atoms: C_17  and  C_18
REMARK   10  A    between atoms: C_26  and  C_27
REMARK                            x       y       z     vdW  Elec       q    Type
REMARK                         _______ _______ _______ _____ _____    ______ ____
ROOT
ATOM      1  C   UNL     1       1.591  10.043  18.339  0.00  0.00    +0.000 C 
ATOM      2  O   UNL     1       1.980  11.224  18.393  0.00  0.00    +0.000 OA
ATOM      3  N   UNL     1       0.348   9.642  18.809  0.00  0.00    +0.000 N 
ATOM      4  H   UNL     1      -0.148   8.890  18.345  0.00  0.00    +0.000 HD
ENDROOT
BRANCH   3   5
ATOM      5  C   UNL     1      -0.369  10.477  19.663  0.00  0.00    +0.000 A 
ATOM      6  S   UNL     1      -0.047  10.286  21.329  0.00  0.00    +0.000 S 
ATOM      7  C   UNL     1      -1.248  11.428  21.765  0.00  0.00    +0.000 A 
ATOM      8  C   UNL     1      -1.817  12.014  20.657  0.00  0.00    +0.000 A 
ATOM      9  C   UNL     1      -1.303  11.470  19.415  0.00  0.00    +0.000 A 
ATOM     10  C   UNL     1      -2.829  13.104  20.774  0.00  0.00    +0.000 C 
ATOM     11  C   UNL     1      -2.849  13.822  22.109  0.00  0.00    +0.000 C 
ATOM     12  C   UNL     1      -2.466  13.013  23.350  0.00  0.00    +0.000 C 
ATOM     13  C   UNL     1      -1.594  11.751  23.185  0.00  0.00    +0.000 C 
BRANCH   9  14
ATOM     14  C   UNL     1      -1.611  11.972  18.080  0.00  0.00    +0.000 C 
ATOM     15  N   UNL     1      -0.811  12.954  17.586  0.00  0.00    +0.000 N 
ATOM     16  O   UNL     1      -2.511  11.517  17.370  0.00  0.00    +0.000 OA
ATOM     17  H   UNL     1      -0.163  13.479  18.157  0.00  0.00    +0.000 HD
ATOM     18  H   UNL     1      -1.025  13.301  16.665  0.00  0.00    +0.000 HD
ENDBRANCH   9  14
ENDBRANCH   3   5
BRANCH   1  19
ATOM     19  C   UNL     1       2.440   9.038  17.594  0.00  0.00    +0.000 C 
BRANCH  19  22
ATOM     20  C   UNL     1       2.656   6.093  19.696  0.00  0.00    +0.000 A 
ATOM     21  C   UNL     1       2.143   7.354  19.450  0.00  0.00    +0.000 A 
ATOM     22  N   UNL     1       2.631   7.753  18.245  0.00  0.00    +0.000 N 
ATOM     23  N   UNL     1       3.498   6.871  17.711  0.00  0.00    +0.000 NA
ATOM     24  C   UNL     1       3.545   5.853  18.598  0.00  0.00    +0.000 A 
BRANCH  24  25
ATOM     25  C   UNL     1       4.440   4.655  18.376  0.00  0.00    +0.000 C 
ATOM     26  F   UNL     1       3.780   3.595  17.827  0.00  0.00    +0.000 F 
ATOM     27  F   UNL     1       5.470   4.929  17.529  0.00  0.00    +0.000 F 
ATOM     28  F   UNL     1       4.990   4.193  19.531  0.00  0.00    +0.000 F 
ENDBRANCH  24  25
BRANCH  20  29
ATOM     29  C   UNL     1       2.293   5.196  20.836  0.00  0.00    +0.000 C 
BRANCH  29  30
ATOM     30  N   UNL     1       1.026   4.522  20.565  0.00  0.00    +0.000 NA
ATOM     31  H   UNL     1       0.343   4.826  21.261  0.00  0.00    +0.000 HD
BRANCH  30  33
ATOM     32  C   UNL     1       1.151   2.469  19.276  0.00  0.00    +0.000 C 
ATOM     33  C   UNL     1       1.127   3.057  20.689  0.00  0.00    +0.000 C 
ATOM     34  C   UNL     1       2.371   2.608  21.456  0.00  0.00    +0.000 C 
ENDBRANCH  30  33
ENDBRANCH  29  30
ENDBRANCH  20  29
ENDBRANCH  19  22
ENDBRANCH   1  19
TORSDOF 8
ENDMDL
MODEL 6
REMARK VINA RESULT:      -7.5      3.064      5.000
REMARK  Name = 
REMARK  10 active torsions:
REMARK  status: ('A' for Active; 'I' for Inactive)
REMARK    1  A    between atoms: C_1  and  C_2
REMARK    2  A    between atoms: C_2  and  C_3
REMARK    3  A    between atoms: C_2  and  N_4
REMARK    4  A    between atoms: N_4  and  C_5
REMARK    5  A    between atoms: C_5  and  C_6
REMARK    6  A    between atoms: N_8  and  C_9
REMARK    7  A    between atoms: C_9  and  C_10
REMARK    8  A    between atoms: N_12  and  C_13
REMARK    9  A    between atoms: C_17  and  C_18
REMARK   10  A    between atoms: C_26  and  C_27
REMARK                            x       y       z     vdW  Elec       q    Type
REMARK                         _______ _______ _______ _____ _____    ______ ____
ROOT
ATOM      1  C   UNL     1       1.258  10.592  18.767  0.00  0.00    +0.000 C 
ATOM      2  O   UNL     1       1.729  11.684  19.134  0.00  0.00    +0.000 OA
ATOM      3  N   UNL     1      -0.065  10.235  18.986  0.00  0.00    +0.000 N 
ATOM      4  H   UNL     1      -0.551   9.659  18.309  0.00  0.00    +0.000 HD
ENDROOT
BRANCH   3   5
ATOM      5  C   UNL     1      -0.824  10.938  19.921  0.00  0.00    +0.000 A 
ATOM      6  S   UNL     1      -2.039  11.951  19.278  0.00  0.00    +0.000 S 
ATOM      7  C   UNL     1      -2.461  12.547  20.828  0.00  0.00    +0.000 A 
ATOM      8  C   UNL     1      -1.754  11.914  21.825  0.00  0.00    +0.000 A 
ATOM      9  C   UNL     1      -0.794  10.960  21.306  0.00  0.00    +0.000 A 
ATOM     10  C   UNL     1      -2.004  12.196  23.269  0.00  0.00    +0.000 C 
ATOM     11  C   UNL     1      -3.341  12.841  23.576  0.00  0.00    +0.000 C 
ATOM     12  C   UNL     1      -3.938  13.766  22.514  0.00  0.00    +0.000 C 
ATOM     13  C   UNL     1      -3.498  13.605  21.045  0.00  0.00    +0.000 C 
BRANCH   9  14
ATOM     14  C   UNL     1       0.008  10.043  22.110  0.00  0.00    +0.000 C 
ATOM     15  N   UNL     1      -0.653   9.049  22.762  0.00  0.00    +0.000 N 
ATOM     16  O   UNL     1       1.238  10.093  22.179  0.00  0.00    +0.000 OA
ATOM     17  H   UNL     1      -1.656   9.037  22.880  0.00  0.00    +0.000 HD
ATOM     18  H   UNL     1      -0.098   8.418  23.318  0.00  0.00    +0.000 HD
ENDBRANCH   9  14
ENDBRANCH   3   5
BRANCH   1  19
ATOM     19  C   UNL     1       2.118   9.686  17.915  0.00  0.00    +0.000 C 
BRANCH  19  22
ATOM     20  C   UNL     1       2.329   6.488  19.606  0.00  0.00    +0.000 A 
ATOM     21  C   UNL     1       1.953   7.818  19.604  0.00  0.00    +0.000 A 
ATOM     22  N   UNL     1       2.254   8.314  18.374  0.00  0.00    +0.000 N 
ATOM     23  N   UNL     1       2.879   7.419  17.585  0.00  0.00    +0.000 NA
ATOM     24  C   UNL     1       2.955   6.295  18.331  0.00  0.00    +0.000 A 
BRANCH  24  25
ATOM     25  C   UNL     1       3.624   5.045  17.807  0.00  0.00    +0.000 C 
ATOM     26  F   UNL     1       4.490   5.297  16.784  0.00  0.00    +0.000 F 
ATOM     27  F   UNL     1       4.355   4.410  18.764  0.00  0.00    +0.000 F 
ATOM     28  F   UNL     1       2.732   4.137  17.325  0.00  0.00    +0.000 F 
ENDBRANCH  24  25
BRANCH  20  29
ATOM     29  C   UNL     1       2.070   5.495  20.695  0.00  0.00    +0.000 C 
BRANCH  29  30
ATOM     30  N   UNL     1       0.950   4.630  20.334  0.00  0.00    +0.000 NA
ATOM     31  H   UNL     1       0.117   4.960  20.822  0.00  0.00    +0.000 HD
BRANCH  30  33
ATOM     32  C   UNL     1       1.148   2.359  19.498  0.00  0.00    +0.000 C 
ATOM     33  C   UNL     1       1.157   3.233  20.755  0.00  0.00    +0.000 C 
ATOM     34  C   UNL     1       2.466   3.027  21.517  0.00  0.00    +0.000 C 
ENDBRANCH  30  33
ENDBRANCH  29  30
ENDBRANCH  20  29
ENDBRANCH  19  22
ENDBRANCH   1  19
TORSDOF 8
ENDMDL
MODEL 7
REMARK VINA RESULT:      -7.5      2.834      4.096
REMARK  Name = 
REMARK  10 active torsions:
REMARK  status: ('A' for Active; 'I' for Inactive)
REMARK    1  A    between atoms: C_1  and  C_2
REMARK    2  A    between atoms: C_2  and  C_3
REMARK    3  A    between atoms: C_2  and  N_4
REMARK    4  A    between atoms: N_4  and  C_5
REMARK    5  A    between atoms: C_5  and  C_6
REMARK    6  A    between atoms: N_8  and  C_9
REMARK    7  A    between atoms: C_9  and  C_10
REMARK    8  A    between atoms: N_12  and  C_13
REMARK    9  A    between atoms: C_17  and  C_18
REMARK   10  A    between atoms: C_26  and  C_27
REMARK                            x       y       z     vdW  Elec       q    Type
REMARK                         _______ _______ _______ _____ _____    ______ ____
ROOT
ATOM      1  C   UNL     1       1.754   9.611  18.200  0.00  0.00    +0.000 C 
ATOM      2  O   UNL     1       2.201  10.770  18.282  0.00  0.00    +0.000 OA
ATOM      3  N   UNL     1       0.500   9.257  18.676  0.00  0.00    +0.000 N 
ATOM      4  H   UNL     1      -0.038   8.543  18.198  0.00  0.00    +0.000 HD
ENDROOT
BRANCH   3   5
ATOM      5  C   UNL     1      -0.165  10.100  19.564  0.00  0.00    +0.000 A 
ATOM      6  S   UNL     1      -1.333  11.135  18.871  0.00  0.00    +0.000 S 
ATOM      7  C   UNL     1      -1.643  11.905  20.370  0.00  0.00    +0.000 A 
ATOM      8  C   UNL     1      -0.939  11.319  21.397  0.00  0.00    +0.000 A 
ATOM      9  C   UNL     1      -0.073  10.250  20.939  0.00  0.00    +0.000 A 
ATOM     10  C   UNL     1      -1.104  11.755  22.815  0.00  0.00    +0.000 C 
ATOM     11  C   UNL     1      -2.377  12.524  23.107  0.00  0.00    +0.000 C 
ATOM     12  C   UNL     1      -2.954  13.386  21.982  0.00  0.00    +0.000 C 
ATOM     13  C   UNL     1      -2.591  13.054  20.520  0.00  0.00    +0.000 C 
BRANCH   9  14
ATOM     14  C   UNL     1       0.697   9.357  21.798  0.00  0.00    +0.000 C 
ATOM     15  N   UNL     1       0.574   8.021  21.572  0.00  0.00    +0.000 N 
ATOM     16  O   UNL     1       1.479   9.750  22.666  0.00  0.00    +0.000 OA
ATOM     17  H   UNL     1      -0.154   7.622  20.996  0.00  0.00    +0.000 HD
ATOM     18  H   UNL     1       1.105   7.405  22.167  0.00  0.00    +0.000 HD
ENDBRANCH   9  14
ENDBRANCH   3   5
BRANCH   1  19
ATOM     19  C   UNL     1       2.544   8.589  17.414  0.00  0.00    +0.000 C 
BRANCH  19  22
ATOM     20  C   UNL     1       4.096   5.645  18.852  0.00  0.00    +0.000 A 
ATOM     21  C   UNL     1       4.153   6.736  18.003  0.00  0.00    +0.000 A 
ATOM     22  N   UNL     1       2.986   7.417  18.151  0.00  0.00    +0.000 N 
ATOM     23  N   UNL     1       2.123   6.806  18.986  0.00  0.00    +0.000 NA
ATOM     24  C   UNL     1       2.777   5.702  19.411  0.00  0.00    +0.000 A 
BRANCH  24  25
ATOM     25  C   UNL     1       2.129   4.717  20.356  0.00  0.00    +0.000 C 
ATOM     26  F   UNL     1       2.341   3.418  19.995  0.00  0.00    +0.000 F 
ATOM     27  F   UNL     1       2.604   4.830  21.627  0.00  0.00    +0.000 F 
ATOM     28  F   UNL     1       0.778   4.867  20.424  0.00  0.00    +0.000 F 
ENDBRANCH  24  25
BRANCH  20  29
ATOM     29  C   UNL     1       5.204   4.682  19.133  0.00  0.00    +0.000 C 
BRANCH  29  30
ATOM     30  N   UNL     1       5.683   4.085  17.889  0.00  0.00    +0.000 NA
ATOM     31  H   UNL     1       5.715   3.072  18.008  0.00  0.00    +0.000 HD
BRANCH  30  33
ATOM     32  C   UNL     1       7.005   5.171  16.167  0.00  0.00    +0.000 C 
ATOM     33  C   UNL     1       7.051   4.511  17.547  0.00  0.00    +0.000 C 
ATOM     34  C   UNL     1       7.644   5.485  18.565  0.00  0.00    +0.000 C 
ENDBRANCH  30  33
ENDBRANCH  29  30
ENDBRANCH  20  29
ENDBRANCH  19  22
ENDBRANCH   1  19
TORSDOF 8
ENDMDL
MODEL 8
REMARK VINA RESULT:      -7.5      2.867      4.206
REMARK  Name = 
REMARK  10 active torsions:
REMARK  status: ('A' for Active; 'I' for Inactive)
REMARK    1  A    between atoms: C_1  and  C_2
REMARK    2  A    between atoms: C_2  and  C_3
REMARK    3  A    between atoms: C_2  and  N_4
REMARK    4  A    between atoms: N_4  and  C_5
REMARK    5  A    between atoms: C_5  and  C_6
REMARK    6  A    between atoms: N_8  and  C_9
REMARK    7  A    between atoms: C_9  and  C_10
REMARK    8  A    between atoms: N_12  and  C_13
REMARK    9  A    between atoms: C_17  and  C_18
REMARK   10  A    between atoms: C_26  and  C_27
REMARK                            x       y       z     vdW  Elec       q    Type
REMARK                         _______ _______ _______ _____ _____    ______ ____
ROOT
ATOM      1  C   UNL     1       0.911  10.046  18.648  0.00  0.00    +0.000 C 
ATOM      2  O   UNL     1      -0.230   9.803  18.210  0.00  0.00    +0.000 OA
ATOM      3  N   UNL     1       1.129  10.607  19.898  0.00  0.00    +0.000 N 
ATOM      4  H   UNL     1       1.950  10.347  20.431  0.00  0.00    +0.000 HD
ENDROOT
BRANCH   3   5
ATOM      5  C   UNL     1       0.078  11.231  20.567  0.00  0.00    +0.000 A 
ATOM      6  S   UNL     1      -0.618  12.571  19.769  0.00  0.00    +0.000 S 
ATOM      7  C   UNL     1      -1.666  12.899  21.084  0.00  0.00    +0.000 A 
ATOM      8  C   UNL     1      -1.555  11.948  22.072  0.00  0.00    +0.000 A 
ATOM      9  C   UNL     1      -0.539  10.956  21.778  0.00  0.00    +0.000 A 
ATOM     10  C   UNL     1      -2.425  11.964  23.284  0.00  0.00    +0.000 C 
ATOM     11  C   UNL     1      -3.699  12.776  23.150  0.00  0.00    +0.000 C 
ATOM     12  C   UNL     1      -3.661  14.000  22.233  0.00  0.00    +0.000 C 
ATOM     13  C   UNL     1      -2.601  14.068  21.115  0.00  0.00    +0.000 C 
BRANCH   9  14
ATOM     14  C   UNL     1      -0.275   9.755  22.563  0.00  0.00    +0.000 C 
ATOM     15  N   UNL     1      -0.625   8.563  22.009  0.00  0.00    +0.000 N 
ATOM     16  O   UNL     1       0.290   9.766  23.659  0.00  0.00    +0.000 OA
ATOM     17  H   UNL     1      -1.224   8.484  21.200  0.00  0.00    +0.000 HD
ATOM     18  H   UNL     1      -0.444   7.734  22.553  0.00  0.00    +0.000 HD
ENDBRANCH   9  14
ENDBRANCH   3   5
BRANCH   1  19
ATOM     19  C   UNL     1       2.104   9.569  17.851  0.00  0.00    +0.000 C 
BRANCH  19  22
ATOM     20  C   UNL     1       3.653   6.305  18.148  0.00  0.00    +0.000 A 
ATOM     21  C   UNL     1       3.583   7.547  17.543  0.00  0.00    +0.000 A 
ATOM     22  N   UNL     1       2.603   8.244  18.178  0.00  0.00    +0.000 N 
ATOM     23  N   UNL     1       1.964   7.517  19.115  0.00  0.00    +0.000 NA
ATOM     24  C   UNL     1       2.579   6.314  19.097  0.00  0.00    +0.000 A 
BRANCH  24  25
ATOM     25  C   UNL     1       2.131   5.186  19.999  0.00  0.00    +0.000 C 
ATOM     26  F   UNL     1       1.105   5.543  20.823  0.00  0.00    +0.000 F 
ATOM     27  F   UNL     1       1.685   4.108  19.296  0.00  0.00    +0.000 F 
ATOM     28  F   UNL     1       3.126   4.742  20.814  0.00  0.00    +0.000 F 
ENDBRANCH  24  25
BRANCH  20  29
ATOM     29  C   UNL     1       4.672   5.244  17.878  0.00  0.00    +0.000 C 
BRANCH  29  30
ATOM     30  N   UNL     1       4.681   4.902  16.458  0.00  0.00    +0.000 NA
ATOM     31  H   UNL     1       3.866   4.320  16.261  0.00  0.00    +0.000 HD
BRANCH  30  33
ATOM     32  C   UNL     1       6.023   4.216  14.555  0.00  0.00    +0.000 C 
ATOM     33  C   UNL     1       5.864   4.112  16.074  0.00  0.00    +0.000 C 
ATOM     34  C   UNL     1       7.145   4.584  16.761  0.00  0.00    +0.000 C 
ENDBRANCH  30  33
ENDBRANCH  29  30
ENDBRANCH  20  29
ENDBRANCH  19  22
ENDBRANCH   1  19
TORSDOF 8
ENDMDL
MODEL 9
REMARK VINA RESULT:      -7.4      2.773      4.138
REMARK  Name = 
REMARK  10 active torsions:
REMARK  status: ('A' for Active; 'I' for Inactive)
REMARK    1  A    between atoms: C_1  and  C_2
REMARK    2  A    between atoms: C_2  and  C_3
REMARK    3  A    between atoms: C_2  and  N_4
REMARK    4  A    between atoms: N_4  and  C_5
REMARK    5  A    between atoms: C_5  and  C_6
REMARK    6  A    between atoms: N_8  and  C_9
REMARK    7  A    between atoms: C_9  and  C_10
REMARK    8  A    between atoms: N_12  and  C_13
REMARK    9  A    between atoms: C_17  and  C_18
REMARK   10  A    between atoms: C_26  and  C_27
REMARK                            x       y       z     vdW  Elec       q    Type
REMARK                         _______ _______ _______ _____ _____    ______ ____
ROOT
ATOM      1  C   UNL     1       1.547  10.329  18.459  0.00  0.00    +0.000 C 
ATOM      2  O   UNL     1       2.068  11.370  18.902  0.00  0.00    +0.000 OA
ATOM      3  N   UNL     1       0.218  10.001  18.688  0.00  0.00    +0.000 N 
ATOM      4  H   UNL     1      -0.307   9.502  17.980  0.00  0.00    +0.000 HD
ENDROOT
BRANCH   3   5
ATOM      5  C   UNL     1      -0.488  10.647  19.701  0.00  0.00    +0.000 A 
ATOM      6  S   UNL     1      -1.427  11.987  19.212  0.00  0.00    +0.000 S 
ATOM      7  C   UNL     1      -1.885  12.344  20.824  0.00  0.00    +0.000 A 
ATOM      8  C   UNL     1      -1.409  11.402  21.707  0.00  0.00    +0.000 A 
ATOM      9  C   UNL     1      -0.594  10.394  21.060  0.00  0.00    +0.000 A 
ATOM     10  C   UNL     1      -1.746  11.444  23.161  0.00  0.00    +0.000 C 
ATOM     11  C   UNL     1      -2.966  12.272  23.514  0.00  0.00    +0.000 C 
ATOM     12  C   UNL     1      -3.274  13.485  22.635  0.00  0.00    +0.000 C 
ATOM     13  C   UNL     1      -2.726  13.526  21.194  0.00  0.00    +0.000 C 
BRANCH   9  14
ATOM     14  C   UNL     1      -0.058   9.198  21.701  0.00  0.00    +0.000 C 
ATOM     15  N   UNL     1       1.276   9.182  21.968  0.00  0.00    +0.000 N 
ATOM     16  O   UNL     1      -0.753   8.243  22.055  0.00  0.00    +0.000 OA
ATOM     17  H   UNL     1       1.927   9.847  21.574  0.00  0.00    +0.000 HD
ATOM     18  H   UNL     1       1.645   8.355  22.409  0.00  0.00    +0.000 HD
ENDBRANCH   9  14
ENDBRANCH   3   5
BRANCH   1  19
ATOM     19  C   UNL     1       2.350   9.471  17.508  0.00  0.00    +0.000 C 
BRANCH  19  22
ATOM     20  C   UNL     1       3.619   6.151  18.220  0.00  0.00    +0.000 A 
ATOM     21  C   UNL     1       3.658   7.313  17.471  0.00  0.00    +0.000 A 
ATOM     22  N   UNL     1       2.734   8.159  18.000  0.00  0.00    +0.000 N 
ATOM     23  N   UNL     1       2.028   7.604  19.004  0.00  0.00    +0.000 NA
ATOM     24  C   UNL     1       2.541   6.361  19.141  0.00  0.00    +0.000 A 
BRANCH  24  25
ATOM     25  C   UNL     1       1.993   5.390  20.162  0.00  0.00    +0.000 C 
ATOM     26  F   UNL     1       1.363   4.322  19.593  0.00  0.00    +0.000 F 
ATOM     27  F   UNL     1       2.970   4.866  20.953  0.00  0.00    +0.000 F 
ATOM     28  F   UNL     1       1.079   5.963  20.991  0.00  0.00    +0.000 F 
ENDBRANCH  24  25
BRANCH  20  29
ATOM     29  C   UNL     1       4.548   4.986  18.097  0.00  0.00    +0.000 C 
BRANCH  29  30
ATOM     30  N   UNL     1       4.489   4.432  16.747  0.00  0.00    +0.000 NA
ATOM     31  H   UNL     1       3.887   3.608  16.762  0.00  0.00    +0.000 HD
BRANCH  30  33
ATOM     32  C   UNL     1       5.860   4.236  14.753  0.00  0.00    +0.000 C 
ATOM     33  C   UNL     1       5.805   3.982  16.262  0.00  0.00    +0.000 C 
ATOM     34  C   UNL     1       6.970   4.695  16.949  0.00  0.00    +0.000 C 
ENDBRANCH  30  33
ENDBRANCH  29  30
ENDBRANCH  20  29
ENDBRANCH  19  22
ENDBRANCH   1  19
TORSDOF 8
ENDMDL
