MODEL 1
REMARK VINA RESULT:      -7.3      0.000      0.000
REMARK  Name = 
REMARK  7 active torsions:
REMARK  status: ('A' for Active; 'I' for Inactive)
REMARK    1  A    between atoms: C_2  and  C_3
REMARK    2  A    between atoms: C_3  and  O_4
REMARK    3  A    between atoms: O_4  and  N_5
REMARK    4  A    between atoms: C_6  and  C_8
REMARK    5  A    between atoms: C_8  and  C_9
REMARK    6  A    between atoms: C_8  and  N_10
REMARK    7  A    between atoms: C_15  and  C_16
REMARK                            x       y       z     vdW  Elec       q    Type
REMARK                         _______ _______ _______ _____ _____    ______ ____
ROOT
ATOM      1  N   UNL     1       5.215   4.935  17.193  0.00  0.00    +0.000 N 
ATOM      2  C   UNL     1       4.165   4.253  17.753  0.00  0.00    +0.000 C 
ATOM      3  O   UNL     1       4.139   3.073  18.070  0.00  0.00    +0.000 OA
ATOM      4  S   UNL     1       2.830   5.343  18.084  0.00  0.00    +0.000 S 
ATOM      5  C   UNL     1       3.769   6.720  17.695  0.00  0.00    +0.000 C 
ATOM      6  C   UNL     1       3.471   8.018  17.841  0.00  0.00    +0.000 C 
ATOM      7  C   UNL     1       5.093   6.299  17.185  0.00  0.00    +0.000 C 
ATOM      8  O   UNL     1       5.954   7.092  16.802  0.00  0.00    +0.000 OA
ENDROOT
BRANCH   6   9
ATOM      9  C   UNL     1       2.236   8.540  18.422  0.00  0.00    +0.000 A 
ATOM     10  C   UNL     1       1.942   8.285  19.765  0.00  0.00    +0.000 A 
ATOM     11  C   UNL     1       0.762   8.774  20.326  0.00  0.00    +0.000 A 
ATOM     12  C   UNL     1      -0.115   9.533  19.552  0.00  0.00    +0.000 A 
ATOM     13  C   UNL     1       0.181   9.796  18.215  0.00  0.00    +0.000 A 
ATOM     14  C   UNL     1       1.351   9.294  17.646  0.00  0.00    +0.000 A 
ENDBRANCH   6   9
BRANCH   1  15
ATOM     15  C   UNL     1       6.438   4.228  16.797  0.00  0.00    +0.000 C 
ATOM     16  C   UNL     1       7.683   4.657  17.577  0.00  0.00    +0.000 C 
BRANCH  15  18
ATOM     17  N   UNL     1       5.995   3.468  14.514  0.00  0.00    +0.000 N 
ATOM     18  C   UNL     1       6.692   4.367  15.288  0.00  0.00    +0.000 C 
ATOM     19  O   UNL     1       7.413   5.260  14.842  0.00  0.00    +0.000 OA
ATOM     20  H   UNL     1       5.568   2.622  14.895  0.00  0.00    +0.000 HD
BRANCH  17  21
ATOM     21  O   UNL     1       6.189   3.565  13.117  0.00  0.00    +0.000 OA
BRANCH  21  22
ATOM     22  C   UNL     1       4.997   4.050  12.500  0.00  0.00    +0.000 C 
BRANCH  22  24
ATOM     23  C   UNL     1       3.519   3.231  10.651  0.00  0.00    +0.000 C 
ATOM     24  C   UNL     1       4.551   3.042  11.489  0.00  0.00    +0.000 C 
ENDBRANCH  22  24
ENDBRANCH  21  22
ENDBRANCH  17  21
ENDBRANCH  15  18
ENDBRANCH   1  15
TORSDOF 6
ENDMDL
MODEL 2
REMARK VINA RESULT:      -7.2      0.363      1.068
REMARK  Name = 
REMARK  7 active torsions:
REMARK  status: ('A' for Active; 'I' for Inactive)
REMARK    1  A    between atoms: C_2  and  C_3
REMARK    2  A    between atoms: C_3  and  O_4
REMARK    3  A    between atoms: O_4  and  N_5
REMARK    4  A    between atoms: C_6  and  C_8
REMARK    5  A    between atoms: C_8  and  C_9
REMARK    6  A    between atoms: C_8  and  N_10
REMARK    7  A    between atoms: C_15  and  C_16
REMARK                            x       y       z     vdW  Elec       q    Type
REMARK                         _______ _______ _______ _____ _____    ______ ____
ROOT
ATOM      1  N   UNL     1       5.065   5.095  17.470  0.00  0.00    +0.000 N 
ATOM      2  C   UNL     1       3.971   4.406  17.926  0.00  0.00    +0.000 C 
ATOM      3  O   UNL     1       3.915   3.219  18.211  0.00  0.00    +0.000 OA
ATOM      4  S   UNL     1       2.617   5.496  18.173  0.00  0.00    +0.000 S 
ATOM      5  C   UNL     1       3.591   6.876  17.895  0.00  0.00    +0.000 C 
ATOM      6  C   UNL     1       3.287   8.172  18.048  0.00  0.00    +0.000 C 
ATOM      7  C   UNL     1       4.950   6.460  17.484  0.00  0.00    +0.000 C 
ATOM      8  O   UNL     1       5.842   7.256  17.191  0.00  0.00    +0.000 OA
ENDROOT
BRANCH   6   9
ATOM      9  C   UNL     1       2.012   8.687  18.538  0.00  0.00    +0.000 A 
ATOM     10  C   UNL     1       1.118   9.288  17.645  0.00  0.00    +0.000 A 
ATOM     11  C   UNL     1      -0.099   9.790  18.106  0.00  0.00    +0.000 A 
ATOM     12  C   UNL     1      -0.434   9.674  19.454  0.00  0.00    +0.000 A 
ATOM     13  C   UNL     1       0.450   9.067  20.345  0.00  0.00    +0.000 A 
ATOM     14  C   UNL     1       1.676   8.581  19.891  0.00  0.00    +0.000 A 
ENDBRANCH   6   9
BRANCH   1  15
ATOM     15  C   UNL     1       6.314   4.391  17.157  0.00  0.00    +0.000 C 
ATOM     16  C   UNL     1       7.518   4.867  17.973  0.00  0.00    +0.000 C 
BRANCH  15  18
ATOM     17  N   UNL     1       6.031   3.495  14.898  0.00  0.00    +0.000 N 
ATOM     18  C   UNL     1       6.634   4.473  15.657  0.00  0.00    +0.000 C 
ATOM     19  O   UNL     1       7.320   5.386  15.199  0.00  0.00    +0.000 OA
ATOM     20  H   UNL     1       5.637   2.643  15.301  0.00  0.00    +0.000 HD
BRANCH  17  21
ATOM     21  O   UNL     1       6.288   3.537  13.508  0.00  0.00    +0.000 OA
BRANCH  21  22
ATOM     22  C   UNL     1       5.131   4.012  12.820  0.00  0.00    +0.000 C 
BRANCH  22  24
ATOM     23  C   UNL     1       3.730   3.118  10.946  0.00  0.00    +0.000 C 
ATOM     24  C   UNL     1       4.860   3.094  11.672  0.00  0.00    +0.000 C 
ENDBRANCH  22  24
ENDBRANCH  21  22
ENDBRANCH  17  21
ENDBRANCH  15  18
ENDBRANCH   1  15
TORSDOF 6
ENDMDL
MODEL 3
REMARK VINA RESULT:      -7.1      0.884      1.449
REMARK  Name = 
REMARK  7 active torsions:
REMARK  status: ('A' for Active; 'I' for Inactive)
REMARK    1  A    between atoms: C_2  and  C_3
REMARK    2  A    between atoms: C_3  and  O_4
REMARK    3  A    between atoms: O_4  and  N_5
REMARK    4  A    between atoms: C_6  and  C_8
REMARK    5  A    between atoms: C_8  and  C_9
REMARK    6  A    between atoms: C_8  and  N_10
REMARK    7  A    between atoms: C_15  and  C_16
REMARK                            x       y       z     vdW  Elec       q    Type
REMARK                         _______ _______ _______ _____ _____    ______ ____
ROOT
ATOM      1  N   UNL     1       5.075   4.977  17.166  0.00  0.00    +0.000 N 
ATOM      2  C   UNL     1       4.069   4.304  17.811  0.00  0.00    +0.000 C 
ATOM      3  O   UNL     1       4.074   3.133  18.162  0.00  0.00    +0.000 OA
ATOM      4  S   UNL     1       2.747   5.393  18.194  0.00  0.00    +0.000 S 
ATOM      5  C   UNL     1       3.647   6.765  17.707  0.00  0.00    +0.000 C 
ATOM      6  C   UNL     1       3.347   8.064  17.835  0.00  0.00    +0.000 C 
ATOM      7  C   UNL     1       4.940   6.340  17.126  0.00  0.00    +0.000 C 
ATOM      8  O   UNL     1       5.768   7.127  16.667  0.00  0.00    +0.000 OA
ENDROOT
BRANCH   6   9
ATOM      9  C   UNL     1       2.147   8.594  18.477  0.00  0.00    +0.000 A 
ATOM     10  C   UNL     1       1.242   9.356  17.730  0.00  0.00    +0.000 A 
ATOM     11  C   UNL     1       0.096   9.872  18.337  0.00  0.00    +0.000 A 
ATOM     12  C   UNL     1      -0.157   9.611  19.683  0.00  0.00    +0.000 A 
ATOM     13  C   UNL     1       0.739   8.844  20.427  0.00  0.00    +0.000 A 
ATOM     14  C   UNL     1       1.895   8.342  19.828  0.00  0.00    +0.000 A 
ENDBRANCH   6   9
BRANCH   1  15
ATOM     15  C   UNL     1       6.277   4.268  16.714  0.00  0.00    +0.000 C 
ATOM     16  C   UNL     1       7.530   4.582  17.535  0.00  0.00    +0.000 C 
BRANCH  15  18
ATOM     17  N   UNL     1       5.560   4.078  14.382  0.00  0.00    +0.000 N 
ATOM     18  C   UNL     1       6.548   4.534  15.225  0.00  0.00    +0.000 C 
ATOM     19  O   UNL     1       7.541   5.162  14.859  0.00  0.00    +0.000 OA
ATOM     20  H   UNL     1       4.855   3.396  14.670  0.00  0.00    +0.000 HD
BRANCH  17  21
ATOM     21  O   UNL     1       5.760   4.310  13.002  0.00  0.00    +0.000 OA
BRANCH  21  22
ATOM     22  C   UNL     1       5.610   3.085  12.284  0.00  0.00    +0.000 C 
BRANCH  22  24
ATOM     23  C   UNL     1       7.174   1.612  10.995  0.00  0.00    +0.000 C 
ATOM     24  C   UNL     1       6.910   2.775  11.614  0.00  0.00    +0.000 C 
ENDBRANCH  22  24
ENDBRANCH  21  22
ENDBRANCH  17  21
ENDBRANCH  15  18
ENDBRANCH   1  15
TORSDOF 6
ENDMDL
MODEL 4
REMARK VINA RESULT:      -7.0      4.865      8.014
REMARK  Name = 
REMARK  7 active torsions:
REMARK  status: ('A' for Active; 'I' for Inactive)
REMARK    1  A    between atoms: C_2  and  C_3
REMARK    2  A    between atoms: C_3  and  O_4
REMARK    3  A    between atoms: O_4  and  N_5
REMARK    4  A    between atoms: C_6  and  C_8
REMARK    5  A    between atoms: C_8  and  C_9
REMARK    6  A    between atoms: C_8  and  N_10
REMARK    7  A    between atoms: C_15  and  C_16
REMARK                            x       y       z     vdW  Elec       q    Type
REMARK                         _______ _______ _______ _____ _____    ______ ____
ROOT
ATOM      1  N   UNL     1       1.199   9.850  19.500  0.00  0.00    +0.000 N 
ATOM      2  C   UNL     1       0.911   9.082  20.599  0.00  0.00    +0.000 C 
ATOM      3  O   UNL     1       0.186   9.380  21.536  0.00  0.00    +0.000 OA
ATOM      4  S   UNL     1       1.652   7.497  20.452  0.00  0.00    +0.000 S 
ATOM      5  C   UNL     1       2.129   7.796  18.836  0.00  0.00    +0.000 C 
ATOM      6  C   UNL     1       2.666   6.955  17.942  0.00  0.00    +0.000 C 
ATOM      7  C   UNL     1       1.813   9.194  18.466  0.00  0.00    +0.000 C 
ATOM      8  O   UNL     1       2.082   9.682  17.369  0.00  0.00    +0.000 OA
ENDROOT
BRANCH   6   9
ATOM      9  C   UNL     1       2.930   5.537  18.170  0.00  0.00    +0.000 A 
ATOM     10  C   UNL     1       4.153   5.141  18.721  0.00  0.00    +0.000 A 
ATOM     11  C   UNL     1       4.417   3.788  18.936  0.00  0.00    +0.000 A 
ATOM     12  C   UNL     1       3.453   2.832  18.619  0.00  0.00    +0.000 A 
ATOM     13  C   UNL     1       2.229   3.224  18.078  0.00  0.00    +0.000 A 
ATOM     14  C   UNL     1       1.969   4.575  17.845  0.00  0.00    +0.000 A 
ENDBRANCH   6   9
BRANCH   1  15
ATOM     15  C   UNL     1       0.715  11.233  19.409  0.00  0.00    +0.000 C 
ATOM     16  C   UNL     1       0.951  12.059  20.675  0.00  0.00    +0.000 C 
BRANCH  15  18
ATOM     17  N   UNL     1      -1.021  11.002  17.700  0.00  0.00    +0.000 N 
ATOM     18  C   UNL     1      -0.772  11.273  19.027  0.00  0.00    +0.000 C 
ATOM     19  O   UNL     1      -1.643  11.469  19.874  0.00  0.00    +0.000 OA
ATOM     20  H   UNL     1      -0.297  11.040  16.980  0.00  0.00    +0.000 HD
BRANCH  17  21
ATOM     21  O   UNL     1      -2.378  11.017  17.304  0.00  0.00    +0.000 OA
BRANCH  21  22
ATOM     22  C   UNL     1      -2.689   9.808  16.612  0.00  0.00    +0.000 C 
BRANCH  22  24
ATOM     23  C   UNL     1      -3.861  10.177  14.430  0.00  0.00    +0.000 C 
ATOM     24  C   UNL     1      -2.728  10.104  15.148  0.00  0.00    +0.000 C 
ENDBRANCH  22  24
ENDBRANCH  21  22
ENDBRANCH  17  21
ENDBRANCH  15  18
ENDBRANCH   1  15
TORSDOF 6
ENDMDL
MODEL 5
REMARK VINA RESULT:      -7.0      4.925      8.086
REMARK  Name = 
REMARK  7 active torsions:
REMARK  status: ('A' for Active; 'I' for Inactive)
REMARK    1  A    between atoms: C_2  and  C_3
REMARK    2  A    between atoms: C_3  and  O_4
REMARK    3  A    between atoms: O_4  and  N_5
REMARK    4  A    between atoms: C_6  and  C_8
REMARK    5  A    between atoms: C_8  and  C_9
REMARK    6  A    between atoms: C_8  and  N_10
REMARK    7  A    between atoms: C_15  and  C_16
REMARK                            x       y       z     vdW  Elec       q    Type
REMARK                         _______ _______ _______ _____ _____    ______ ____
ROOT
ATOM      1  N   UNL     1       1.216   9.924  19.595  0.00  0.00    +0.000 N 
ATOM      2  C   UNL     1       0.938   9.148  20.691  0.00  0.00    +0.000 C 
ATOM      3  O   UNL     1       0.244   9.451  21.650  0.00  0.00    +0.000 OA
ATOM      4  S   UNL     1       1.636   7.549  20.504  0.00  0.00    +0.000 S 
ATOM      5  C   UNL     1       2.079   7.858  18.880  0.00  0.00    +0.000 C 
ATOM      6  C   UNL     1       2.571   7.016  17.961  0.00  0.00    +0.000 C 
ATOM      7  C   UNL     1       1.787   9.268  18.537  0.00  0.00    +0.000 C 
ATOM      8  O   UNL     1       2.039   9.763  17.439  0.00  0.00    +0.000 OA
ENDROOT
BRANCH   6   9
ATOM      9  C   UNL     1       2.807   5.589  18.164  0.00  0.00    +0.000 A 
ATOM     10  C   UNL     1       1.796   4.671  17.860  0.00  0.00    +0.000 A 
ATOM     11  C   UNL     1       2.010   3.307  18.057  0.00  0.00    +0.000 A 
ATOM     12  C   UNL     1       3.238   2.856  18.539  0.00  0.00    +0.000 A 
ATOM     13  C   UNL     1       4.251   3.769  18.834  0.00  0.00    +0.000 A 
ATOM     14  C   UNL     1       4.034   5.136  18.655  0.00  0.00    +0.000 A 
ENDBRANCH   6   9
BRANCH   1  15
ATOM     15  C   UNL     1       0.763  11.319  19.533  0.00  0.00    +0.000 C 
ATOM     16  C   UNL     1       0.996  12.105  20.825  0.00  0.00    +0.000 C 
BRANCH  15  18
ATOM     17  N   UNL     1      -0.960  11.093  17.811  0.00  0.00    +0.000 N 
ATOM     18  C   UNL     1      -0.717  11.402  19.130  0.00  0.00    +0.000 C 
ATOM     19  O   UNL     1      -1.590  11.661  19.958  0.00  0.00    +0.000 OA
ATOM     20  H   UNL     1      -0.226  11.077  17.100  0.00  0.00    +0.000 HD
BRANCH  17  21
ATOM     21  O   UNL     1      -2.311  11.145  17.396  0.00  0.00    +0.000 OA
BRANCH  21  22
ATOM     22  C   UNL     1      -2.811   9.819  17.224  0.00  0.00    +0.000 C 
BRANCH  22  24
ATOM     23  C   UNL     1      -3.077  10.570  14.850  0.00  0.00    +0.000 C 
ATOM     24  C   UNL     1      -3.025   9.587  15.763  0.00  0.00    +0.000 C 
ENDBRANCH  22  24
ENDBRANCH  21  22
ENDBRANCH  17  21
ENDBRANCH  15  18
ENDBRANCH   1  15
TORSDOF 6
ENDMDL
MODEL 6
REMARK VINA RESULT:      -7.0      3.092      4.380
REMARK  Name = 
REMARK  7 active torsions:
REMARK  status: ('A' for Active; 'I' for Inactive)
REMARK    1  A    between atoms: C_2  and  C_3
REMARK    2  A    between atoms: C_3  and  O_4
REMARK    3  A    between atoms: O_4  and  N_5
REMARK    4  A    between atoms: C_6  and  C_8
REMARK    5  A    between atoms: C_8  and  C_9
REMARK    6  A    between atoms: C_8  and  N_10
REMARK    7  A    between atoms: C_15  and  C_16
REMARK                            x       y       z     vdW  Elec       q    Type
REMARK                         _______ _______ _______ _____ _____    ______ ____
ROOT
ATOM      1  N   UNL     1       3.268   5.122  18.602  0.00  0.00    +0.000 N 
ATOM      2  C   UNL     1       2.734   4.593  19.749  0.00  0.00    +0.000 C 
ATOM      3  O   UNL     1       2.978   3.500  20.239  0.00  0.00    +0.000 OA
ATOM      4  S   UNL     1       1.688   5.762  20.536  0.00  0.00    +0.000 S 
ATOM      5  C   UNL     1       2.161   7.009  19.463  0.00  0.00    +0.000 C 
ATOM      6  C   UNL     1       1.877   8.317  19.507  0.00  0.00    +0.000 C 
ATOM      7  C   UNL     1       3.046   6.460  18.411  0.00  0.00    +0.000 C 
ATOM      8  O   UNL     1       3.504   7.137  17.491  0.00  0.00    +0.000 OA
ENDROOT
BRANCH   6   9
ATOM      9  C   UNL     1       1.096   8.977  20.550  0.00  0.00    +0.000 A 
ATOM     10  C   UNL     1       0.053   9.838  20.193  0.00  0.00    +0.000 A 
ATOM     11  C   UNL     1      -0.693  10.479  21.183  0.00  0.00    +0.000 A 
ATOM     12  C   UNL     1      -0.413  10.244  22.528  0.00  0.00    +0.000 A 
ATOM     13  C   UNL     1       0.621   9.379  22.887  0.00  0.00    +0.000 A 
ATOM     14  C   UNL     1       1.381   8.751  21.899  0.00  0.00    +0.000 A 
ENDBRANCH   6   9
BRANCH   1  15
ATOM     15  C   UNL     1       4.152   4.318  17.750  0.00  0.00    +0.000 C 
ATOM     16  C   UNL     1       3.807   2.827  17.729  0.00  0.00    +0.000 C 
BRANCH  15  18
ATOM     17  N   UNL     1       6.348   5.284  17.270  0.00  0.00    +0.000 N 
ATOM     18  C   UNL     1       5.624   4.509  18.147  0.00  0.00    +0.000 C 
ATOM     19  O   UNL     1       6.066   4.049  19.200  0.00  0.00    +0.000 OA
ATOM     20  H   UNL     1       6.034   5.488  16.319  0.00  0.00    +0.000 HD
BRANCH  17  21
ATOM     21  O   UNL     1       7.707   5.496  17.599  0.00  0.00    +0.000 OA
BRANCH  21  22
ATOM     22  C   UNL     1       7.820   6.632  18.457  0.00  0.00    +0.000 C 
BRANCH  22  24
ATOM     23  C   UNL     1       8.230   9.056  17.979  0.00  0.00    +0.000 C 
ATOM     24  C   UNL     1       7.728   7.864  17.616  0.00  0.00    +0.000 C 
ENDBRANCH  22  24
ENDBRANCH  21  22
ENDBRANCH  17  21
ENDBRANCH  15  18
ENDBRANCH   1  15
TORSDOF 6
ENDMDL
MODEL 7
REMARK VINA RESULT:      -6.9      0.956      1.023
REMARK  Name = 
REMARK  7 active torsions:
REMARK  status: ('A' for Active; 'I' for Inactive)
REMARK    1  A    between atoms: C_2  and  C_3
REMARK    2  A    between atoms: C_3  and  O_4
REMARK    3  A    between atoms: O_4  and  N_5
REMARK    4  A    between atoms: C_6  and  C_8
REMARK    5  A    between atoms: C_8  and  C_9
REMARK    6  A    between atoms: C_8  and  N_10
REMARK    7  A    between atoms: C_15  and  C_16
REMARK                            x       y       z     vdW  Elec       q    Type
REMARK                         _______ _______ _______ _____ _____    ______ ____
ROOT
ATOM      1  N   UNL     1       5.208   5.140  17.698  0.00  0.00    +0.000 N 
ATOM      2  C   UNL     1       4.571   4.645  18.807  0.00  0.00    +0.000 C 
ATOM      3  O   UNL     1       4.926   3.704  19.501  0.00  0.00    +0.000 OA
ATOM      4  S   UNL     1       3.173   5.630  19.203  0.00  0.00    +0.000 S 
ATOM      5  C   UNL     1       3.592   6.813  18.041  0.00  0.00    +0.000 C 
ATOM      6  C   UNL     1       3.047   8.017  17.823  0.00  0.00    +0.000 C 
ATOM      7  C   UNL     1       4.764   6.359  17.258  0.00  0.00    +0.000 C 
ATOM      8  O   UNL     1       5.253   7.007  16.334  0.00  0.00    +0.000 OA
ENDROOT
BRANCH   6   9
ATOM      9  C   UNL     1       1.954   8.601  18.596  0.00  0.00    +0.000 A 
ATOM     10  C   UNL     1       1.831   8.300  19.957  0.00  0.00    +0.000 A 
ATOM     11  C   UNL     1       0.786   8.847  20.701  0.00  0.00    +0.000 A 
ATOM     12  C   UNL     1      -0.124   9.711  20.094  0.00  0.00    +0.000 A 
ATOM     13  C   UNL     1       0.002  10.021  18.740  0.00  0.00    +0.000 A 
ATOM     14  C   UNL     1       1.035   9.461  17.988  0.00  0.00    +0.000 A 
ENDBRANCH   6   9
BRANCH   1  15
ATOM     15  C   UNL     1       6.390   4.464  17.152  0.00  0.00    +0.000 C 
ATOM     16  C   UNL     1       7.702   4.853  17.838  0.00  0.00    +0.000 C 
BRANCH  15  18
ATOM     17  N   UNL     1       5.441   4.204  14.912  0.00  0.00    +0.000 N 
ATOM     18  C   UNL     1       6.505   4.690  15.637  0.00  0.00    +0.000 C 
ATOM     19  O   UNL     1       7.450   5.314  15.155  0.00  0.00    +0.000 OA
ATOM     20  H   UNL     1       4.776   3.526  15.288  0.00  0.00    +0.000 HD
BRANCH  17  21
ATOM     21  O   UNL     1       5.498   4.399  13.512  0.00  0.00    +0.000 OA
BRANCH  21  22
ATOM     22  C   UNL     1       6.328   3.399  12.923  0.00  0.00    +0.000 C 
BRANCH  22  24
ATOM     23  C   UNL     1       5.879   1.550  11.293  0.00  0.00    +0.000 C 
ATOM     24  C   UNL     1       5.558   2.742  11.822  0.00  0.00    +0.000 C 
ENDBRANCH  22  24
ENDBRANCH  21  22
ENDBRANCH  17  21
ENDBRANCH  15  18
ENDBRANCH   1  15
TORSDOF 6
ENDMDL
MODEL 8
REMARK VINA RESULT:      -6.9      1.602      2.377
REMARK  Name = 
REMARK  7 active torsions:
REMARK  status: ('A' for Active; 'I' for Inactive)
REMARK    1  A    between atoms: C_2  and  C_3
REMARK    2  A    between atoms: C_3  and  O_4
REMARK    3  A    between atoms: O_4  and  N_5
REMARK    4  A    between atoms: C_6  and  C_8
REMARK    5  A    between atoms: C_8  and  C_9
REMARK    6  A    between atoms: C_8  and  N_10
REMARK    7  A    between atoms: C_15  and  C_16
REMARK                            x       y       z     vdW  Elec       q    Type
REMARK                         _______ _______ _______ _____ _____    ______ ____
ROOT
ATOM      1  N   UNL     1       3.900   5.484  18.713  0.00  0.00    +0.000 N 
ATOM      2  C   UNL     1       3.104   5.274  19.810  0.00  0.00    +0.000 C 
ATOM      3  O   UNL     1       3.261   4.433  20.683  0.00  0.00    +0.000 OA
ATOM      4  S   UNL     1       1.828   6.477  19.883  0.00  0.00    +0.000 S 
ATOM      5  C   UNL     1       2.511   7.376  18.597  0.00  0.00    +0.000 C 
ATOM      6  C   UNL     1       2.161   8.581  18.126  0.00  0.00    +0.000 C 
ATOM      7  C   UNL     1       3.672   6.651  18.034  0.00  0.00    +0.000 C 
ATOM      8  O   UNL     1       4.327   7.061  17.076  0.00  0.00    +0.000 OA
ENDROOT
BRANCH   6   9
ATOM      9  C   UNL     1       1.097   9.422  18.668  0.00  0.00    +0.000 A 
ATOM     10  C   UNL     1      -0.009   9.737  17.870  0.00  0.00    +0.000 A 
ATOM     11  C   UNL     1      -1.027  10.545  18.377  0.00  0.00    +0.000 A 
ATOM     12  C   UNL     1      -0.952  11.023  19.685  0.00  0.00    +0.000 A 
ATOM     13  C   UNL     1       0.144  10.702  20.485  0.00  0.00    +0.000 A 
ATOM     14  C   UNL     1       1.173   9.909  19.975  0.00  0.00    +0.000 A 
ENDBRANCH   6   9
BRANCH   1  15
ATOM     15  C   UNL     1       5.020   4.582  18.420  0.00  0.00    +0.000 C 
ATOM     16  C   UNL     1       6.398   5.216  18.621  0.00  0.00    +0.000 C 
BRANCH  15  18
ATOM     17  N   UNL     1       6.098   3.994  16.303  0.00  0.00    +0.000 N 
ATOM     18  C   UNL     1       4.910   4.009  16.998  0.00  0.00    +0.000 C 
ATOM     19  O   UNL     1       3.848   3.552  16.575  0.00  0.00    +0.000 OA
ATOM     20  H   UNL     1       6.910   4.548  16.580  0.00  0.00    +0.000 HD
BRANCH  17  21
ATOM     21  O   UNL     1       6.047   3.466  14.992  0.00  0.00    +0.000 OA
BRANCH  21  22
ATOM     22  C   UNL     1       6.677   4.372  14.086  0.00  0.00    +0.000 C 
BRANCH  22  24
ATOM     23  C   UNL     1       5.389   3.284  12.233  0.00  0.00    +0.000 C 
ATOM     24  C   UNL     1       6.525   3.828  12.702  0.00  0.00    +0.000 C 
ENDBRANCH  22  24
ENDBRANCH  21  22
ENDBRANCH  17  21
ENDBRANCH  15  18
ENDBRANCH   1  15
TORSDOF 6
ENDMDL
MODEL 9
REMARK VINA RESULT:      -6.9      2.828      7.681
REMARK  Name = 
REMARK  7 active torsions:
REMARK  status: ('A' for Active; 'I' for Inactive)
REMARK    1  A    between atoms: C_2  and  C_3
REMARK    2  A    between atoms: C_3  and  O_4
REMARK    3  A    between atoms: O_4  and  N_5
REMARK    4  A    between atoms: C_6  and  C_8
REMARK    5  A    between atoms: C_8  and  C_9
REMARK    6  A    between atoms: C_8  and  N_10
REMARK    7  A    between atoms: C_15  and  C_16
REMARK                            x       y       z     vdW  Elec       q    Type
REMARK                         _______ _______ _______ _____ _____    ______ ____
ROOT
ATOM      1  N   UNL     1       4.838   4.155  18.823  0.00  0.00    +0.000 N 
ATOM      2  C   UNL     1       6.000   4.883  18.825  0.00  0.00    +0.000 C 
ATOM      3  O   UNL     1       6.657   5.220  19.800  0.00  0.00    +0.000 OA
ATOM      4  S   UNL     1       6.527   5.204  17.182  0.00  0.00    +0.000 S 
ATOM      5  C   UNL     1       5.333   4.169  16.526  0.00  0.00    +0.000 C 
ATOM      6  C   UNL     1       5.169   3.760  15.260  0.00  0.00    +0.000 C 
ATOM      7  C   UNL     1       4.444   3.677  17.602  0.00  0.00    +0.000 C 
ATOM      8  O   UNL     1       3.479   2.940  17.400  0.00  0.00    +0.000 OA
ENDROOT
BRANCH   6   9
ATOM      9  C   UNL     1       6.041   4.107  14.142  0.00  0.00    +0.000 A 
ATOM     10  C   UNL     1       5.872   3.468  12.909  0.00  0.00    +0.000 A 
ATOM     11  C   UNL     1       6.706   3.787  11.836  0.00  0.00    +0.000 A 
ATOM     12  C   UNL     1       7.694   4.758  11.988  0.00  0.00    +0.000 A 
ATOM     13  C   UNL     1       7.859   5.404  13.213  0.00  0.00    +0.000 A 
ATOM     14  C   UNL     1       7.039   5.074  14.293  0.00  0.00    +0.000 A 
ENDBRANCH   6   9
BRANCH   1  15
ATOM     15  C   UNL     1       4.183   3.791  20.085  0.00  0.00    +0.000 C 
ATOM     16  C   UNL     1       4.067   2.282  20.313  0.00  0.00    +0.000 C 
BRANCH  15  18
ATOM     17  N   UNL     1       2.832   5.789  20.498  0.00  0.00    +0.000 N 
ATOM     18  C   UNL     1       2.798   4.446  20.197  0.00  0.00    +0.000 C 
ATOM     19  O   UNL     1       1.771   3.808  19.967  0.00  0.00    +0.000 OA
ATOM     20  H   UNL     1       3.659   6.252  20.877  0.00  0.00    +0.000 HD
BRANCH  17  21
ATOM     21  O   UNL     1       1.579   6.437  20.601  0.00  0.00    +0.000 OA
BRANCH  21  22
ATOM     22  C   UNL     1       1.748   7.840  20.397  0.00  0.00    +0.000 C 
BRANCH  22  24
ATOM     23  C   UNL     1      -0.179   8.853  21.637  0.00  0.00    +0.000 C 
ATOM     24  C   UNL     1       1.129   8.557  21.553  0.00  0.00    +0.000 C 
ENDBRANCH  22  24
ENDBRANCH  21  22
ENDBRANCH  17  21
ENDBRANCH  15  18
ENDBRANCH   1  15
TORSDOF 6
ENDMDL
