MODEL 1
REMARK VINA RESULT:      -8.2      0.000      0.000
REMARK  Name = 
REMARK  3 active torsions:
REMARK  status: ('A' for Active; 'I' for Inactive)
REMARK    1  A    between atoms: C_2  and  C_3
REMARK    2  A    between atoms: N_25  and  C_26
REMARK    3  A    between atoms: C_26  and  C_27
REMARK                            x       y       z     vdW  Elec       q    Type
REMARK                         _______ _______ _______ _____ _____    ______ ____
ROOT
ATOM      1  C   UNL     1      -2.507  12.937  21.485  0.00  0.00    +0.000 C 
ATOM      2  C   UNL     1      -2.351  13.772  22.782  0.00  0.00    +0.000 A 
ATOM      3  C   UNL     1      -1.270  14.627  23.116  0.00  0.00    +0.000 A 
ATOM      4  C   UNL     1      -1.235  15.289  24.357  0.00  0.00    +0.000 A 
ATOM      5  C   UNL     1      -2.228  15.114  25.307  0.00  0.00    +0.000 A 
ATOM      6  C   UNL     1      -3.269  14.242  25.027  0.00  0.00    +0.000 A 
ATOM      7  C   UNL     1      -3.309  13.573  23.789  0.00  0.00    +0.000 A 
ATOM      8  C   UNL     1      -4.485  12.754  23.538  0.00  0.00    +0.000 C 
ATOM      9  O   UNL     1      -5.152  12.314  24.461  0.00  0.00    +0.000 OA
ATOM     10  N   UNL     1      -4.920  12.766  22.235  0.00  0.00    +0.000 N 
ATOM     11  C   UNL     1      -6.289  13.181  22.040  0.00  0.00    +0.000 C 
ATOM     12  C   UNL     1      -6.326  14.375  21.092  0.00  0.00    +0.000 C 
ATOM     13  C   UNL     1      -5.821  13.859  19.769  0.00  0.00    +0.000 A 
ATOM     14  C   UNL     1      -6.655  14.095  18.663  0.00  0.00    +0.000 A 
ATOM     15  C   UNL     1      -6.682  13.175  17.632  0.00  0.00    +0.000 A 
ATOM     16  C   UNL     1      -5.791  12.102  17.665  0.00  0.00    +0.000 A 
ATOM     17  C   UNL     1      -4.819  11.987  18.682  0.00  0.00    +0.000 A 
ATOM     18  C   UNL     1      -4.790  12.879  19.770  0.00  0.00    +0.000 A 
ATOM     19  C   UNL     1      -4.010  12.544  21.087  0.00  0.00    +0.000 C 
ENDROOT
BRANCH   1  21
ATOM     20  O   UNL     1      -1.302  14.351  19.988  0.00  0.00    +0.000 OA
ATOM     21  C   UNL     1      -1.517  13.194  20.352  0.00  0.00    +0.000 C 
ATOM     22  N   UNL     1      -0.909  12.123  19.727  0.00  0.00    +0.000 N 
ATOM     23  C   UNL     1       0.002  12.346  18.591  0.00  0.00    +0.000 C 
ATOM     24  C   UNL     1       1.425  11.839  18.910  0.00  0.00    +0.000 C 
ATOM     25  N   UNL     1       1.478  10.467  19.478  0.00  0.00    +0.000 NA
ATOM     26  C   UNL     1       0.560  10.392  20.630  0.00  0.00    +0.000 C 
ATOM     27  C   UNL     1      -0.884  10.773  20.277  0.00  0.00    +0.000 C 
BRANCH  25  28
ATOM     28  C   UNL     1       1.155   9.420  18.496  0.00  0.00    +0.000 C 
BRANCH  28  29
ATOM     29  C   UNL     1       2.128   8.272  18.568  0.00  0.00    +0.000 A 
ATOM     30  C   UNL     1       3.043   8.066  17.528  0.00  0.00    +0.000 A 
ATOM     31  C   UNL     1       3.860   6.942  17.528  0.00  0.00    +0.000 A 
ATOM     32  C   UNL     1       3.772   6.021  18.572  0.00  0.00    +0.000 A 
ATOM     33  C   UNL     1       2.887   6.234  19.627  0.00  0.00    +0.000 A 
ATOM     34  C   UNL     1       2.067   7.361  19.629  0.00  0.00    +0.000 A 
ENDBRANCH  28  29
ENDBRANCH  25  28
ENDBRANCH   1  21
TORSDOF 3
ENDMDL
MODEL 2
REMARK VINA RESULT:      -8.2      3.372      6.341
REMARK  Name = 
REMARK  3 active torsions:
REMARK  status: ('A' for Active; 'I' for Inactive)
REMARK    1  A    between atoms: C_2  and  C_3
REMARK    2  A    between atoms: N_25  and  C_26
REMARK    3  A    between atoms: C_26  and  C_27
REMARK                            x       y       z     vdW  Elec       q    Type
REMARK                         _______ _______ _______ _____ _____    ______ ____
ROOT
ATOM      1  C   UNL     1      -3.632  12.897  19.907  0.00  0.00    +0.000 C 
ATOM      2  C   UNL     1      -3.399  11.796  18.842  0.00  0.00    +0.000 A 
ATOM      3  C   UNL     1      -2.245  10.984  18.699  0.00  0.00    +0.000 A 
ATOM      4  C   UNL     1      -2.148  10.052  17.650  0.00  0.00    +0.000 A 
ATOM      5  C   UNL     1      -3.150   9.909  16.703  0.00  0.00    +0.000 A 
ATOM      6  C   UNL     1      -4.265  10.728  16.789  0.00  0.00    +0.000 A 
ATOM      7  C   UNL     1      -4.368  11.666  17.834  0.00  0.00    +0.000 A 
ATOM      8  C   UNL     1      -5.613  12.415  17.905  0.00  0.00    +0.000 C 
ATOM      9  O   UNL     1      -6.313  12.564  16.917  0.00  0.00    +0.000 OA
ATOM     10  N   UNL     1      -6.049  12.675  19.183  0.00  0.00    +0.000 N 
ATOM     11  C   UNL     1      -7.376  12.200  19.495  0.00  0.00    +0.000 C 
ATOM     12  C   UNL     1      -7.309  11.266  20.699  0.00  0.00    +0.000 C 
ATOM     13  C   UNL     1      -6.855  12.123  21.853  0.00  0.00    +0.000 A 
ATOM     14  C   UNL     1      -7.669  12.085  22.999  0.00  0.00    +0.000 A 
ATOM     15  C   UNL     1      -7.781  13.217  23.783  0.00  0.00    +0.000 A 
ATOM     16  C   UNL     1      -6.989  14.324  23.481  0.00  0.00    +0.000 A 
ATOM     17  C   UNL     1      -6.027  14.279  22.448  0.00  0.00    +0.000 A 
ATOM     18  C   UNL     1      -5.916  13.161  21.601  0.00  0.00    +0.000 A 
ATOM     19  C   UNL     1      -5.165  13.241  20.228  0.00  0.00    +0.000 C 
ENDROOT
BRANCH   1  21
ATOM     20  O   UNL     1      -2.766  12.293  22.047  0.00  0.00    +0.000 OA
ATOM     21  C   UNL     1      -2.626  13.003  21.050  0.00  0.00    +0.000 C 
ATOM     22  N   UNL     1      -1.599  13.923  20.965  0.00  0.00    +0.000 N 
ATOM     23  C   UNL     1      -0.654  14.085  22.084  0.00  0.00    +0.000 C 
ATOM     24  C   UNL     1       0.788  13.747  21.649  0.00  0.00    +0.000 C 
ATOM     25  N   UNL     1       1.218  14.398  20.384  0.00  0.00    +0.000 NA
ATOM     26  C   UNL     1       0.214  14.122  19.339  0.00  0.00    +0.000 C 
ATOM     27  C   UNL     1      -1.199  14.578  19.726  0.00  0.00    +0.000 C 
BRANCH  25  28
ATOM     28  C   UNL     1       1.430  15.847  20.520  0.00  0.00    +0.000 C 
BRANCH  28  29
ATOM     29  C   UNL     1       1.835  16.475  19.212  0.00  0.00    +0.000 A 
ATOM     30  C   UNL     1       1.022  17.451  18.623  0.00  0.00    +0.000 A 
ATOM     31  C   UNL     1       1.325  17.946  17.361  0.00  0.00    +0.000 A 
ATOM     32  C   UNL     1       2.448  17.472  16.681  0.00  0.00    +0.000 A 
ATOM     33  C   UNL     1       3.280  16.524  17.272  0.00  0.00    +0.000 A 
ATOM     34  C   UNL     1       2.979  16.027  18.538  0.00  0.00    +0.000 A 
ENDBRANCH  28  29
ENDBRANCH  25  28
ENDBRANCH   1  21
TORSDOF 3
ENDMDL
MODEL 3
REMARK VINA RESULT:      -7.7      3.378      5.800
REMARK  Name = 
REMARK  3 active torsions:
REMARK  status: ('A' for Active; 'I' for Inactive)
REMARK    1  A    between atoms: C_2  and  C_3
REMARK    2  A    between atoms: N_25  and  C_26
REMARK    3  A    between atoms: C_26  and  C_27
REMARK                            x       y       z     vdW  Elec       q    Type
REMARK                         _______ _______ _______ _____ _____    ______ ____
ROOT
ATOM      1  C   UNL     1      -3.435  12.761  19.732  0.00  0.00    +0.000 C 
ATOM      2  C   UNL     1      -3.350  11.684  18.621  0.00  0.00    +0.000 A 
ATOM      3  C   UNL     1      -2.279  10.784  18.391  0.00  0.00    +0.000 A 
ATOM      4  C   UNL     1      -2.314   9.887  17.308  0.00  0.00    +0.000 A 
ATOM      5  C   UNL     1      -3.370   9.864  16.411  0.00  0.00    +0.000 A 
ATOM      6  C   UNL     1      -4.405  10.771  16.582  0.00  0.00    +0.000 A 
ATOM      7  C   UNL     1      -4.375  11.674  17.662  0.00  0.00    +0.000 A 
ATOM      8  C   UNL     1      -5.546  12.522  17.823  0.00  0.00    +0.000 C 
ATOM      9  O   UNL     1      -6.280  12.766  16.878  0.00  0.00    +0.000 OA
ATOM     10  N   UNL     1      -5.895  12.770  19.129  0.00  0.00    +0.000 N 
ATOM     11  C   UNL     1      -7.240  12.397  19.495  0.00  0.00    +0.000 C 
ATOM     12  C   UNL     1      -7.195  11.416  20.662  0.00  0.00    +0.000 C 
ATOM     13  C   UNL     1      -6.613  12.189  21.818  0.00  0.00    +0.000 A 
ATOM     14  C   UNL     1      -7.369  12.176  23.003  0.00  0.00    +0.000 A 
ATOM     15  C   UNL     1      -7.344  13.283  23.830  0.00  0.00    +0.000 A 
ATOM     16  C   UNL     1      -6.475  14.331  23.523  0.00  0.00    +0.000 A 
ATOM     17  C   UNL     1      -5.574  14.244  22.440  0.00  0.00    +0.000 A 
ATOM     18  C   UNL     1      -5.601  13.153  21.552  0.00  0.00    +0.000 A 
ATOM     19  C   UNL     1      -4.915  13.220  20.145  0.00  0.00    +0.000 C 
ENDROOT
BRANCH   1  21
ATOM     20  O   UNL     1      -2.590  12.136  21.874  0.00  0.00    +0.000 OA
ATOM     21  C   UNL     1      -2.368  12.740  20.824  0.00  0.00    +0.000 C 
ATOM     22  N   UNL     1      -1.188  13.432  20.632  0.00  0.00    +0.000 N 
ATOM     23  C   UNL     1      -0.172  13.476  21.698  0.00  0.00    +0.000 C 
ATOM     24  C   UNL     1       1.152  12.834  21.231  0.00  0.00    +0.000 C 
ATOM     25  N   UNL     1       1.632  13.305  19.906  0.00  0.00    +0.000 NA
ATOM     26  C   UNL     1       0.540  13.166  18.925  0.00  0.00    +0.000 C 
ATOM     27  C   UNL     1      -0.735  13.915  19.333  0.00  0.00    +0.000 C 
BRANCH  25  28
ATOM     28  C   UNL     1       2.128  14.691  19.928  0.00  0.00    +0.000 C 
BRANCH  28  29
ATOM     29  C   UNL     1       3.585  14.765  19.551  0.00  0.00    +0.000 A 
ATOM     30  C   UNL     1       4.546  15.052  20.528  0.00  0.00    +0.000 A 
ATOM     31  C   UNL     1       5.874  15.243  20.168  0.00  0.00    +0.000 A 
ATOM     32  C   UNL     1       6.251  15.140  18.829  0.00  0.00    +0.000 A 
ATOM     33  C   UNL     1       5.307  14.824  17.854  0.00  0.00    +0.000 A 
ATOM     34  C   UNL     1       3.975  14.631  18.213  0.00  0.00    +0.000 A 
ENDBRANCH  28  29
ENDBRANCH  25  28
ENDBRANCH   1  21
TORSDOF 3
ENDMDL
MODEL 4
REMARK VINA RESULT:      -7.4      3.383      6.297
REMARK  Name = 
REMARK  3 active torsions:
REMARK  status: ('A' for Active; 'I' for Inactive)
REMARK    1  A    between atoms: C_2  and  C_3
REMARK    2  A    between atoms: N_25  and  C_26
REMARK    3  A    between atoms: C_26  and  C_27
REMARK                            x       y       z     vdW  Elec       q    Type
REMARK                         _______ _______ _______ _____ _____    ______ ____
ROOT
ATOM      1  C   UNL     1      -3.552  12.961  19.968  0.00  0.00    +0.000 C 
ATOM      2  C   UNL     1      -3.363  11.853  18.901  0.00  0.00    +0.000 A 
ATOM      3  C   UNL     1      -2.225  11.022  18.733  0.00  0.00    +0.000 A 
ATOM      4  C   UNL     1      -2.168  10.086  17.684  0.00  0.00    +0.000 A 
ATOM      5  C   UNL     1      -3.195   9.956  16.763  0.00  0.00    +0.000 A 
ATOM      6  C   UNL     1      -4.295  10.793  16.873  0.00  0.00    +0.000 A 
ATOM      7  C   UNL     1      -4.357  11.735  17.918  0.00  0.00    +0.000 A 
ATOM      8  C   UNL     1      -5.588  12.505  18.016  0.00  0.00    +0.000 C 
ATOM      9  O   UNL     1      -6.310  12.662  17.045  0.00  0.00    +0.000 OA
ATOM     10  N   UNL     1      -5.989  12.775  19.303  0.00  0.00    +0.000 N 
ATOM     11  C   UNL     1      -7.315  12.323  19.649  0.00  0.00    +0.000 C 
ATOM     12  C   UNL     1      -7.234  11.391  20.853  0.00  0.00    +0.000 C 
ATOM     13  C   UNL     1      -6.739  12.244  21.994  0.00  0.00    +0.000 A 
ATOM     14  C   UNL     1      -7.525  12.222  23.159  0.00  0.00    +0.000 A 
ATOM     15  C   UNL     1      -7.600  13.358  23.943  0.00  0.00    +0.000 A 
ATOM     16  C   UNL     1      -6.797  14.452  23.617  0.00  0.00    +0.000 A 
ATOM     17  C   UNL     1      -5.862  14.388  22.561  0.00  0.00    +0.000 A 
ATOM     18  C   UNL     1      -5.790  13.266  21.716  0.00  0.00    +0.000 A 
ATOM     19  C   UNL     1      -5.071  13.330  20.325  0.00  0.00    +0.000 C 
ENDROOT
BRANCH   1  21
ATOM     20  O   UNL     1      -2.601  12.295  22.053  0.00  0.00    +0.000 OA
ATOM     21  C   UNL     1      -2.517  13.054  21.086  0.00  0.00    +0.000 C 
ATOM     22  N   UNL     1      -1.527  14.015  21.014  0.00  0.00    +0.000 N 
ATOM     23  C   UNL     1      -0.556  14.163  22.112  0.00  0.00    +0.000 C 
ATOM     24  C   UNL     1       0.883  13.901  21.622  0.00  0.00    +0.000 C 
ATOM     25  N   UNL     1       1.252  14.623  20.376  0.00  0.00    +0.000 NA
ATOM     26  C   UNL     1       0.228  14.355  19.349  0.00  0.00    +0.000 C 
ATOM     27  C   UNL     1      -1.189  14.740  19.795  0.00  0.00    +0.000 C 
BRANCH  25  28
ATOM     28  C   UNL     1       1.414  16.072  20.573  0.00  0.00    +0.000 C 
BRANCH  28  29
ATOM     29  C   UNL     1       2.799  16.531  20.197  0.00  0.00    +0.000 A 
ATOM     30  C   UNL     1       3.278  16.318  18.898  0.00  0.00    +0.000 A 
ATOM     31  C   UNL     1       4.593  16.628  18.578  0.00  0.00    +0.000 A 
ATOM     32  C   UNL     1       5.438  17.161  19.553  0.00  0.00    +0.000 A 
ATOM     33  C   UNL     1       4.961  17.406  20.839  0.00  0.00    +0.000 A 
ATOM     34  C   UNL     1       3.642  17.096  21.163  0.00  0.00    +0.000 A 
ENDBRANCH  28  29
ENDBRANCH  25  28
ENDBRANCH   1  21
TORSDOF 3
ENDMDL
MODEL 5
REMARK VINA RESULT:      -7.3      2.759      4.274
REMARK  Name = 
REMARK  3 active torsions:
REMARK  status: ('A' for Active; 'I' for Inactive)
REMARK    1  A    between atoms: C_2  and  C_3
REMARK    2  A    between atoms: N_25  and  C_26
REMARK    3  A    between atoms: C_26  and  C_27
REMARK                            x       y       z     vdW  Elec       q    Type
REMARK                         _______ _______ _______ _____ _____    ______ ____
ROOT
ATOM      1  C   UNL     1      -0.398  13.637  21.121  0.00  0.00    +0.000 C 
ATOM      2  C   UNL     1       0.226  14.894  20.462  0.00  0.00    +0.000 A 
ATOM      3  C   UNL     1       0.478  15.092  19.080  0.00  0.00    +0.000 A 
ATOM      4  C   UNL     1       1.098  16.269  18.624  0.00  0.00    +0.000 A 
ATOM      5  C   UNL     1       1.513  17.263  19.496  0.00  0.00    +0.000 A 
ATOM      6  C   UNL     1       1.326  17.070  20.857  0.00  0.00    +0.000 A 
ATOM      7  C   UNL     1       0.709  15.893  21.321  0.00  0.00    +0.000 A 
ATOM      8  C   UNL     1       0.465  15.817  22.753  0.00  0.00    +0.000 C 
ATOM      9  O   UNL     1       1.125  16.479  23.539  0.00  0.00    +0.000 OA
ATOM     10  N   UNL     1      -0.707  15.189  23.099  0.00  0.00    +0.000 N 
ATOM     11  C   UNL     1      -1.616  15.967  23.906  0.00  0.00    +0.000 C 
ATOM     12  C   UNL     1      -2.961  16.073  23.195  0.00  0.00    +0.000 C 
ATOM     13  C   UNL     1      -3.502  14.667  23.140  0.00  0.00    +0.000 A 
ATOM     14  C   UNL     1      -4.799  14.491  23.653  0.00  0.00    +0.000 A 
ATOM     15  C   UNL     1      -5.125  13.294  24.262  0.00  0.00    +0.000 A 
ATOM     16  C   UNL     1      -4.195  12.255  24.242  0.00  0.00    +0.000 A 
ATOM     17  C   UNL     1      -2.973  12.377  23.546  0.00  0.00    +0.000 A 
ATOM     18  C   UNL     1      -2.588  13.593  22.953  0.00  0.00    +0.000 A 
ATOM     19  C   UNL     1      -1.102  13.874  22.541  0.00  0.00    +0.000 C 
ENDROOT
BRANCH   1  21
ATOM     20  O   UNL     1      -2.049  12.810  19.610  0.00  0.00    +0.000 OA
ATOM     21  C   UNL     1      -0.994  12.575  20.200  0.00  0.00    +0.000 C 
ATOM     22  N   UNL     1      -0.361  11.353  20.077  0.00  0.00    +0.000 N 
ATOM     23  C   UNL     1      -0.953  10.293  19.243  0.00  0.00    +0.000 C 
ATOM     24  C   UNL     1      -0.013   9.909  18.081  0.00  0.00    +0.000 C 
ATOM     25  N   UNL     1       1.396   9.658  18.484  0.00  0.00    +0.000 NA
ATOM     26  C   UNL     1       1.879  10.809  19.269  0.00  0.00    +0.000 C 
ATOM     27  C   UNL     1       1.012  11.106  20.499  0.00  0.00    +0.000 C 
BRANCH  25  28
ATOM     28  C   UNL     1       1.567   8.410  19.244  0.00  0.00    +0.000 C 
BRANCH  28  29
ATOM     29  C   UNL     1       2.433   7.423  18.504  0.00  0.00    +0.000 A 
ATOM     30  C   UNL     1       2.316   6.053  18.771  0.00  0.00    +0.000 A 
ATOM     31  C   UNL     1       3.193   5.150  18.183  0.00  0.00    +0.000 A 
ATOM     32  C   UNL     1       4.187   5.609  17.319  0.00  0.00    +0.000 A 
ATOM     33  C   UNL     1       4.291   6.967  17.024  0.00  0.00    +0.000 A 
ATOM     34  C   UNL     1       3.413   7.875  17.611  0.00  0.00    +0.000 A 
ENDBRANCH  28  29
ENDBRANCH  25  28
ENDBRANCH   1  21
TORSDOF 3
ENDMDL
MODEL 6
REMARK VINA RESULT:      -7.3      1.180      1.681
REMARK  Name = 
REMARK  3 active torsions:
REMARK  status: ('A' for Active; 'I' for Inactive)
REMARK    1  A    between atoms: C_2  and  C_3
REMARK    2  A    between atoms: N_25  and  C_26
REMARK    3  A    between atoms: C_26  and  C_27
REMARK                            x       y       z     vdW  Elec       q    Type
REMARK                         _______ _______ _______ _____ _____    ______ ____
ROOT
ATOM      1  C   UNL     1      -2.402  12.329  20.699  0.00  0.00    +0.000 C 
ATOM      2  C   UNL     1      -1.671  13.430  21.508  0.00  0.00    +0.000 A 
ATOM      3  C   UNL     1      -0.358  13.918  21.285  0.00  0.00    +0.000 A 
ATOM      4  C   UNL     1       0.201  14.891  22.133  0.00  0.00    +0.000 A 
ATOM      5  C   UNL     1      -0.487  15.389  23.228  0.00  0.00    +0.000 A 
ATOM      6  C   UNL     1      -1.752  14.890  23.500  0.00  0.00    +0.000 A 
ATOM      7  C   UNL     1      -2.316  13.913  22.658  0.00  0.00    +0.000 A 
ATOM      8  C   UNL     1      -3.683  13.517  22.959  0.00  0.00    +0.000 C 
ATOM      9  O   UNL     1      -4.146  13.659  24.079  0.00  0.00    +0.000 OA
ATOM     10  N   UNL     1      -4.457  13.255  21.854  0.00  0.00    +0.000 N 
ATOM     11  C   UNL     1      -5.669  14.030  21.745  0.00  0.00    +0.000 C 
ATOM     12  C   UNL     1      -5.671  14.787  20.422  0.00  0.00    +0.000 C 
ATOM     13  C   UNL     1      -5.717  13.729  19.349  0.00  0.00    +0.000 A 
ATOM     14  C   UNL     1      -6.745  13.866  18.400  0.00  0.00    +0.000 A 
ATOM     15  C   UNL     1      -7.302  12.731  17.842  0.00  0.00    +0.000 A 
ATOM     16  C   UNL     1      -6.745  11.490  18.148  0.00  0.00    +0.000 A 
ATOM     17  C   UNL     1      -5.585  11.382  18.945  0.00  0.00    +0.000 A 
ATOM     18  C   UNL     1      -5.017  12.510  19.565  0.00  0.00    +0.000 A 
ATOM     19  C   UNL     1      -4.003  12.373  20.753  0.00  0.00    +0.000 C 
ENDROOT
BRANCH   1  21
ATOM     20  O   UNL     1      -1.896  12.499  18.374  0.00  0.00    +0.000 OA
ATOM     21  C   UNL     1      -1.747  11.845  19.407  0.00  0.00    +0.000 C 
ATOM     22  N   UNL     1      -1.035  10.662  19.410  0.00  0.00    +0.000 N 
ATOM     23  C   UNL     1      -0.449  10.146  18.161  0.00  0.00    +0.000 C 
ATOM     24  C   UNL     1       1.088  10.052  18.264  0.00  0.00    +0.000 C 
ATOM     25  N   UNL     1       1.584   9.383  19.496  0.00  0.00    +0.000 NA
ATOM     26  C   UNL     1       0.958  10.021  20.670  0.00  0.00    +0.000 C 
ATOM     27  C   UNL     1      -0.575   9.997  20.623  0.00  0.00    +0.000 C 
BRANCH  25  28
ATOM     28  C   UNL     1       1.336   7.933  19.508  0.00  0.00    +0.000 C 
BRANCH  28  29
ATOM     29  C   UNL     1       2.508   7.165  18.955  0.00  0.00    +0.000 A 
ATOM     30  C   UNL     1       3.026   6.073  19.663  0.00  0.00    +0.000 A 
ATOM     31  C   UNL     1       4.179   5.437  19.221  0.00  0.00    +0.000 A 
ATOM     32  C   UNL     1       4.818   5.882  18.064  0.00  0.00    +0.000 A 
ATOM     33  C   UNL     1       4.293   6.948  17.336  0.00  0.00    +0.000 A 
ATOM     34  C   UNL     1       3.136   7.587  17.776  0.00  0.00    +0.000 A 
ENDBRANCH  28  29
ENDBRANCH  25  28
ENDBRANCH   1  21
TORSDOF 3
ENDMDL
MODEL 7
REMARK VINA RESULT:      -7.1      2.145      3.036
REMARK  Name = 
REMARK  3 active torsions:
REMARK  status: ('A' for Active; 'I' for Inactive)
REMARK    1  A    between atoms: C_2  and  C_3
REMARK    2  A    between atoms: N_25  and  C_26
REMARK    3  A    between atoms: C_26  and  C_27
REMARK                            x       y       z     vdW  Elec       q    Type
REMARK                         _______ _______ _______ _____ _____    ______ ____
ROOT
ATOM      1  C   UNL     1      -2.090  13.432  20.359  0.00  0.00    +0.000 C 
ATOM      2  C   UNL     1      -1.166  14.610  19.958  0.00  0.00    +0.000 A 
ATOM      3  C   UNL     1      -0.214  14.622  18.907  0.00  0.00    +0.000 A 
ATOM      4  C   UNL     1       0.597  15.750  18.685  0.00  0.00    +0.000 A 
ATOM      5  C   UNL     1       0.525  16.873  19.493  0.00  0.00    +0.000 A 
ATOM      6  C   UNL     1      -0.360  16.866  20.561  0.00  0.00    +0.000 A 
ATOM      7  C   UNL     1      -1.173  15.740  20.791  0.00  0.00    +0.000 A 
ATOM      8  C   UNL     1      -2.140  15.855  21.872  0.00  0.00    +0.000 C 
ATOM      9  O   UNL     1      -1.971  16.648  22.784  0.00  0.00    +0.000 OA
ATOM     10  N   UNL     1      -3.340  15.231  21.631  0.00  0.00    +0.000 N 
ATOM     11  C   UNL     1      -4.508  16.074  21.716  0.00  0.00    +0.000 C 
ATOM     12  C   UNL     1      -5.269  16.021  20.396  0.00  0.00    +0.000 C 
ATOM     13  C   UNL     1      -5.752  14.599  20.264  0.00  0.00    +0.000 A 
ATOM     14  C   UNL     1      -7.129  14.440  20.033  0.00  0.00    +0.000 A 
ATOM     15  C   UNL     1      -7.773  13.328  20.541  0.00  0.00    +0.000 A 
ATOM     16  C   UNL     1      -7.013  12.337  21.163  0.00  0.00    +0.000 A 
ATOM     17  C   UNL     1      -5.604  12.414  21.209  0.00  0.00    +0.000 A 
ATOM     18  C   UNL     1      -4.918  13.550  20.742  0.00  0.00    +0.000 A 
ATOM     19  C   UNL     1      -3.430  13.835  21.143  0.00  0.00    +0.000 C 
ENDROOT
BRANCH   1  21
ATOM     20  O   UNL     1      -3.002  12.191  18.536  0.00  0.00    +0.000 OA
ATOM     21  C   UNL     1      -2.149  12.226  19.425  0.00  0.00    +0.000 C 
ATOM     22  N   UNL     1      -1.273  11.176  19.617  0.00  0.00    +0.000 N 
ATOM     23  C   UNL     1      -1.354   9.976  18.767  0.00  0.00    +0.000 C 
ATOM     24  C   UNL     1      -0.049   9.770  17.969  0.00  0.00    +0.000 C 
ATOM     25  N   UNL     1       1.192   9.862  18.781  0.00  0.00    +0.000 NA
ATOM     26  C   UNL     1       1.169  11.124  19.546  0.00  0.00    +0.000 C 
ATOM     27  C   UNL     1      -0.071  11.265  20.438  0.00  0.00    +0.000 C 
BRANCH  25  28
ATOM     28  C   UNL     1       1.378   8.718  19.687  0.00  0.00    +0.000 C 
BRANCH  28  29
ATOM     29  C   UNL     1       2.280   7.673  19.083  0.00  0.00    +0.000 A 
ATOM     30  C   UNL     1       3.092   7.998  17.989  0.00  0.00    +0.000 A 
ATOM     31  C   UNL     1       3.833   7.012  17.351  0.00  0.00    +0.000 A 
ATOM     32  C   UNL     1       3.775   5.695  17.808  0.00  0.00    +0.000 A 
ATOM     33  C   UNL     1       2.995   5.368  18.916  0.00  0.00    +0.000 A 
ATOM     34  C   UNL     1       2.251   6.355  19.557  0.00  0.00    +0.000 A 
ENDBRANCH  28  29
ENDBRANCH  25  28
ENDBRANCH   1  21
TORSDOF 3
ENDMDL
MODEL 8
REMARK VINA RESULT:      -7.1      2.265      3.755
REMARK  Name = 
REMARK  3 active torsions:
REMARK  status: ('A' for Active; 'I' for Inactive)
REMARK    1  A    between atoms: C_2  and  C_3
REMARK    2  A    between atoms: N_25  and  C_26
REMARK    3  A    between atoms: C_26  and  C_27
REMARK                            x       y       z     vdW  Elec       q    Type
REMARK                         _______ _______ _______ _____ _____    ______ ____
ROOT
ATOM      1  C   UNL     1      -2.359  13.147  21.582  0.00  0.00    +0.000 C 
ATOM      2  C   UNL     1      -3.485  12.999  22.637  0.00  0.00    +0.000 A 
ATOM      3  C   UNL     1      -3.415  12.280  23.857  0.00  0.00    +0.000 A 
ATOM      4  C   UNL     1      -4.537  12.188  24.702  0.00  0.00    +0.000 A 
ATOM      5  C   UNL     1      -5.753  12.763  24.369  0.00  0.00    +0.000 A 
ATOM      6  C   UNL     1      -5.862  13.425  23.155  0.00  0.00    +0.000 A 
ATOM      7  C   UNL     1      -4.746  13.519  22.304  0.00  0.00    +0.000 A 
ATOM      8  C   UNL     1      -4.922  14.314  21.098  0.00  0.00    +0.000 C 
ATOM      9  O   UNL     1      -6.032  14.505  20.628  0.00  0.00    +0.000 OA
ATOM     10  N   UNL     1      -3.813  15.036  20.725  0.00  0.00    +0.000 N 
ATOM     11  C   UNL     1      -4.011  16.460  20.600  0.00  0.00    +0.000 C 
ATOM     12  C   UNL     1      -3.036  17.190  21.517  0.00  0.00    +0.000 C 
ATOM     13  C   UNL     1      -1.663  16.879  20.979  0.00  0.00    +0.000 A 
ATOM     14  C   UNL     1      -0.846  17.991  20.710  0.00  0.00    +0.000 A 
ATOM     15  C   UNL     1       0.060  17.925  19.669  0.00  0.00    +0.000 A 
ATOM     16  C   UNL     1       0.220  16.714  18.994  0.00  0.00    +0.000 A 
ATOM     17  C   UNL     1      -0.461  15.548  19.406  0.00  0.00    +0.000 A 
ATOM     18  C   UNL     1      -1.423  15.588  20.433  0.00  0.00    +0.000 A 
ATOM     19  C   UNL     1      -2.463  14.433  20.630  0.00  0.00    +0.000 C 
ENDROOT
BRANCH   1  21
ATOM     20  O   UNL     1      -0.467  13.003  23.028  0.00  0.00    +0.000 OA
ATOM     21  C   UNL     1      -0.965  12.652  21.957  0.00  0.00    +0.000 C 
ATOM     22  N   UNL     1      -0.268  11.852  21.072  0.00  0.00    +0.000 N 
ATOM     23  C   UNL     1       1.102  11.416  21.388  0.00  0.00    +0.000 C 
ATOM     24  C   UNL     1       1.189   9.878  21.482  0.00  0.00    +0.000 C 
ATOM     25  N   UNL     1       0.562   9.154  20.345  0.00  0.00    +0.000 NA
ATOM     26  C   UNL     1      -0.815   9.651  20.165  0.00  0.00    +0.000 C 
ATOM     27  C   UNL     1      -0.885  11.167  19.943  0.00  0.00    +0.000 C 
BRANCH  25  28
ATOM     28  C   UNL     1       1.319   9.278  19.090  0.00  0.00    +0.000 C 
BRANCH  28  29
ATOM     29  C   UNL     1       2.160   8.056  18.826  0.00  0.00    +0.000 A 
ATOM     30  C   UNL     1       2.188   7.012  19.758  0.00  0.00    +0.000 A 
ATOM     31  C   UNL     1       3.052   5.939  19.581  0.00  0.00    +0.000 A 
ATOM     32  C   UNL     1       3.889   5.899  18.465  0.00  0.00    +0.000 A 
ATOM     33  C   UNL     1       3.846   6.918  17.516  0.00  0.00    +0.000 A 
ATOM     34  C   UNL     1       2.979   7.995  17.691  0.00  0.00    +0.000 A 
ENDBRANCH  28  29
ENDBRANCH  25  28
ENDBRANCH   1  21
TORSDOF 3
ENDMDL
MODEL 9
REMARK VINA RESULT:      -7.1      2.446      3.793
REMARK  Name = 
REMARK  3 active torsions:
REMARK  status: ('A' for Active; 'I' for Inactive)
REMARK    1  A    between atoms: C_2  and  C_3
REMARK    2  A    between atoms: N_25  and  C_26
REMARK    3  A    between atoms: C_26  and  C_27
REMARK                            x       y       z     vdW  Elec       q    Type
REMARK                         _______ _______ _______ _____ _____    ______ ____
ROOT
ATOM      1  C   UNL     1      -2.308  14.739  22.394  0.00  0.00    +0.000 C 
ATOM      2  C   UNL     1      -1.648  16.092  22.025  0.00  0.00    +0.000 A 
ATOM      3  C   UNL     1      -1.053  16.435  20.784  0.00  0.00    +0.000 A 
ATOM      4  C   UNL     1      -0.444  17.690  20.602  0.00  0.00    +0.000 A 
ATOM      5  C   UNL     1      -0.373  18.623  21.623  0.00  0.00    +0.000 A 
ATOM      6  C   UNL     1      -0.900  18.292  22.862  0.00  0.00    +0.000 A 
ATOM      7  C   UNL     1      -1.508  17.037  23.053  0.00  0.00    +0.000 A 
ATOM      8  C   UNL     1      -2.121  16.810  24.353  0.00  0.00    +0.000 C 
ATOM      9  O   UNL     1      -1.761  17.439  25.335  0.00  0.00    +0.000 OA
ATOM     10  N   UNL     1      -3.280  16.072  24.316  0.00  0.00    +0.000 N 
ATOM     11  C   UNL     1      -4.440  16.707  24.894  0.00  0.00    +0.000 C 
ATOM     12  C   UNL     1      -5.548  16.786  23.849  0.00  0.00    +0.000 C 
ATOM     13  C   UNL     1      -5.922  15.357  23.547  0.00  0.00    +0.000 A 
ATOM     14  C   UNL     1      -7.287  15.045  23.668  0.00  0.00    +0.000 A 
ATOM     15  C   UNL     1      -7.654  13.777  24.077  0.00  0.00    +0.000 A 
ATOM     16  C   UNL     1      -6.661  12.810  24.240  0.00  0.00    +0.000 A 
ATOM     17  C   UNL     1      -5.313  13.082  23.919  0.00  0.00    +0.000 A 
ATOM     18  C   UNL     1      -4.897  14.372  23.543  0.00  0.00    +0.000 A 
ATOM     19  C   UNL     1      -3.387  14.792  23.578  0.00  0.00    +0.000 C 
ENDROOT
BRANCH   1  21
ATOM     20  O   UNL     1      -3.435  13.925  20.455  0.00  0.00    +0.000 OA
ATOM     21  C   UNL     1      -2.534  13.729  21.272  0.00  0.00    +0.000 C 
ATOM     22  N   UNL     1      -1.751  12.592  21.216  0.00  0.00    +0.000 N 
ATOM     23  C   UNL     1      -1.994  11.575  20.178  0.00  0.00    +0.000 C 
ATOM     24  C   UNL     1      -0.762  11.407  19.264  0.00  0.00    +0.000 C 
ATOM     25  N   UNL     1       0.526  11.248  19.988  0.00  0.00    +0.000 NA
ATOM     26  C   UNL     1       0.667  12.349  20.959  0.00  0.00    +0.000 C 
ATOM     27  C   UNL     1      -0.502  12.432  21.950  0.00  0.00    +0.000 C 
BRANCH  25  28
ATOM     28  C   UNL     1       0.654   9.948  20.666  0.00  0.00    +0.000 C 
BRANCH  28  29
ATOM     29  C   UNL     1       1.338   8.930  19.791  0.00  0.00    +0.000 A 
ATOM     30  C   UNL     1       1.743   7.703  20.330  0.00  0.00    +0.000 A 
ATOM     31  C   UNL     1       2.481   6.811  19.563  0.00  0.00    +0.000 A 
ATOM     32  C   UNL     1       2.813   7.137  18.247  0.00  0.00    +0.000 A 
ATOM     33  C   UNL     1       2.388   8.342  17.692  0.00  0.00    +0.000 A 
ATOM     34  C   UNL     1       1.647   9.238  18.459  0.00  0.00    +0.000 A 
ENDBRANCH  28  29
ENDBRANCH  25  28
ENDBRANCH   1  21
TORSDOF 3
ENDMDL
