MODEL 1
REMARK VINA RESULT:      -7.4      0.000      0.000
REMARK  Name = 
REMARK  5 active torsions:
REMARK  status: ('A' for Active; 'I' for Inactive)
REMARK    1  A    between atoms: C_8  and  C_9
REMARK    2  A    between atoms: C_9  and  C_10
REMARK    3  A    between atoms: C_10  and  N_11
REMARK    4  A    between atoms: N_11  and  C_12
REMARK    5  A    between atoms: C_12  and  C_13
REMARK                            x       y       z     vdW  Elec       q    Type
REMARK                         _______ _______ _______ _____ _____    ______ ____
ROOT
ATOM      1  N   UNL     1       8.923   6.075  12.833  0.00  0.00    +0.000 N 
ATOM      2  C   UNL     1       7.892   5.361  13.484  0.00  0.00    +0.000 A 
ATOM      3  C   UNL     1       7.044   4.510  12.762  0.00  0.00    +0.000 A 
ATOM      4  C   UNL     1       6.027   3.821  13.430  0.00  0.00    +0.000 A 
ATOM      5  C   UNL     1       5.865   3.987  14.809  0.00  0.00    +0.000 A 
ATOM      6  C   UNL     1       4.851   3.323  15.510  0.00  0.00    +0.000 A 
ATOM      7  C   UNL     1       4.709   3.522  16.886  0.00  0.00    +0.000 A 
ATOM      8  C   UNL     1       5.584   4.382  17.573  0.00  0.00    +0.000 A 
ATOM      9  C   UNL     1       6.603   5.042  16.874  0.00  0.00    +0.000 A 
ATOM     10  C   UNL     1       6.744   4.850  15.499  0.00  0.00    +0.000 A 
ATOM     11  N   UNL     1       7.722   5.507  14.824  0.00  0.00    +0.000 NA
ATOM     12  H   UNL     1       9.072   5.984  11.818  0.00  0.00    +0.000 HD
ATOM     13  H   UNL     1       9.537   6.702  13.374  0.00  0.00    +0.000 HD
ENDROOT
BRANCH   8  14
ATOM     14  C   UNL     1       5.394   4.645  19.037  0.00  0.00    +0.000 C 
BRANCH  14  15
ATOM     15  C   UNL     1       4.896   6.073  19.339  0.00  0.00    +0.000 C 
BRANCH  15  16
ATOM     16  N   UNL     1       3.690   6.414  18.564  0.00  0.00    +0.000 NA
ATOM     17  H   UNL     1       3.607   5.765  17.745  0.00  0.00    +0.000 HD
BRANCH  16  18
ATOM     18  C   UNL     1       2.471   6.353  19.382  0.00  0.00    +0.000 C 
BRANCH  18  19
ATOM     19  C   UNL     1       1.961   4.949  19.498  0.00  0.00    +0.000 A 
ATOM     20  C   UNL     1       1.663   4.202  18.350  0.00  0.00    +0.000 A 
ATOM     21  C   UNL     1       1.164   2.903  18.470  0.00  0.00    +0.000 A 
ATOM     22  C   UNL     1       0.965   2.339  19.735  0.00  0.00    +0.000 A 
ATOM     23  C   UNL     1       1.265   3.077  20.883  0.00  0.00    +0.000 A 
ATOM     24  F   UNL     1       1.070   2.536  22.111  0.00  0.00    +0.000 F 
ATOM     25  C   UNL     1       1.761   4.375  20.767  0.00  0.00    +0.000 A 
ENDBRANCH  18  19
ENDBRANCH  16  18
ENDBRANCH  15  16
ENDBRANCH  14  15
ENDBRANCH   8  14
TORSDOF 5
ENDMDL
MODEL 2
REMARK VINA RESULT:      -7.4      3.471      6.902
REMARK  Name = 
REMARK  5 active torsions:
REMARK  status: ('A' for Active; 'I' for Inactive)
REMARK    1  A    between atoms: C_8  and  C_9
REMARK    2  A    between atoms: C_9  and  C_10
REMARK    3  A    between atoms: C_10  and  N_11
REMARK    4  A    between atoms: N_11  and  C_12
REMARK    5  A    between atoms: C_12  and  C_13
REMARK                            x       y       z     vdW  Elec       q    Type
REMARK                         _______ _______ _______ _____ _____    ______ ____
ROOT
ATOM      1  N   UNL     1      -0.471   8.950  23.080  0.00  0.00    +0.000 N 
ATOM      2  C   UNL     1       0.088   9.140  21.796  0.00  0.00    +0.000 A 
ATOM      3  C   UNL     1      -0.180  10.305  21.063  0.00  0.00    +0.000 A 
ATOM      4  C   UNL     1       0.380  10.464  19.792  0.00  0.00    +0.000 A 
ATOM      5  C   UNL     1       1.199   9.462  19.264  0.00  0.00    +0.000 A 
ATOM      6  C   UNL     1       1.768   9.580  17.989  0.00  0.00    +0.000 A 
ATOM      7  C   UNL     1       2.571   8.552  17.487  0.00  0.00    +0.000 A 
ATOM      8  C   UNL     1       2.817   7.401  18.256  0.00  0.00    +0.000 A 
ATOM      9  C   UNL     1       2.254   7.285  19.533  0.00  0.00    +0.000 A 
ATOM     10  C   UNL     1       1.447   8.305  20.037  0.00  0.00    +0.000 A 
ATOM     11  N   UNL     1       0.889   8.179  21.268  0.00  0.00    +0.000 NA
ATOM     12  H   UNL     1      -1.083   9.663  23.502  0.00  0.00    +0.000 HD
ATOM     13  H   UNL     1      -0.271   8.087  23.607  0.00  0.00    +0.000 HD
ENDROOT
BRANCH   8  14
ATOM     14  C   UNL     1       3.627   6.273  17.693  0.00  0.00    +0.000 C 
BRANCH  14  15
ATOM     15  C   UNL     1       5.061   6.212  18.259  0.00  0.00    +0.000 C 
BRANCH  15  16
ATOM     16  N   UNL     1       5.202   5.178  19.300  0.00  0.00    +0.000 NA
ATOM     17  H   UNL     1       4.701   5.486  20.168  0.00  0.00    +0.000 HD
BRANCH  16  18
ATOM     18  C   UNL     1       4.688   3.874  18.857  0.00  0.00    +0.000 C 
BRANCH  18  19
ATOM     19  C   UNL     1       3.333   3.598  19.433  0.00  0.00    +0.000 A 
ATOM     20  C   UNL     1       3.016   4.003  20.737  0.00  0.00    +0.000 A 
ATOM     21  C   UNL     1       1.758   3.718  21.273  0.00  0.00    +0.000 A 
ATOM     22  C   UNL     1       0.806   3.031  20.511  0.00  0.00    +0.000 A 
ATOM     23  C   UNL     1       1.114   2.629  19.209  0.00  0.00    +0.000 A 
ATOM     24  F   UNL     1       0.197   1.961  18.467  0.00  0.00    +0.000 F 
ATOM     25  C   UNL     1       2.370   2.911  18.670  0.00  0.00    +0.000 A 
ENDBRANCH  18  19
ENDBRANCH  16  18
ENDBRANCH  15  16
ENDBRANCH  14  15
ENDBRANCH   8  14
TORSDOF 5
ENDMDL
MODEL 3
REMARK VINA RESULT:      -7.4      2.659      4.020
REMARK  Name = 
REMARK  5 active torsions:
REMARK  status: ('A' for Active; 'I' for Inactive)
REMARK    1  A    between atoms: C_8  and  C_9
REMARK    2  A    between atoms: C_9  and  C_10
REMARK    3  A    between atoms: C_10  and  N_11
REMARK    4  A    between atoms: N_11  and  C_12
REMARK    5  A    between atoms: C_12  and  C_13
REMARK                            x       y       z     vdW  Elec       q    Type
REMARK                         _______ _______ _______ _____ _____    ______ ____
ROOT
ATOM      1  N   UNL     1       8.243   4.132  17.747  0.00  0.00    +0.000 N 
ATOM      2  C   UNL     1       7.068   4.899  17.579  0.00  0.00    +0.000 A 
ATOM      3  C   UNL     1       6.864   5.651  16.414  0.00  0.00    +0.000 A 
ATOM      4  C   UNL     1       5.696   6.407  16.277  0.00  0.00    +0.000 A 
ATOM      5  C   UNL     1       4.744   6.406  17.301  0.00  0.00    +0.000 A 
ATOM      6  C   UNL     1       3.567   7.160  17.205  0.00  0.00    +0.000 A 
ATOM      7  C   UNL     1       2.643   7.146  18.254  0.00  0.00    +0.000 A 
ATOM      8  C   UNL     1       2.885   6.375  19.404  0.00  0.00    +0.000 A 
ATOM      9  C   UNL     1       4.059   5.616  19.499  0.00  0.00    +0.000 A 
ATOM     10  C   UNL     1       4.986   5.631  18.457  0.00  0.00    +0.000 A 
ATOM     11  N   UNL     1       6.130   4.907  18.562  0.00  0.00    +0.000 NA
ATOM     12  H   UNL     1       8.970   4.110  17.018  0.00  0.00    +0.000 HD
ATOM     13  H   UNL     1       8.384   3.587  18.611  0.00  0.00    +0.000 HD
ENDROOT
BRANCH   8  14
ATOM     14  C   UNL     1       1.925   6.409  20.555  0.00  0.00    +0.000 C 
BRANCH  14  15
ATOM     15  C   UNL     1       1.652   5.017  21.160  0.00  0.00    +0.000 C 
BRANCH  15  16
ATOM     16  N   UNL     1       0.492   4.358  20.533  0.00  0.00    +0.000 NA
ATOM     17  H   UNL     1       0.277   4.826  19.621  0.00  0.00    +0.000 HD
BRANCH  16  18
ATOM     18  C   UNL     1       0.719   2.921  20.323  0.00  0.00    +0.000 C 
BRANCH  18  19
ATOM     19  C   UNL     1       1.813   2.682  19.329  0.00  0.00    +0.000 A 
ATOM     20  C   UNL     1       2.914   1.878  19.659  0.00  0.00    +0.000 A 
ATOM     21  C   UNL     1       3.941   1.683  18.733  0.00  0.00    +0.000 A 
ATOM     22  C   UNL     1       3.876   2.284  17.471  0.00  0.00    +0.000 A 
ATOM     23  C   UNL     1       2.779   3.082  17.134  0.00  0.00    +0.000 A 
ATOM     24  F   UNL     1       2.712   3.669  15.913  0.00  0.00    +0.000 F 
ATOM     25  C   UNL     1       1.752   3.280  18.057  0.00  0.00    +0.000 A 
ENDBRANCH  18  19
ENDBRANCH  16  18
ENDBRANCH  15  16
ENDBRANCH  14  15
ENDBRANCH   8  14
TORSDOF 5
ENDMDL
MODEL 4
REMARK VINA RESULT:      -7.3      3.391      6.395
REMARK  Name = 
REMARK  5 active torsions:
REMARK  status: ('A' for Active; 'I' for Inactive)
REMARK    1  A    between atoms: C_8  and  C_9
REMARK    2  A    between atoms: C_9  and  C_10
REMARK    3  A    between atoms: C_10  and  N_11
REMARK    4  A    between atoms: N_11  and  C_12
REMARK    5  A    between atoms: C_12  and  C_13
REMARK                            x       y       z     vdW  Elec       q    Type
REMARK                         _______ _______ _______ _____ _____    ______ ____
ROOT
ATOM      1  N   UNL     1      -0.360   8.618  22.694  0.00  0.00    +0.000 N 
ATOM      2  C   UNL     1       0.275   8.701  21.434  0.00  0.00    +0.000 A 
ATOM      3  C   UNL     1      -0.055   9.723  20.532  0.00  0.00    +0.000 A 
ATOM      4  C   UNL     1       0.583   9.778  19.289  0.00  0.00    +0.000 A 
ATOM      5  C   UNL     1       1.542   8.815  18.957  0.00  0.00    +0.000 A 
ATOM      6  C   UNL     1       2.193   8.830  17.717  0.00  0.00    +0.000 A 
ATOM      7  C   UNL     1       3.136   7.844  17.413  0.00  0.00    +0.000 A 
ATOM      8  C   UNL     1       3.440   6.839  18.348  0.00  0.00    +0.000 A 
ATOM      9  C   UNL     1       2.793   6.826  19.591  0.00  0.00    +0.000 A 
ATOM     10  C   UNL     1       1.847   7.805  19.896  0.00  0.00    +0.000 A 
ATOM     11  N   UNL     1       1.211   7.777  21.096  0.00  0.00    +0.000 NA
ATOM     12  H   UNL     1      -1.074   9.304  22.973  0.00  0.00    +0.000 HD
ATOM     13  H   UNL     1      -0.113   7.858  23.346  0.00  0.00    +0.000 HD
ENDROOT
BRANCH   8  14
ATOM     14  C   UNL     1       4.404   5.746  17.999  0.00  0.00    +0.000 C 
BRANCH  14  15
ATOM     15  C   UNL     1       5.341   5.366  19.164  0.00  0.00    +0.000 C 
BRANCH  15  16
ATOM     16  N   UNL     1       5.435   3.907  19.346  0.00  0.00    +0.000 NA
ATOM     17  H   UNL     1       5.170   3.660  20.330  0.00  0.00    +0.000 HD
BRANCH  16  18
ATOM     18  C   UNL     1       4.584   3.175  18.396  0.00  0.00    +0.000 C 
BRANCH  18  19
ATOM     19  C   UNL     1       3.200   2.986  18.937  0.00  0.00    +0.000 A 
ATOM     20  C   UNL     1       2.096   2.944  18.075  0.00  0.00    +0.000 A 
ATOM     21  C   UNL     1       0.808   2.792  18.592  0.00  0.00    +0.000 A 
ATOM     22  C   UNL     1       0.613   2.677  19.973  0.00  0.00    +0.000 A 
ATOM     23  C   UNL     1       1.709   2.714  20.838  0.00  0.00    +0.000 A 
ATOM     24  F   UNL     1       1.526   2.607  22.178  0.00  0.00    +0.000 F 
ATOM     25  C   UNL     1       2.997   2.867  20.325  0.00  0.00    +0.000 A 
ENDBRANCH  18  19
ENDBRANCH  16  18
ENDBRANCH  15  16
ENDBRANCH  14  15
ENDBRANCH   8  14
TORSDOF 5
ENDMDL
MODEL 5
REMARK VINA RESULT:      -7.3      4.695      5.753
REMARK  Name = 
REMARK  5 active torsions:
REMARK  status: ('A' for Active; 'I' for Inactive)
REMARK    1  A    between atoms: C_8  and  C_9
REMARK    2  A    between atoms: C_9  and  C_10
REMARK    3  A    between atoms: C_10  and  N_11
REMARK    4  A    between atoms: N_11  and  C_12
REMARK    5  A    between atoms: C_12  and  C_13
REMARK                            x       y       z     vdW  Elec       q    Type
REMARK                         _______ _______ _______ _____ _____    ______ ____
ROOT
ATOM      1  N   UNL     1       7.700   5.372  14.600  0.00  0.00    +0.000 N 
ATOM      2  C   UNL     1       6.556   5.208  15.413  0.00  0.00    +0.000 A 
ATOM      3  C   UNL     1       6.106   3.928  15.766  0.00  0.00    +0.000 A 
ATOM      4  C   UNL     1       4.968   3.794  16.567  0.00  0.00    +0.000 A 
ATOM      5  C   UNL     1       4.289   4.936  17.006  0.00  0.00    +0.000 A 
ATOM      6  C   UNL     1       3.139   4.841  17.799  0.00  0.00    +0.000 A 
ATOM      7  C   UNL     1       2.478   6.002  18.209  0.00  0.00    +0.000 A 
ATOM      8  C   UNL     1       2.965   7.268  17.834  0.00  0.00    +0.000 A 
ATOM      9  C   UNL     1       4.119   7.363  17.046  0.00  0.00    +0.000 A 
ATOM     10  C   UNL     1       4.779   6.207  16.631  0.00  0.00    +0.000 A 
ATOM     11  N   UNL     1       5.887   6.305  15.852  0.00  0.00    +0.000 NA
ATOM     12  H   UNL     1       8.224   4.556  14.252  0.00  0.00    +0.000 HD
ATOM     13  H   UNL     1       8.018   6.318  14.341  0.00  0.00    +0.000 HD
ENDROOT
BRANCH   8  14
ATOM     14  C   UNL     1       2.222   8.510  18.221  0.00  0.00    +0.000 C 
BRANCH  14  15
ATOM     15  C   UNL     1       1.646   8.454  19.652  0.00  0.00    +0.000 C 
BRANCH  15  16
ATOM     16  N   UNL     1       0.681   9.539  19.903  0.00  0.00    +0.000 NA
ATOM     17  H   UNL     1       0.999  10.105  20.725  0.00  0.00    +0.000 HD
BRANCH  16  18
ATOM     18  C   UNL     1       0.506  10.407  18.729  0.00  0.00    +0.000 C 
BRANCH  18  19
ATOM     19  C   UNL     1      -0.941  10.553  18.370  0.00  0.00    +0.000 A 
ATOM     20  C   UNL     1      -1.492   9.814  17.314  0.00  0.00    +0.000 A 
ATOM     21  C   UNL     1      -2.837   9.977  16.971  0.00  0.00    +0.000 A 
ATOM     22  C   UNL     1      -3.641  10.875  17.683  0.00  0.00    +0.000 A 
ATOM     23  C   UNL     1      -3.099  11.610  18.740  0.00  0.00    +0.000 A 
ATOM     24  F   UNL     1      -3.873  12.484  19.430  0.00  0.00    +0.000 F 
ATOM     25  C   UNL     1      -1.756  11.451  19.084  0.00  0.00    +0.000 A 
ENDBRANCH  18  19
ENDBRANCH  16  18
ENDBRANCH  15  16
ENDBRANCH  14  15
ENDBRANCH   8  14
TORSDOF 5
ENDMDL
MODEL 6
REMARK VINA RESULT:      -7.3      2.950      3.936
REMARK  Name = 
REMARK  5 active torsions:
REMARK  status: ('A' for Active; 'I' for Inactive)
REMARK    1  A    between atoms: C_8  and  C_9
REMARK    2  A    between atoms: C_9  and  C_10
REMARK    3  A    between atoms: C_10  and  N_11
REMARK    4  A    between atoms: N_11  and  C_12
REMARK    5  A    between atoms: C_12  and  C_13
REMARK                            x       y       z     vdW  Elec       q    Type
REMARK                         _______ _______ _______ _____ _____    ______ ____
ROOT
ATOM      1  N   UNL     1       8.958   5.100  20.151  0.00  0.00    +0.000 N 
ATOM      2  C   UNL     1       7.835   5.039  19.295  0.00  0.00    +0.000 A 
ATOM      3  C   UNL     1       7.971   4.622  17.963  0.00  0.00    +0.000 A 
ATOM      4  C   UNL     1       6.844   4.577  17.137  0.00  0.00    +0.000 A 
ATOM      5  C   UNL     1       5.595   4.948  17.644  0.00  0.00    +0.000 A 
ATOM      6  C   UNL     1       4.446   4.928  16.843  0.00  0.00    +0.000 A 
ATOM      7  C   UNL     1       3.216   5.319  17.379  0.00  0.00    +0.000 A 
ATOM      8  C   UNL     1       3.123   5.727  18.722  0.00  0.00    +0.000 A 
ATOM      9  C   UNL     1       4.271   5.742  19.525  0.00  0.00    +0.000 A 
ATOM     10  C   UNL     1       5.501   5.358  18.993  0.00  0.00    +0.000 A 
ATOM     11  N   UNL     1       6.613   5.392  19.772  0.00  0.00    +0.000 NA
ATOM     12  H   UNL     1       9.896   4.840  19.813  0.00  0.00    +0.000 HD
ATOM     13  H   UNL     1       8.847   5.414  21.126  0.00  0.00    +0.000 HD
ENDROOT
BRANCH   8  14
ATOM     14  C   UNL     1       1.816   6.205  19.280  0.00  0.00    +0.000 C 
BRANCH  14  15
ATOM     15  C   UNL     1       1.470   5.574  20.644  0.00  0.00    +0.000 C 
BRANCH  15  16
ATOM     16  N   UNL     1       0.458   4.509  20.520  0.00  0.00    +0.000 NA
ATOM     17  H   UNL     1       0.149   4.437  19.521  0.00  0.00    +0.000 HD
BRANCH  16  18
ATOM     18  C   UNL     1       0.961   3.210  20.988  0.00  0.00    +0.000 C 
BRANCH  18  19
ATOM     19  C   UNL     1       1.971   2.642  20.038  0.00  0.00    +0.000 A 
ATOM     20  C   UNL     1       1.622   2.359  18.711  0.00  0.00    +0.000 A 
ATOM     21  C   UNL     1       2.564   1.806  17.841  0.00  0.00    +0.000 A 
ATOM     22  C   UNL     1       3.862   1.536  18.288  0.00  0.00    +0.000 A 
ATOM     23  C   UNL     1       4.218   1.820  19.609  0.00  0.00    +0.000 A 
ATOM     24  F   UNL     1       5.474   1.558  20.049  0.00  0.00    +0.000 F 
ATOM     25  C   UNL     1       3.279   2.371  20.481  0.00  0.00    +0.000 A 
ENDBRANCH  18  19
ENDBRANCH  16  18
ENDBRANCH  15  16
ENDBRANCH  14  15
ENDBRANCH   8  14
TORSDOF 5
ENDMDL
MODEL 7
REMARK VINA RESULT:      -7.2      2.485      3.609
REMARK  Name = 
REMARK  5 active torsions:
REMARK  status: ('A' for Active; 'I' for Inactive)
REMARK    1  A    between atoms: C_8  and  C_9
REMARK    2  A    between atoms: C_9  and  C_10
REMARK    3  A    between atoms: C_10  and  N_11
REMARK    4  A    between atoms: N_11  and  C_12
REMARK    5  A    between atoms: C_12  and  C_13
REMARK                            x       y       z     vdW  Elec       q    Type
REMARK                         _______ _______ _______ _____ _____    ______ ____
ROOT
ATOM      1  N   UNL     1       7.350   7.723  17.027  0.00  0.00    +0.000 N 
ATOM      2  C   UNL     1       6.544   6.563  17.004  0.00  0.00    +0.000 A 
ATOM      3  C   UNL     1       6.029   6.072  15.796  0.00  0.00    +0.000 A 
ATOM      4  C   UNL     1       5.228   4.926  15.803  0.00  0.00    +0.000 A 
ATOM      5  C   UNL     1       4.946   4.283  17.012  0.00  0.00    +0.000 A 
ATOM      6  C   UNL     1       4.138   3.140  17.060  0.00  0.00    +0.000 A 
ATOM      7  C   UNL     1       3.865   2.531  18.288  0.00  0.00    +0.000 A 
ATOM      8  C   UNL     1       4.404   3.054  19.477  0.00  0.00    +0.000 A 
ATOM      9  C   UNL     1       5.217   4.193  19.429  0.00  0.00    +0.000 A 
ATOM     10  C   UNL     1       5.488   4.808  18.207  0.00  0.00    +0.000 A 
ATOM     11  N   UNL     1       6.262   5.923  18.169  0.00  0.00    +0.000 NA
ATOM     12  H   UNL     1       7.577   8.228  16.159  0.00  0.00    +0.000 HD
ATOM     13  H   UNL     1       7.718   8.078  17.923  0.00  0.00    +0.000 HD
ENDROOT
BRANCH   8  14
ATOM     14  C   UNL     1       4.062   2.437  20.799  0.00  0.00    +0.000 C 
BRANCH  14  15
ATOM     15  C   UNL     1       2.549   2.194  20.983  0.00  0.00    +0.000 C 
BRANCH  15  16
ATOM     16  N   UNL     1       1.833   3.424  21.367  0.00  0.00    +0.000 NA
ATOM     17  H   UNL     1       2.526   4.155  21.653  0.00  0.00    +0.000 HD
BRANCH  16  18
ATOM     18  C   UNL     1       0.984   3.931  20.279  0.00  0.00    +0.000 C 
BRANCH  18  19
ATOM     19  C   UNL     1       1.441   5.280  19.815  0.00  0.00    +0.000 A 
ATOM     20  C   UNL     1       1.878   5.471  18.497  0.00  0.00    +0.000 A 
ATOM     21  C   UNL     1       2.326   6.728  18.083  0.00  0.00    +0.000 A 
ATOM     22  C   UNL     1       2.336   7.803  18.979  0.00  0.00    +0.000 A 
ATOM     23  C   UNL     1       1.898   7.620  20.293  0.00  0.00    +0.000 A 
ATOM     24  F   UNL     1       1.909   8.657  21.166  0.00  0.00    +0.000 F 
ATOM     25  C   UNL     1       1.451   6.366  20.711  0.00  0.00    +0.000 A 
ENDBRANCH  18  19
ENDBRANCH  16  18
ENDBRANCH  15  16
ENDBRANCH  14  15
ENDBRANCH   8  14
TORSDOF 5
ENDMDL
MODEL 8
REMARK VINA RESULT:      -7.2      3.273      7.006
REMARK  Name = 
REMARK  5 active torsions:
REMARK  status: ('A' for Active; 'I' for Inactive)
REMARK    1  A    between atoms: C_8  and  C_9
REMARK    2  A    between atoms: C_9  and  C_10
REMARK    3  A    between atoms: C_10  and  N_11
REMARK    4  A    between atoms: N_11  and  C_12
REMARK    5  A    between atoms: C_12  and  C_13
REMARK                            x       y       z     vdW  Elec       q    Type
REMARK                         _______ _______ _______ _____ _____    ______ ____
ROOT
ATOM      1  N   UNL     1      -0.726   9.731  23.141  0.00  0.00    +0.000 N 
ATOM      2  C   UNL     1      -0.162   9.607  21.851  0.00  0.00    +0.000 A 
ATOM      3  C   UNL     1      -0.526  10.488  20.823  0.00  0.00    +0.000 A 
ATOM      4  C   UNL     1       0.042  10.339  19.554  0.00  0.00    +0.000 A 
ATOM      5  C   UNL     1       0.965   9.314  19.323  0.00  0.00    +0.000 A 
ATOM      6  C   UNL     1       1.546   9.126  18.062  0.00  0.00    +0.000 A 
ATOM      7  C   UNL     1       2.454   8.083  17.862  0.00  0.00    +0.000 A 
ATOM      8  C   UNL     1       2.794   7.223  18.922  0.00  0.00    +0.000 A 
ATOM      9  C   UNL     1       2.218   7.415  20.185  0.00  0.00    +0.000 A 
ATOM     10  C   UNL     1       1.307   8.451  20.387  0.00  0.00    +0.000 A 
ATOM     11  N   UNL     1       0.739   8.620  21.609  0.00  0.00    +0.000 NA
ATOM     12  H   UNL     1      -1.413  10.469  23.350  0.00  0.00    +0.000 HD
ATOM     13  H   UNL     1      -0.455   9.073  23.888  0.00  0.00    +0.000 HD
ENDROOT
BRANCH   8  14
ATOM     14  C   UNL     1       3.721   6.067  18.693  0.00  0.00    +0.000 C 
BRANCH  14  15
ATOM     15  C   UNL     1       3.811   5.645  17.212  0.00  0.00    +0.000 C 
BRANCH  15  16
ATOM     16  N   UNL     1       3.950   4.186  17.060  0.00  0.00    +0.000 NA
ATOM     17  H   UNL     1       4.651   3.828  17.752  0.00  0.00    +0.000 HD
BRANCH  16  18
ATOM     18  C   UNL     1       2.668   3.487  17.233  0.00  0.00    +0.000 C 
BRANCH  18  19
ATOM     19  C   UNL     1       2.377   3.233  18.680  0.00  0.00    +0.000 A 
ATOM     20  C   UNL     1       1.137   3.587  19.231  0.00  0.00    +0.000 A 
ATOM     21  C   UNL     1       0.886   3.368  20.588  0.00  0.00    +0.000 A 
ATOM     22  C   UNL     1       1.867   2.792  21.402  0.00  0.00    +0.000 A 
ATOM     23  C   UNL     1       3.103   2.433  20.858  0.00  0.00    +0.000 A 
ATOM     24  F   UNL     1       4.058   1.877  21.644  0.00  0.00    +0.000 F 
ATOM     25  C   UNL     1       3.358   2.651  19.504  0.00  0.00    +0.000 A 
ENDBRANCH  18  19
ENDBRANCH  16  18
ENDBRANCH  15  16
ENDBRANCH  14  15
ENDBRANCH   8  14
TORSDOF 5
ENDMDL
MODEL 9
REMARK VINA RESULT:      -7.1      2.874      4.048
REMARK  Name = 
REMARK  5 active torsions:
REMARK  status: ('A' for Active; 'I' for Inactive)
REMARK    1  A    between atoms: C_8  and  C_9
REMARK    2  A    between atoms: C_9  and  C_10
REMARK    3  A    between atoms: C_10  and  N_11
REMARK    4  A    between atoms: N_11  and  C_12
REMARK    5  A    between atoms: C_12  and  C_13
REMARK                            x       y       z     vdW  Elec       q    Type
REMARK                         _______ _______ _______ _____ _____    ______ ____
ROOT
ATOM      1  N   UNL     1       8.392   7.068  19.191  0.00  0.00    +0.000 N 
ATOM      2  C   UNL     1       7.465   6.264  18.490  0.00  0.00    +0.000 A 
ATOM      3  C   UNL     1       7.304   6.399  17.104  0.00  0.00    +0.000 A 
ATOM      4  C   UNL     1       6.375   5.596  16.437  0.00  0.00    +0.000 A 
ATOM      5  C   UNL     1       5.614   4.669  17.156  0.00  0.00    +0.000 A 
ATOM      6  C   UNL     1       4.665   3.856  16.524  0.00  0.00    +0.000 A 
ATOM      7  C   UNL     1       3.912   2.950  17.276  0.00  0.00    +0.000 A 
ATOM      8  C   UNL     1       4.107   2.845  18.665  0.00  0.00    +0.000 A 
ATOM      9  C   UNL     1       5.060   3.653  19.297  0.00  0.00    +0.000 A 
ATOM     10  C   UNL     1       5.810   4.563  18.552  0.00  0.00    +0.000 A 
ATOM     11  N   UNL     1       6.720   5.356  19.173  0.00  0.00    +0.000 NA
ATOM     12  H   UNL     1       8.967   7.766  18.698  0.00  0.00    +0.000 HD
ATOM     13  H   UNL     1       8.497   6.965  20.212  0.00  0.00    +0.000 HD
ENDROOT
BRANCH   8  14
ATOM     14  C   UNL     1       3.257   1.918  19.481  0.00  0.00    +0.000 C 
BRANCH  14  15
ATOM     15  C   UNL     1       2.766   2.547  20.802  0.00  0.00    +0.000 C 
BRANCH  15  16
ATOM     16  N   UNL     1       1.311   2.780  20.796  0.00  0.00    +0.000 NA
ATOM     17  H   UNL     1       1.037   3.292  21.669  0.00  0.00    +0.000 HD
BRANCH  16  18
ATOM     18  C   UNL     1       0.876   3.533  19.611  0.00  0.00    +0.000 C 
BRANCH  18  19
ATOM     19  C   UNL     1       1.407   4.934  19.630  0.00  0.00    +0.000 A 
ATOM     20  C   UNL     1       1.300   5.722  20.785  0.00  0.00    +0.000 A 
ATOM     21  C   UNL     1       1.775   7.035  20.784  0.00  0.00    +0.000 A 
ATOM     22  C   UNL     1       2.364   7.570  19.632  0.00  0.00    +0.000 A 
ATOM     23  C   UNL     1       2.478   6.788  18.479  0.00  0.00    +0.000 A 
ATOM     24  F   UNL     1       3.045   7.303  17.360  0.00  0.00    +0.000 F 
ATOM     25  C   UNL     1       2.003   5.477  18.477  0.00  0.00    +0.000 A 
ENDBRANCH  18  19
ENDBRANCH  16  18
ENDBRANCH  15  16
ENDBRANCH  14  15
ENDBRANCH   8  14
TORSDOF 5
ENDMDL
