MODEL 1
REMARK VINA RESULT:      -7.3      0.000      0.000
REMARK  Name = 
REMARK  5 active torsions:
REMARK  status: ('A' for Active; 'I' for Inactive)
REMARK    1  A    between atoms: C_2  and  C_19
REMARK    2  A    between atoms: N_3  and  C_4
REMARK    3  A    between atoms: C_4  and  N_6
REMARK    4  A    between atoms: N_9  and  C_10
REMARK    5  A    between atoms: C_10  and  C_11
REMARK                            x       y       z     vdW  Elec       q    Type
REMARK                         _______ _______ _______ _____ _____    ______ ____
ROOT
ATOM      1  N   UNL     1       4.496   5.360  18.513  0.00  0.00    +0.000 N 
ATOM      2  C   UNL     1       4.223   5.271  17.070  0.00  0.00    +0.000 C 
ATOM      3  C   UNL     1       5.115   6.224  16.236  0.00  0.00    +0.000 C 
ATOM      4  N   UNL     1       6.564   6.148  16.539  0.00  0.00    +0.000 NA
ATOM      5  C   UNL     1       6.738   6.343  17.996  0.00  0.00    +0.000 C 
ATOM      6  C   UNL     1       5.930   5.367  18.865  0.00  0.00    +0.000 C 
ENDROOT
BRANCH   1   7
ATOM      7  C   UNL     1       3.503   5.272  19.502  0.00  0.00    +0.000 C 
ATOM      8  S   UNL     1       3.036   3.807  20.173  0.00  0.00    +0.000 S 
BRANCH   7  11
ATOM      9  O   UNL     1       0.978   6.051  20.965  0.00  0.00    +0.000 OA
ATOM     10  C   UNL     1       1.790   6.845  20.510  0.00  0.00    +0.000 C 
ATOM     11  N   UNL     1       2.981   6.523  19.851  0.00  0.00    +0.000 N 
ATOM     12  H   UNL     1       3.420   7.281  19.357  0.00  0.00    +0.000 HD
BRANCH  10  13
ATOM     13  C   UNL     1       1.476   8.290  20.638  0.00  0.00    +0.000 A 
ATOM     14  C   UNL     1       1.277   9.045  19.478  0.00  0.00    +0.000 A 
ATOM     15  C   UNL     1       0.930  10.391  19.580  0.00  0.00    +0.000 A 
ATOM     16  C   UNL     1       0.796  10.937  20.844  0.00  0.00    +0.000 A 
ATOM     17  N   UNL     1       0.984  10.240  21.988  0.00  0.00    +0.000 NA
ATOM     18  C   UNL     1       1.304   8.929  21.858  0.00  0.00    +0.000 A 
ENDBRANCH  10  13
ENDBRANCH   7  11
ENDBRANCH   1   7
BRANCH   4  19
ATOM     19  C   UNL     1       7.129   4.883  16.036  0.00  0.00    +0.000 C 
BRANCH  19  20
ATOM     20  C   UNL     1       7.013   4.667  14.542  0.00  0.00    +0.000 A 
ATOM     21  C   UNL     1       7.789   5.434  13.656  0.00  0.00    +0.000 A 
ATOM     22  C   UNL     1       7.730   5.210  12.282  0.00  0.00    +0.000 A 
ATOM     23  C   UNL     1       6.901   4.214  11.773  0.00  0.00    +0.000 A 
ATOM     24  C   UNL     1       6.124   3.448  12.639  0.00  0.00    +0.000 A 
ATOM     25  C   UNL     1       6.177   3.673  14.017  0.00  0.00    +0.000 A 
ENDBRANCH  19  20
ENDBRANCH   4  19
TORSDOF 5
ENDMDL
MODEL 2
REMARK VINA RESULT:      -7.2      2.150      8.556
REMARK  Name = 
REMARK  5 active torsions:
REMARK  status: ('A' for Active; 'I' for Inactive)
REMARK    1  A    between atoms: C_2  and  C_19
REMARK    2  A    between atoms: N_3  and  C_4
REMARK    3  A    between atoms: C_4  and  N_6
REMARK    4  A    between atoms: N_9  and  C_10
REMARK    5  A    between atoms: C_10  and  C_11
REMARK                            x       y       z     vdW  Elec       q    Type
REMARK                         _______ _______ _______ _____ _____    ______ ____
ROOT
ATOM      1  N   UNL     1       3.450   4.667  19.735  0.00  0.00    +0.000 N 
ATOM      2  C   UNL     1       3.618   6.026  19.197  0.00  0.00    +0.000 C 
ATOM      3  C   UNL     1       2.265   6.740  18.954  0.00  0.00    +0.000 C 
ATOM      4  N   UNL     1       1.324   6.702  20.099  0.00  0.00    +0.000 NA
ATOM      5  C   UNL     1       1.153   5.288  20.503  0.00  0.00    +0.000 C 
ATOM      6  C   UNL     1       2.464   4.559  20.829  0.00  0.00    +0.000 C 
ENDROOT
BRANCH   1   7
ATOM      7  C   UNL     1       4.267   3.581  19.381  0.00  0.00    +0.000 C 
ATOM      8  S   UNL     1       4.429   2.226  20.357  0.00  0.00    +0.000 S 
BRANCH   7  11
ATOM      9  O   UNL     1       6.994   4.666  18.666  0.00  0.00    +0.000 OA
ATOM     10  C   UNL     1       6.158   4.296  17.852  0.00  0.00    +0.000 C 
ATOM     11  N   UNL     1       4.897   3.765  18.144  0.00  0.00    +0.000 N 
ATOM     12  H   UNL     1       4.260   3.715  17.369  0.00  0.00    +0.000 HD
BRANCH  10  13
ATOM     13  C   UNL     1       6.492   4.451  16.415  0.00  0.00    +0.000 A 
ATOM     14  C   UNL     1       5.789   3.697  15.470  0.00  0.00    +0.000 A 
ATOM     15  C   UNL     1       6.053   3.868  14.113  0.00  0.00    +0.000 A 
ATOM     16  C   UNL     1       7.018   4.789  13.746  0.00  0.00    +0.000 A 
ATOM     17  N   UNL     1       7.721   5.533  14.629  0.00  0.00    +0.000 NA
ATOM     18  C   UNL     1       7.430   5.358  15.942  0.00  0.00    +0.000 A 
ENDBRANCH  10  13
ENDBRANCH   7  11
ENDBRANCH   1   7
BRANCH   4  19
ATOM     19  C   UNL     1       1.801   7.577  21.185  0.00  0.00    +0.000 C 
BRANCH  19  20
ATOM     20  C   UNL     1       0.945   8.794  21.463  0.00  0.00    +0.000 A 
ATOM     21  C   UNL     1       0.573   9.651  20.412  0.00  0.00    +0.000 A 
ATOM     22  C   UNL     1      -0.257  10.745  20.647  0.00  0.00    +0.000 A 
ATOM     23  C   UNL     1      -0.733  10.997  21.931  0.00  0.00    +0.000 A 
ATOM     24  C   UNL     1      -0.370  10.158  22.983  0.00  0.00    +0.000 A 
ATOM     25  C   UNL     1       0.466   9.063  22.752  0.00  0.00    +0.000 A 
ENDBRANCH  19  20
ENDBRANCH   4  19
TORSDOF 5
ENDMDL
MODEL 3
REMARK VINA RESULT:      -7.1      0.933      1.252
REMARK  Name = 
REMARK  5 active torsions:
REMARK  status: ('A' for Active; 'I' for Inactive)
REMARK    1  A    between atoms: C_2  and  C_19
REMARK    2  A    between atoms: N_3  and  C_4
REMARK    3  A    between atoms: C_4  and  N_6
REMARK    4  A    between atoms: N_9  and  C_10
REMARK    5  A    between atoms: C_10  and  C_11
REMARK                            x       y       z     vdW  Elec       q    Type
REMARK                         _______ _______ _______ _____ _____    ______ ____
ROOT
ATOM      1  N   UNL     1       4.525   5.049  18.571  0.00  0.00    +0.000 N 
ATOM      2  C   UNL     1       4.247   4.907  17.132  0.00  0.00    +0.000 C 
ATOM      3  C   UNL     1       4.973   5.976  16.279  0.00  0.00    +0.000 C 
ATOM      4  N   UNL     1       6.421   6.122  16.558  0.00  0.00    +0.000 NA
ATOM      5  C   UNL     1       6.585   6.353  18.011  0.00  0.00    +0.000 C 
ATOM      6  C   UNL     1       5.947   5.275  18.899  0.00  0.00    +0.000 C 
ENDROOT
BRANCH   1   7
ATOM      7  C   UNL     1       3.571   4.821  19.576  0.00  0.00    +0.000 C 
ATOM      8  S   UNL     1       3.304   3.298  20.227  0.00  0.00    +0.000 S 
BRANCH   7  11
ATOM      9  O   UNL     1       1.971   6.825  17.980  0.00  0.00    +0.000 OA
ATOM     10  C   UNL     1       2.191   6.910  19.181  0.00  0.00    +0.000 C 
ATOM     11  N   UNL     1       2.904   5.991  19.958  0.00  0.00    +0.000 N 
ATOM     12  H   UNL     1       3.174   6.315  20.871  0.00  0.00    +0.000 HD
BRANCH  10  13
ATOM     13  C   UNL     1       1.684   8.115  19.883  0.00  0.00    +0.000 A 
ATOM     14  C   UNL     1       1.540   8.080  21.273  0.00  0.00    +0.000 A 
ATOM     15  C   UNL     1       1.115   9.218  21.954  0.00  0.00    +0.000 A 
ATOM     16  C   UNL     1       0.845  10.358  21.216  0.00  0.00    +0.000 A 
ATOM     17  N   UNL     1       0.969  10.430  19.872  0.00  0.00    +0.000 NA
ATOM     18  C   UNL     1       1.400   9.311  19.238  0.00  0.00    +0.000 A 
ENDBRANCH  10  13
ENDBRANCH   7  11
ENDBRANCH   1   7
BRANCH   4  19
ATOM     19  C   UNL     1       7.162   4.952  16.055  0.00  0.00    +0.000 C 
BRANCH  19  20
ATOM     20  C   UNL     1       7.033   4.691  14.569  0.00  0.00    +0.000 A 
ATOM     21  C   UNL     1       7.799   5.431  13.653  0.00  0.00    +0.000 A 
ATOM     22  C   UNL     1       7.728   5.165  12.287  0.00  0.00    +0.000 A 
ATOM     23  C   UNL     1       6.896   4.152  11.816  0.00  0.00    +0.000 A 
ATOM     24  C   UNL     1       6.127   3.412  12.712  0.00  0.00    +0.000 A 
ATOM     25  C   UNL     1       6.193   3.680  14.082  0.00  0.00    +0.000 A 
ENDBRANCH  19  20
ENDBRANCH   4  19
TORSDOF 5
ENDMDL
MODEL 4
REMARK VINA RESULT:      -7.1      2.500      8.498
REMARK  Name = 
REMARK  5 active torsions:
REMARK  status: ('A' for Active; 'I' for Inactive)
REMARK    1  A    between atoms: C_2  and  C_19
REMARK    2  A    between atoms: N_3  and  C_4
REMARK    3  A    between atoms: C_4  and  N_6
REMARK    4  A    between atoms: N_9  and  C_10
REMARK    5  A    between atoms: C_10  and  C_11
REMARK                            x       y       z     vdW  Elec       q    Type
REMARK                         _______ _______ _______ _____ _____    ______ ____
ROOT
ATOM      1  N   UNL     1       2.197   7.541  19.241  0.00  0.00    +0.000 N 
ATOM      2  C   UNL     1       2.410   8.297  17.996  0.00  0.00    +0.000 C 
ATOM      3  C   UNL     1       1.248   9.273  17.688  0.00  0.00    +0.000 C 
ATOM      4  N   UNL     1       0.851  10.149  18.817  0.00  0.00    +0.000 NA
ATOM      5  C   UNL     1       0.569   9.287  19.987  0.00  0.00    +0.000 C 
ATOM      6  C   UNL     1       1.725   8.355  20.379  0.00  0.00    +0.000 C 
ENDROOT
BRANCH   1   7
ATOM      7  C   UNL     1       2.567   6.196  19.410  0.00  0.00    +0.000 C 
ATOM      8  S   UNL     1       1.910   5.232  20.615  0.00  0.00    +0.000 S 
BRANCH   7  11
ATOM      9  O   UNL     1       5.443   5.325  19.712  0.00  0.00    +0.000 OA
ATOM     10  C   UNL     1       4.850   5.404  18.645  0.00  0.00    +0.000 C 
ATOM     11  N   UNL     1       3.514   5.779  18.467  0.00  0.00    +0.000 N 
ATOM     12  H   UNL     1       3.249   5.999  17.523  0.00  0.00    +0.000 HD
BRANCH  10  13
ATOM     13  C   UNL     1       5.622   5.108  17.413  0.00  0.00    +0.000 A 
ATOM     14  C   UNL     1       4.983   5.203  16.173  0.00  0.00    +0.000 A 
ATOM     15  C   UNL     1       5.705   4.979  15.003  0.00  0.00    +0.000 A 
ATOM     16  C   UNL     1       7.048   4.664  15.115  0.00  0.00    +0.000 A 
ATOM     17  N   UNL     1       7.700   4.560  16.295  0.00  0.00    +0.000 NA
ATOM     18  C   UNL     1       6.975   4.800  17.415  0.00  0.00    +0.000 A 
ENDBRANCH  10  13
ENDBRANCH   7  11
ENDBRANCH   1   7
BRANCH   4  19
ATOM     19  C   UNL     1       1.886  11.169  19.064  0.00  0.00    +0.000 C 
BRANCH  19  20
ATOM     20  C   UNL     1       1.424  12.606  18.945  0.00  0.00    +0.000 A 
ATOM     21  C   UNL     1       0.056  12.918  19.028  0.00  0.00    +0.000 A 
ATOM     22  C   UNL     1      -0.376  14.241  18.972  0.00  0.00    +0.000 A 
ATOM     23  C   UNL     1       0.550  15.273  18.839  0.00  0.00    +0.000 A 
ATOM     24  C   UNL     1       1.909  14.978  18.753  0.00  0.00    +0.000 A 
ATOM     25  C   UNL     1       2.346  13.652  18.804  0.00  0.00    +0.000 A 
ENDBRANCH  19  20
ENDBRANCH   4  19
TORSDOF 5
ENDMDL
MODEL 5
REMARK VINA RESULT:      -7.1      0.621      1.412
REMARK  Name = 
REMARK  5 active torsions:
REMARK  status: ('A' for Active; 'I' for Inactive)
REMARK    1  A    between atoms: C_2  and  C_19
REMARK    2  A    between atoms: N_3  and  C_4
REMARK    3  A    between atoms: C_4  and  N_6
REMARK    4  A    between atoms: N_9  and  C_10
REMARK    5  A    between atoms: C_10  and  C_11
REMARK                            x       y       z     vdW  Elec       q    Type
REMARK                         _______ _______ _______ _____ _____    ______ ____
ROOT
ATOM      1  N   UNL     1       4.704   5.268  18.443  0.00  0.00    +0.000 N 
ATOM      2  C   UNL     1       4.396   5.079  17.016  0.00  0.00    +0.000 C 
ATOM      3  C   UNL     1       5.155   6.078  16.108  0.00  0.00    +0.000 C 
ATOM      4  N   UNL     1       6.613   6.168  16.360  0.00  0.00    +0.000 NA
ATOM      5  C   UNL     1       6.811   6.451  17.799  0.00  0.00    +0.000 C 
ATOM      6  C   UNL     1       6.140   5.441  18.741  0.00  0.00    +0.000 C 
ENDROOT
BRANCH   1   7
ATOM      7  C   UNL     1       3.757   5.126  19.471  0.00  0.00    +0.000 C 
ATOM      8  S   UNL     1       3.456   3.651  20.212  0.00  0.00    +0.000 S 
BRANCH   7  11
ATOM      9  O   UNL     1       1.123   5.715  20.826  0.00  0.00    +0.000 OA
ATOM     10  C   UNL     1       1.892   6.567  20.402  0.00  0.00    +0.000 C 
ATOM     11  N   UNL     1       3.129   6.335  19.792  0.00  0.00    +0.000 N 
ATOM     12  H   UNL     1       3.530   7.123  19.313  0.00  0.00    +0.000 HD
BRANCH  10  13
ATOM     13  C   UNL     1       1.465   7.984  20.509  0.00  0.00    +0.000 A 
ATOM     14  C   UNL     1       1.141   8.501  21.768  0.00  0.00    +0.000 A 
ATOM     15  C   UNL     1       0.789   9.843  21.895  0.00  0.00    +0.000 A 
ATOM     16  C   UNL     1       0.769  10.624  20.753  0.00  0.00    +0.000 A 
ATOM     17  N   UNL     1       1.072  10.160  19.519  0.00  0.00    +0.000 NA
ATOM     18  C   UNL     1       1.427   8.855  19.429  0.00  0.00    +0.000 A 
ENDBRANCH  10  13
ENDBRANCH   7  11
ENDBRANCH   1   7
BRANCH   4  19
ATOM     19  C   UNL     1       7.291   4.945  15.895  0.00  0.00    +0.000 C 
BRANCH  19  20
ATOM     20  C   UNL     1       7.122   4.626  14.424  0.00  0.00    +0.000 A 
ATOM     21  C   UNL     1       6.205   3.644  14.016  0.00  0.00    +0.000 A 
ATOM     22  C   UNL     1       6.003   3.378  12.663  0.00  0.00    +0.000 A 
ATOM     23  C   UNL     1       6.709   4.093  11.698  0.00  0.00    +0.000 A 
ATOM     24  C   UNL     1       7.625   5.067  12.089  0.00  0.00    +0.000 A 
ATOM     25  C   UNL     1       7.833   5.333  13.445  0.00  0.00    +0.000 A 
ENDBRANCH  19  20
ENDBRANCH   4  19
TORSDOF 5
ENDMDL
MODEL 6
REMARK VINA RESULT:      -7.0      0.836      1.294
REMARK  Name = 
REMARK  5 active torsions:
REMARK  status: ('A' for Active; 'I' for Inactive)
REMARK    1  A    between atoms: C_2  and  C_19
REMARK    2  A    between atoms: N_3  and  C_4
REMARK    3  A    between atoms: C_4  and  N_6
REMARK    4  A    between atoms: N_9  and  C_10
REMARK    5  A    between atoms: C_10  and  C_11
REMARK                            x       y       z     vdW  Elec       q    Type
REMARK                         _______ _______ _______ _____ _____    ______ ____
ROOT
ATOM      1  N   UNL     1       4.596   5.117  18.504  0.00  0.00    +0.000 N 
ATOM      2  C   UNL     1       4.331   4.891  17.074  0.00  0.00    +0.000 C 
ATOM      3  C   UNL     1       4.989   5.964  16.171  0.00  0.00    +0.000 C 
ATOM      4  N   UNL     1       6.424   6.215  16.443  0.00  0.00    +0.000 NA
ATOM      5  C   UNL     1       6.568   6.524  17.884  0.00  0.00    +0.000 C 
ATOM      6  C   UNL     1       5.999   5.449  18.821  0.00  0.00    +0.000 C 
ENDROOT
BRANCH   1   7
ATOM      7  C   UNL     1       3.656   4.875  19.519  0.00  0.00    +0.000 C 
ATOM      8  S   UNL     1       3.398   3.344  20.153  0.00  0.00    +0.000 S 
BRANCH   7  11
ATOM      9  O   UNL     1       1.959   6.852  17.991  0.00  0.00    +0.000 OA
ATOM     10  C   UNL     1       2.235   6.946  19.180  0.00  0.00    +0.000 C 
ATOM     11  N   UNL     1       2.995   6.040  19.926  0.00  0.00    +0.000 N 
ATOM     12  H   UNL     1       3.304   6.372  20.824  0.00  0.00    +0.000 HD
BRANCH  10  13
ATOM     13  C   UNL     1       1.748   8.150  19.899  0.00  0.00    +0.000 A 
ATOM     14  C   UNL     1       1.393   9.283  19.161  0.00  0.00    +0.000 A 
ATOM     15  C   UNL     1       0.885  10.403  19.815  0.00  0.00    +0.000 A 
ATOM     16  C   UNL     1       0.752  10.352  21.192  0.00  0.00    +0.000 A 
ATOM     17  N   UNL     1       1.088   9.276  21.940  0.00  0.00    +0.000 NA
ATOM     18  C   UNL     1       1.563   8.195  21.274  0.00  0.00    +0.000 A 
ENDBRANCH  10  13
ENDBRANCH   7  11
ENDBRANCH   1   7
BRANCH   4  19
ATOM     19  C   UNL     1       7.240   5.073  15.994  0.00  0.00    +0.000 C 
BRANCH  19  20
ATOM     20  C   UNL     1       7.120   4.725  14.526  0.00  0.00    +0.000 A 
ATOM     21  C   UNL     1       6.221   3.730  14.106  0.00  0.00    +0.000 A 
ATOM     22  C   UNL     1       6.064   3.437  12.753  0.00  0.00    +0.000 A 
ATOM     23  C   UNL     1       6.798   4.138  11.798  0.00  0.00    +0.000 A 
ATOM     24  C   UNL     1       7.696   5.125  12.200  0.00  0.00    +0.000 A 
ATOM     25  C   UNL     1       7.859   5.417  13.557  0.00  0.00    +0.000 A 
ENDBRANCH  19  20
ENDBRANCH   4  19
TORSDOF 5
ENDMDL
MODEL 7
REMARK VINA RESULT:      -7.0      1.005      1.421
REMARK  Name = 
REMARK  5 active torsions:
REMARK  status: ('A' for Active; 'I' for Inactive)
REMARK    1  A    between atoms: C_2  and  C_19
REMARK    2  A    between atoms: N_3  and  C_4
REMARK    3  A    between atoms: C_4  and  N_6
REMARK    4  A    between atoms: N_9  and  C_10
REMARK    5  A    between atoms: C_10  and  C_11
REMARK                            x       y       z     vdW  Elec       q    Type
REMARK                         _______ _______ _______ _____ _____    ______ ____
ROOT
ATOM      1  N   UNL     1       3.668   5.395  18.837  0.00  0.00    +0.000 N 
ATOM      2  C   UNL     1       3.533   6.044  17.522  0.00  0.00    +0.000 C 
ATOM      3  C   UNL     1       4.903   6.346  16.867  0.00  0.00    +0.000 C 
ATOM      4  N   UNL     1       5.846   5.203  16.834  0.00  0.00    +0.000 NA
ATOM      5  C   UNL     1       5.983   4.683  18.213  0.00  0.00    +0.000 C 
ATOM      6  C   UNL     1       4.654   4.297  18.878  0.00  0.00    +0.000 C 
ENDROOT
BRANCH   1   7
ATOM      7  C   UNL     1       2.822   5.658  19.927  0.00  0.00    +0.000 C 
ATOM      8  S   UNL     1       2.327   4.455  20.986  0.00  0.00    +0.000 S 
BRANCH   7  11
ATOM      9  O   UNL     1       0.489   7.032  21.265  0.00  0.00    +0.000 OA
ATOM     10  C   UNL     1       1.362   7.607  20.629  0.00  0.00    +0.000 C 
ATOM     11  N   UNL     1       2.469   7.010  20.018  0.00  0.00    +0.000 N 
ATOM     12  H   UNL     1       2.965   7.588  19.362  0.00  0.00    +0.000 HD
BRANCH  10  13
ATOM     13  C   UNL     1       1.224   9.074  20.456  0.00  0.00    +0.000 A 
ATOM     14  C   UNL     1       1.191   9.605  19.163  0.00  0.00    +0.000 A 
ATOM     15  C   UNL     1       1.010  10.974  18.981  0.00  0.00    +0.000 A 
ATOM     16  C   UNL     1       0.872  11.770  20.105  0.00  0.00    +0.000 A 
ATOM     17  N   UNL     1       0.903  11.295  21.371  0.00  0.00    +0.000 NA
ATOM     18  C   UNL     1       1.063   9.956  21.516  0.00  0.00    +0.000 A 
ENDBRANCH  10  13
ENDBRANCH   7  11
ENDBRANCH   1   7
BRANCH   4  19
ATOM     19  C   UNL     1       5.395   4.193  15.860  0.00  0.00    +0.000 C 
BRANCH  19  20
ATOM     20  C   UNL     1       6.084   4.235  14.512  0.00  0.00    +0.000 A 
ATOM     21  C   UNL     1       5.584   3.479  13.439  0.00  0.00    +0.000 A 
ATOM     22  C   UNL     1       6.178   3.549  12.181  0.00  0.00    +0.000 A 
ATOM     23  C   UNL     1       7.277   4.379  11.974  0.00  0.00    +0.000 A 
ATOM     24  C   UNL     1       7.787   5.132  13.030  0.00  0.00    +0.000 A 
ATOM     25  C   UNL     1       7.195   5.060  14.295  0.00  0.00    +0.000 A 
ENDBRANCH  19  20
ENDBRANCH   4  19
TORSDOF 5
ENDMDL
MODEL 8
REMARK VINA RESULT:      -7.0      2.460      8.501
REMARK  Name = 
REMARK  5 active torsions:
REMARK  status: ('A' for Active; 'I' for Inactive)
REMARK    1  A    between atoms: C_2  and  C_19
REMARK    2  A    between atoms: N_3  and  C_4
REMARK    3  A    between atoms: C_4  and  N_6
REMARK    4  A    between atoms: N_9  and  C_10
REMARK    5  A    between atoms: C_10  and  C_11
REMARK                            x       y       z     vdW  Elec       q    Type
REMARK                         _______ _______ _______ _____ _____    ______ ____
ROOT
ATOM      1  N   UNL     1       2.155   7.580  19.289  0.00  0.00    +0.000 N 
ATOM      2  C   UNL     1       2.376   8.397  18.085  0.00  0.00    +0.000 C 
ATOM      3  C   UNL     1       1.209   9.378  17.811  0.00  0.00    +0.000 C 
ATOM      4  N   UNL     1       0.793  10.196  18.975  0.00  0.00    +0.000 NA
ATOM      5  C   UNL     1       0.506   9.277  20.099  0.00  0.00    +0.000 C 
ATOM      6  C   UNL     1       1.665   8.336  20.459  0.00  0.00    +0.000 C 
ENDROOT
BRANCH   1   7
ATOM      7  C   UNL     1       2.535   6.232  19.398  0.00  0.00    +0.000 C 
ATOM      8  S   UNL     1       1.912   5.220  20.581  0.00  0.00    +0.000 S 
BRANCH   7  11
ATOM      9  O   UNL     1       5.454   5.481  19.583  0.00  0.00    +0.000 OA
ATOM     10  C   UNL     1       4.816   5.536  18.540  0.00  0.00    +0.000 C 
ATOM     11  N   UNL     1       3.460   5.855  18.417  0.00  0.00    +0.000 N 
ATOM     12  H   UNL     1       3.148   6.065  17.484  0.00  0.00    +0.000 HD
BRANCH  10  13
ATOM     13  C   UNL     1       5.550   5.274  17.278  0.00  0.00    +0.000 A 
ATOM     14  C   UNL     1       4.952   4.473  16.300  0.00  0.00    +0.000 A 
ATOM     15  C   UNL     1       5.604   4.259  15.087  0.00  0.00    +0.000 A 
ATOM     16  C   UNL     1       6.839   4.853  14.895  0.00  0.00    +0.000 A 
ATOM     17  N   UNL     1       7.450   5.630  15.818  0.00  0.00    +0.000 NA
ATOM     18  C   UNL     1       6.785   5.834  16.981  0.00  0.00    +0.000 A 
ENDBRANCH  10  13
ENDBRANCH   7  11
ENDBRANCH   1   7
BRANCH   4  19
ATOM     19  C   UNL     1       1.816  11.210  19.282  0.00  0.00    +0.000 C 
BRANCH  19  20
ATOM     20  C   UNL     1       1.356  12.649  19.182  0.00  0.00    +0.000 A 
ATOM     21  C   UNL     1       2.271  13.699  19.377  0.00  0.00    +0.000 A 
ATOM     22  C   UNL     1       1.871  15.026  19.237  0.00  0.00    +0.000 A 
ATOM     23  C   UNL     1       0.555  15.325  18.894  0.00  0.00    +0.000 A 
ATOM     24  C   UNL     1      -0.364  14.295  18.701  0.00  0.00    +0.000 A 
ATOM     25  C   UNL     1       0.033  12.963  18.845  0.00  0.00    +0.000 A 
ENDBRANCH  19  20
ENDBRANCH   4  19
TORSDOF 5
ENDMDL
MODEL 9
REMARK VINA RESULT:      -7.0      1.231      1.914
REMARK  Name = 
REMARK  5 active torsions:
REMARK  status: ('A' for Active; 'I' for Inactive)
REMARK    1  A    between atoms: C_2  and  C_19
REMARK    2  A    between atoms: N_3  and  C_4
REMARK    3  A    between atoms: C_4  and  N_6
REMARK    4  A    between atoms: N_9  and  C_10
REMARK    5  A    between atoms: C_10  and  C_11
REMARK                            x       y       z     vdW  Elec       q    Type
REMARK                         _______ _______ _______ _____ _____    ______ ____
ROOT
ATOM      1  N   UNL     1       3.597   4.807  19.147  0.00  0.00    +0.000 N 
ATOM      2  C   UNL     1       4.890   5.509  19.110  0.00  0.00    +0.000 C 
ATOM      3  C   UNL     1       6.004   4.666  18.441  0.00  0.00    +0.000 C 
ATOM      4  N   UNL     1       5.644   4.084  17.126  0.00  0.00    +0.000 NA
ATOM      5  C   UNL     1       4.384   3.325  17.292  0.00  0.00    +0.000 C 
ATOM      6  C   UNL     1       3.226   4.142  17.882  0.00  0.00    +0.000 C 
ENDROOT
BRANCH   1   7
ATOM      7  C   UNL     1       2.694   4.891  20.219  0.00  0.00    +0.000 C 
ATOM      8  S   UNL     1       2.257   3.551  21.128  0.00  0.00    +0.000 S 
BRANCH   7  11
ATOM      9  O   UNL     1       2.046   7.120  18.287  0.00  0.00    +0.000 OA
ATOM     10  C   UNL     1       1.964   7.211  19.505  0.00  0.00    +0.000 C 
ATOM     11  N   UNL     1       2.231   6.195  20.429  0.00  0.00    +0.000 N 
ATOM     12  H   UNL     1       2.324   6.494  21.384  0.00  0.00    +0.000 HD
BRANCH  10  13
ATOM     13  C   UNL     1       1.578   8.529  20.066  0.00  0.00    +0.000 A 
ATOM     14  C   UNL     1       1.277   9.577  19.190  0.00  0.00    +0.000 A 
ATOM     15  C   UNL     1       0.862  10.806  19.699  0.00  0.00    +0.000 A 
ATOM     16  C   UNL     1       0.765  10.946  21.072  0.00  0.00    +0.000 A 
ATOM     17  N   UNL     1       1.052   9.958  21.950  0.00  0.00    +0.000 NA
ATOM     18  C   UNL     1       1.436   8.768  21.426  0.00  0.00    +0.000 A 
ENDBRANCH  10  13
ENDBRANCH   7  11
ENDBRANCH   1   7
BRANCH   4  19
ATOM     19  C   UNL     1       5.571   5.140  16.100  0.00  0.00    +0.000 C 
BRANCH  19  20
ATOM     20  C   UNL     1       6.108   4.759  14.736  0.00  0.00    +0.000 A 
ATOM     21  C   UNL     1       5.389   3.870  13.918  0.00  0.00    +0.000 A 
ATOM     22  C   UNL     1       5.846   3.552  12.641  0.00  0.00    +0.000 A 
ATOM     23  C   UNL     1       7.023   4.121  12.159  0.00  0.00    +0.000 A 
ATOM     24  C   UNL     1       7.748   5.001  12.961  0.00  0.00    +0.000 A 
ATOM     25  C   UNL     1       7.294   5.318  14.244  0.00  0.00    +0.000 A 
ENDBRANCH  19  20
ENDBRANCH   4  19
TORSDOF 5
ENDMDL
