MODEL 1
REMARK VINA RESULT:      -8.1      0.000      0.000
REMARK  Name = 
REMARK  4 active torsions:
REMARK  status: ('A' for Active; 'I' for Inactive)
REMARK    1  A    between atoms: C_2  and  C_11
REMARK    2  A    between atoms: N_3  and  C_4
REMARK    3  A    between atoms: C_4  and  C_5
REMARK    4  A    between atoms: C_16  and  C_17
REMARK                            x       y       z     vdW  Elec       q    Type
REMARK                         _______ _______ _______ _____ _____    ______ ____
ROOT
ATOM      1  C   UNL     1       2.605   5.028  20.054  0.00  0.00    +0.000 A 
ATOM      2  C   UNL     1       1.705   4.612  21.055  0.00  0.00    +0.000 A 
ATOM      3  C   UNL     1       1.796   3.341  21.619  0.00  0.00    +0.000 A 
ATOM      4  C   UNL     1       2.807   2.488  21.209  0.00  0.00    +0.000 A 
ATOM      5  C   UNL     1       3.739   2.913  20.259  0.00  0.00    +0.000 A 
ATOM      6  C   UNL     1       3.671   4.179  19.625  0.00  0.00    +0.000 A 
ENDROOT
BRANCH   6   7
ATOM      7  C   UNL     1       4.724   4.556  18.626  0.00  0.00    +0.000 A 
ATOM      8  C   UNL     1       5.875   5.261  19.055  0.00  0.00    +0.000 A 
ATOM      9  C   UNL     1       6.818   5.762  18.155  0.00  0.00    +0.000 A 
ATOM     10 CL   UNL     1       8.052   6.822  18.713  0.00  0.00    +0.000 Cl
ATOM     11  C   UNL     1       6.733   5.458  16.806  0.00  0.00    +0.000 A 
ATOM     12  C   UNL     1       5.664   4.694  16.351  0.00  0.00    +0.000 A 
ATOM     13  C   UNL     1       4.648   4.288  17.233  0.00  0.00    +0.000 A 
ATOM     14 CL   UNL     1       3.282   3.538  16.470  0.00  0.00    +0.000 Cl
ENDBRANCH   6   7
BRANCH   1  16
ATOM     15  O   UNL     1       2.380   6.628  18.321  0.00  0.00    +0.000 OA
ATOM     16  C   UNL     1       2.357   6.411  19.529  0.00  0.00    +0.000 C 
ATOM     17  N   UNL     1       2.114   7.373  20.471  0.00  0.00    +0.000 N 
ATOM     18  H   UNL     1       2.195   7.137  21.454  0.00  0.00    +0.000 HD
BRANCH  17  19
ATOM     19  C   UNL     1       1.664   8.717  20.145  0.00  0.00    +0.000 C 
BRANCH  19  20
ATOM     20  C   UNL     1       0.179   8.893  20.477  0.00  0.00    +0.000 C 
ATOM     21  C   UNL     1      -0.279  10.352  20.293  0.00  0.00    +0.000 C 
ATOM     22  C   UNL     1       0.241  11.267  21.400  0.00  0.00    +0.000 C 
ATOM     23  N   UNL     1      -0.138  10.782  22.726  0.00  0.00    +0.000 NA
ATOM     24  C   UNL     1       0.360   9.425  22.964  0.00  0.00    +0.000 C 
ATOM     25  C   UNL     1      -0.142   8.440  21.909  0.00  0.00    +0.000 C 
ATOM     26  H   UNL     1      -1.157  10.772  22.793  0.00  0.00    +0.000 HD
ENDBRANCH  19  20
ENDBRANCH  17  19
ENDBRANCH   1  16
TORSDOF 4
ENDMDL
MODEL 2
REMARK VINA RESULT:      -7.9      1.827      1.982
REMARK  Name = 
REMARK  4 active torsions:
REMARK  status: ('A' for Active; 'I' for Inactive)
REMARK    1  A    between atoms: C_2  and  C_11
REMARK    2  A    between atoms: N_3  and  C_4
REMARK    3  A    between atoms: C_4  and  C_5
REMARK    4  A    between atoms: C_16  and  C_17
REMARK                            x       y       z     vdW  Elec       q    Type
REMARK                         _______ _______ _______ _____ _____    ______ ____
ROOT
ATOM      1  C   UNL     1       2.696   5.370  18.499  0.00  0.00    +0.000 A 
ATOM      2  C   UNL     1       1.472   4.672  18.494  0.00  0.00    +0.000 A 
ATOM      3  C   UNL     1       1.378   3.392  17.951  0.00  0.00    +0.000 A 
ATOM      4  C   UNL     1       2.513   2.788  17.437  0.00  0.00    +0.000 A 
ATOM      5  C   UNL     1       3.743   3.449  17.490  0.00  0.00    +0.000 A 
ATOM      6  C   UNL     1       3.888   4.766  17.995  0.00  0.00    +0.000 A 
ENDROOT
BRANCH   6   7
ATOM      7  C   UNL     1       5.250   5.393  18.025  0.00  0.00    +0.000 A 
ATOM      8  C   UNL     1       6.139   5.084  19.084  0.00  0.00    +0.000 A 
ATOM      9  C   UNL     1       7.362   5.741  19.244  0.00  0.00    +0.000 A 
ATOM     10 CL   UNL     1       8.276   5.504  20.681  0.00  0.00    +0.000 Cl
ATOM     11  C   UNL     1       7.815   6.626  18.279  0.00  0.00    +0.000 A 
ATOM     12  C   UNL     1       7.011   6.895  17.177  0.00  0.00    +0.000 A 
ATOM     13  C   UNL     1       5.729   6.329  17.071  0.00  0.00    +0.000 A 
ATOM     14 CL   UNL     1       4.774   6.938  15.756  0.00  0.00    +0.000 Cl
ENDBRANCH   6   7
BRANCH   1  16
ATOM     15  O   UNL     1       2.912   7.728  18.413  0.00  0.00    +0.000 OA
ATOM     16  C   UNL     1       2.625   6.746  19.092  0.00  0.00    +0.000 C 
ATOM     17  N   UNL     1       2.231   6.813  20.401  0.00  0.00    +0.000 N 
ATOM     18  H   UNL     1       2.091   5.955  20.922  0.00  0.00    +0.000 HD
BRANCH  17  19
ATOM     19  C   UNL     1       1.919   8.061  21.079  0.00  0.00    +0.000 C 
BRANCH  19  20
ATOM     20  C   UNL     1       0.483   8.502  20.783  0.00  0.00    +0.000 C 
ATOM     21  C   UNL     1       0.438   9.883  20.102  0.00  0.00    +0.000 C 
ATOM     22  C   UNL     1       0.757  11.019  21.071  0.00  0.00    +0.000 C 
ATOM     23  N   UNL     1      -0.127  11.001  22.235  0.00  0.00    +0.000 NA
ATOM     24  C   UNL     1      -0.041   9.729  22.956  0.00  0.00    +0.000 C 
ATOM     25  C   UNL     1      -0.376   8.540  22.055  0.00  0.00    +0.000 C 
ATOM     26  H   UNL     1      -1.089  11.133  21.919  0.00  0.00    +0.000 HD
ENDBRANCH  19  20
ENDBRANCH  17  19
ENDBRANCH   1  16
TORSDOF 4
ENDMDL
MODEL 3
REMARK VINA RESULT:      -7.8      1.572      2.245
REMARK  Name = 
REMARK  4 active torsions:
REMARK  status: ('A' for Active; 'I' for Inactive)
REMARK    1  A    between atoms: C_2  and  C_11
REMARK    2  A    between atoms: N_3  and  C_4
REMARK    3  A    between atoms: C_4  and  C_5
REMARK    4  A    between atoms: C_16  and  C_17
REMARK                            x       y       z     vdW  Elec       q    Type
REMARK                         _______ _______ _______ _____ _____    ______ ____
ROOT
ATOM      1  C   UNL     1       2.432   4.712  18.705  0.00  0.00    +0.000 A 
ATOM      2  C   UNL     1       1.351   4.180  19.434  0.00  0.00    +0.000 A 
ATOM      3  C   UNL     1       1.111   2.808  19.464  0.00  0.00    +0.000 A 
ATOM      4  C   UNL     1       1.969   1.954  18.791  0.00  0.00    +0.000 A 
ATOM      5  C   UNL     1       3.078   2.468  18.114  0.00  0.00    +0.000 A 
ATOM      6  C   UNL     1       3.346   3.857  18.018  0.00  0.00    +0.000 A 
ENDROOT
BRANCH   6   7
ATOM      7  C   UNL     1       4.569   4.317  17.280  0.00  0.00    +0.000 A 
ATOM      8  C   UNL     1       4.656   4.122  15.881  0.00  0.00    +0.000 A 
ATOM      9  C   UNL     1       5.822   4.398  15.162  0.00  0.00    +0.000 A 
ATOM     10 CL   UNL     1       5.950   3.905  13.519  0.00  0.00    +0.000 Cl
ATOM     11  C   UNL     1       6.898   5.015  15.781  0.00  0.00    +0.000 A 
ATOM     12  C   UNL     1       6.824   5.303  17.139  0.00  0.00    +0.000 A 
ATOM     13  C   UNL     1       5.701   4.920  17.891  0.00  0.00    +0.000 A 
ATOM     14 CL   UNL     1       5.861   5.153  19.604  0.00  0.00    +0.000 Cl
ENDBRANCH   6   7
BRANCH   1  16
ATOM     15  O   UNL     1       2.886   6.833  17.752  0.00  0.00    +0.000 OA
ATOM     16  C   UNL     1       2.536   6.208  18.749  0.00  0.00    +0.000 C 
ATOM     17  N   UNL     1       2.223   6.794  19.945  0.00  0.00    +0.000 N 
ATOM     18  H   UNL     1       2.025   6.208  20.748  0.00  0.00    +0.000 HD
BRANCH  17  19
ATOM     19  C   UNL     1       2.080   8.230  20.119  0.00  0.00    +0.000 C 
BRANCH  19  20
ATOM     20  C   UNL     1       0.604   8.626  20.219  0.00  0.00    +0.000 C 
ATOM     21  C   UNL     1       0.380  10.101  19.839  0.00  0.00    +0.000 C 
ATOM     22  C   UNL     1       0.876  11.061  20.919  0.00  0.00    +0.000 C 
ATOM     23  N   UNL     1       0.266  10.775  22.217  0.00  0.00    +0.000 NA
ATOM     24  C   UNL     1       0.537   9.402  22.648  0.00  0.00    +0.000 C 
ATOM     25  C   UNL     1       0.042   8.377  21.627  0.00  0.00    +0.000 C 
ATOM     26  H   UNL     1      -0.744  10.900  22.140  0.00  0.00    +0.000 HD
ENDBRANCH  19  20
ENDBRANCH  17  19
ENDBRANCH   1  16
TORSDOF 4
ENDMDL
MODEL 4
REMARK VINA RESULT:      -7.6      0.993      2.042
REMARK  Name = 
REMARK  4 active torsions:
REMARK  status: ('A' for Active; 'I' for Inactive)
REMARK    1  A    between atoms: C_2  and  C_11
REMARK    2  A    between atoms: N_3  and  C_4
REMARK    3  A    between atoms: C_4  and  C_5
REMARK    4  A    between atoms: C_16  and  C_17
REMARK                            x       y       z     vdW  Elec       q    Type
REMARK                         _______ _______ _______ _____ _____    ______ ____
ROOT
ATOM      1  C   UNL     1       2.998   5.072  19.507  0.00  0.00    +0.000 A 
ATOM      2  C   UNL     1       2.197   4.626  20.577  0.00  0.00    +0.000 A 
ATOM      3  C   UNL     1       2.357   3.349  21.110  0.00  0.00    +0.000 A 
ATOM      4  C   UNL     1       3.342   2.520  20.600  0.00  0.00    +0.000 A 
ATOM      5  C   UNL     1       4.179   2.974  19.578  0.00  0.00    +0.000 A 
ATOM      6  C   UNL     1       4.034   4.248  18.973  0.00  0.00    +0.000 A 
ENDROOT
BRANCH   6   7
ATOM      7  C   UNL     1       4.989   4.658  17.891  0.00  0.00    +0.000 A 
ATOM      8  C   UNL     1       4.665   4.397  16.537  0.00  0.00    +0.000 A 
ATOM      9  C   UNL     1       5.572   4.625  15.499  0.00  0.00    +0.000 A 
ATOM     10 CL   UNL     1       5.218   4.055  13.915  0.00  0.00    +0.000 Cl
ATOM     11  C   UNL     1       6.781   5.255  15.747  0.00  0.00    +0.000 A 
ATOM     12  C   UNL     1       7.105   5.607  17.053  0.00  0.00    +0.000 A 
ATOM     13  C   UNL     1       6.249   5.273  18.117  0.00  0.00    +0.000 A 
ATOM     14 CL   UNL     1       6.900   5.583  19.696  0.00  0.00    +0.000 Cl
ENDBRANCH   6   7
BRANCH   1  16
ATOM     15  O   UNL     1       2.710   6.720  17.830  0.00  0.00    +0.000 OA
ATOM     16  C   UNL     1       2.681   6.458  19.029  0.00  0.00    +0.000 C 
ATOM     17  N   UNL     1       2.371   7.370  20.000  0.00  0.00    +0.000 N 
ATOM     18  H   UNL     1       2.450   7.102  20.976  0.00  0.00    +0.000 HD
BRANCH  17  19
ATOM     19  C   UNL     1       1.853   8.698  19.716  0.00  0.00    +0.000 C 
BRANCH  19  20
ATOM     20  C   UNL     1       0.387   8.817  20.144  0.00  0.00    +0.000 C 
ATOM     21  C   UNL     1      -0.142  10.254  19.979  0.00  0.00    +0.000 C 
ATOM     22  C   UNL     1       0.413  11.203  21.040  0.00  0.00    +0.000 C 
ATOM     23  N   UNL     1       0.143  10.718  22.392  0.00  0.00    +0.000 NA
ATOM     24  C   UNL     1       0.712   9.386  22.609  0.00  0.00    +0.000 C 
ATOM     25  C   UNL     1       0.181   8.369  21.598  0.00  0.00    +0.000 C 
ATOM     26  H   UNL     1      -0.868  10.668  22.528  0.00  0.00    +0.000 HD
ENDBRANCH  19  20
ENDBRANCH  17  19
ENDBRANCH   1  16
TORSDOF 4
ENDMDL
MODEL 5
REMARK VINA RESULT:      -7.5      1.861      2.581
REMARK  Name = 
REMARK  4 active torsions:
REMARK  status: ('A' for Active; 'I' for Inactive)
REMARK    1  A    between atoms: C_2  and  C_11
REMARK    2  A    between atoms: N_3  and  C_4
REMARK    3  A    between atoms: C_4  and  C_5
REMARK    4  A    between atoms: C_16  and  C_17
REMARK                            x       y       z     vdW  Elec       q    Type
REMARK                         _______ _______ _______ _____ _____    ______ ____
ROOT
ATOM      1  C   UNL     1       2.528   4.757  18.647  0.00  0.00    +0.000 A 
ATOM      2  C   UNL     1       1.429   4.254  19.371  0.00  0.00    +0.000 A 
ATOM      3  C   UNL     1       1.151   2.889  19.398  0.00  0.00    +0.000 A 
ATOM      4  C   UNL     1       1.987   2.013  18.727  0.00  0.00    +0.000 A 
ATOM      5  C   UNL     1       3.112   2.496  18.053  0.00  0.00    +0.000 A 
ATOM      6  C   UNL     1       3.420   3.877  17.961  0.00  0.00    +0.000 A 
ENDROOT
BRANCH   6   7
ATOM      7  C   UNL     1       4.657   4.304  17.228  0.00  0.00    +0.000 A 
ATOM      8  C   UNL     1       4.748   4.097  15.831  0.00  0.00    +0.000 A 
ATOM      9  C   UNL     1       5.926   4.341  15.118  0.00  0.00    +0.000 A 
ATOM     10 CL   UNL     1       6.053   3.833  13.480  0.00  0.00    +0.000 Cl
ATOM     11  C   UNL     1       7.011   4.938  15.739  0.00  0.00    +0.000 A 
ATOM     12  C   UNL     1       6.935   5.238  17.094  0.00  0.00    +0.000 A 
ATOM     13  C   UNL     1       5.798   4.886  17.842  0.00  0.00    +0.000 A 
ATOM     14 CL   UNL     1       5.953   5.128  19.554  0.00  0.00    +0.000 Cl
ENDBRANCH   6   7
BRANCH   1  16
ATOM     15  O   UNL     1       3.107   6.859  17.720  0.00  0.00    +0.000 OA
ATOM     16  C   UNL     1       2.674   6.249  18.694  0.00  0.00    +0.000 C 
ATOM     17  N   UNL     1       2.302   6.849  19.866  0.00  0.00    +0.000 N 
ATOM     18  H   UNL     1       2.034   6.273  20.656  0.00  0.00    +0.000 HD
BRANCH  17  19
ATOM     19  C   UNL     1       2.191   8.290  20.027  0.00  0.00    +0.000 C 
BRANCH  19  20
ATOM     20  C   UNL     1       0.833   8.794  19.530  0.00  0.00    +0.000 C 
ATOM     21  C   UNL     1       0.975   9.678  18.277  0.00  0.00    +0.000 C 
ATOM     22  C   UNL     1       1.548  11.056  18.600  0.00  0.00    +0.000 C 
ATOM     23  N   UNL     1       0.756  11.746  19.618  0.00  0.00    +0.000 NA
ATOM     24  C   UNL     1       0.677  10.967  20.856  0.00  0.00    +0.000 C 
ATOM     25  C   UNL     1       0.084   9.578  20.618  0.00  0.00    +0.000 C 
ATOM     26  H   UNL     1      -0.189  11.887  19.259  0.00  0.00    +0.000 HD
ENDBRANCH  19  20
ENDBRANCH  17  19
ENDBRANCH   1  16
TORSDOF 4
ENDMDL
MODEL 6
REMARK VINA RESULT:      -7.5      0.958      1.242
REMARK  Name = 
REMARK  4 active torsions:
REMARK  status: ('A' for Active; 'I' for Inactive)
REMARK    1  A    between atoms: C_2  and  C_11
REMARK    2  A    between atoms: N_3  and  C_4
REMARK    3  A    between atoms: C_4  and  C_5
REMARK    4  A    between atoms: C_16  and  C_17
REMARK                            x       y       z     vdW  Elec       q    Type
REMARK                         _______ _______ _______ _____ _____    ______ ____
ROOT
ATOM      1  C   UNL     1       2.664   5.217  19.874  0.00  0.00    +0.000 A 
ATOM      2  C   UNL     1       1.664   4.893  20.811  0.00  0.00    +0.000 A 
ATOM      3  C   UNL     1       1.633   3.643  21.426  0.00  0.00    +0.000 A 
ATOM      4  C   UNL     1       2.621   2.718  21.132  0.00  0.00    +0.000 A 
ATOM      5  C   UNL     1       3.650   3.051  20.248  0.00  0.00    +0.000 A 
ATOM      6  C   UNL     1       3.708   4.292  19.566  0.00  0.00    +0.000 A 
ENDROOT
BRANCH   6   7
ATOM      7  C   UNL     1       4.859   4.568  18.644  0.00  0.00    +0.000 A 
ATOM      8  C   UNL     1       5.979   5.292  19.121  0.00  0.00    +0.000 A 
ATOM      9  C   UNL     1       7.014   5.701  18.276  0.00  0.00    +0.000 A 
ATOM     10 CL   UNL     1       8.212   6.788  18.860  0.00  0.00    +0.000 Cl
ATOM     11  C   UNL     1       7.050   5.284  16.956  0.00  0.00    +0.000 A 
ATOM     12  C   UNL     1       6.012   4.499  16.466  0.00  0.00    +0.000 A 
ATOM     13  C   UNL     1       4.909   4.183  17.278  0.00  0.00    +0.000 A 
ATOM     14 CL   UNL     1       3.605   3.389  16.453  0.00  0.00    +0.000 Cl
ENDBRANCH   6   7
BRANCH   1  16
ATOM     15  O   UNL     1       2.903   6.799  18.126  0.00  0.00    +0.000 OA
ATOM     16  C   UNL     1       2.541   6.589  19.281  0.00  0.00    +0.000 C 
ATOM     17  N   UNL     1       2.016   7.550  20.101  0.00  0.00    +0.000 N 
ATOM     18  H   UNL     1       1.819   7.322  21.070  0.00  0.00    +0.000 HD
BRANCH  17  19
ATOM     19  C   UNL     1       1.644   8.878  19.642  0.00  0.00    +0.000 C 
BRANCH  19  20
ATOM     20  C   UNL     1       0.388   9.376  20.364  0.00  0.00    +0.000 C 
ATOM     21  C   UNL     1      -0.658   9.928  19.378  0.00  0.00    +0.000 C 
ATOM     22  C   UNL     1      -0.255  11.285  18.804  0.00  0.00    +0.000 C 
ATOM     23  N   UNL     1       0.009  12.262  19.859  0.00  0.00    +0.000 NA
ATOM     24  C   UNL     1       1.065  11.802  20.765  0.00  0.00    +0.000 C 
ATOM     25  C   UNL     1       0.721  10.456  21.404  0.00  0.00    +0.000 C 
ATOM     26  H   UNL     1      -0.846  12.402  20.399  0.00  0.00    +0.000 HD
ENDBRANCH  19  20
ENDBRANCH  17  19
ENDBRANCH   1  16
TORSDOF 4
ENDMDL
MODEL 7
REMARK VINA RESULT:      -7.3      0.532      1.214
REMARK  Name = 
REMARK  4 active torsions:
REMARK  status: ('A' for Active; 'I' for Inactive)
REMARK    1  A    between atoms: C_2  and  C_11
REMARK    2  A    between atoms: N_3  and  C_4
REMARK    3  A    between atoms: C_4  and  C_5
REMARK    4  A    between atoms: C_16  and  C_17
REMARK                            x       y       z     vdW  Elec       q    Type
REMARK                         _______ _______ _______ _____ _____    ______ ____
ROOT
ATOM      1  C   UNL     1       2.638   5.041  20.083  0.00  0.00    +0.000 A 
ATOM      2  C   UNL     1       1.799   4.606  21.128  0.00  0.00    +0.000 A 
ATOM      3  C   UNL     1       1.959   3.346  21.700  0.00  0.00    +0.000 A 
ATOM      4  C   UNL     1       2.980   2.523  21.253  0.00  0.00    +0.000 A 
ATOM      5  C   UNL     1       3.852   2.968  20.257  0.00  0.00    +0.000 A 
ATOM      6  C   UNL     1       3.711   4.224  19.614  0.00  0.00    +0.000 A 
ENDROOT
BRANCH   6   7
ATOM      7  C   UNL     1       4.704   4.624  18.564  0.00  0.00    +0.000 A 
ATOM      8  C   UNL     1       5.858   5.357  18.935  0.00  0.00    +0.000 A 
ATOM      9  C   UNL     1       6.743   5.879  17.989  0.00  0.00    +0.000 A 
ATOM     10 CL   UNL     1       7.979   6.968  18.485  0.00  0.00    +0.000 Cl
ATOM     11  C   UNL     1       6.597   5.572  16.645  0.00  0.00    +0.000 A 
ATOM     12  C   UNL     1       5.525   4.783  16.244  0.00  0.00    +0.000 A 
ATOM     13  C   UNL     1       4.564   4.354  17.176  0.00  0.00    +0.000 A 
ATOM     14 CL   UNL     1       3.179   3.572  16.482  0.00  0.00    +0.000 Cl
ENDBRANCH   6   7
BRANCH   1  16
ATOM     15  O   UNL     1       2.437   6.654  18.359  0.00  0.00    +0.000 OA
ATOM     16  C   UNL     1       2.317   6.408  19.556  0.00  0.00    +0.000 C 
ATOM     17  N   UNL     1       1.899   7.324  20.483  0.00  0.00    +0.000 N 
ATOM     18  H   UNL     1       1.906   7.073  21.466  0.00  0.00    +0.000 HD
BRANCH  17  19
ATOM     19  C   UNL     1       1.364   8.629  20.134  0.00  0.00    +0.000 C 
BRANCH  19  20
ATOM     20  C   UNL     1       1.610   9.641  21.257  0.00  0.00    +0.000 C 
ATOM     21  C   UNL     1       1.041   9.151  22.602  0.00  0.00    +0.000 C 
ATOM     22  C   UNL     1      -0.484   9.227  22.649  0.00  0.00    +0.000 C 
ATOM     23  N   UNL     1      -0.968  10.576  22.357  0.00  0.00    +0.000 NA
ATOM     24  C   UNL     1      -0.514  11.036  21.043  0.00  0.00    +0.000 C 
ATOM     25  C   UNL     1       1.010  11.015  20.926  0.00  0.00    +0.000 C 
ATOM     26  H   UNL     1      -0.610  11.214  23.069  0.00  0.00    +0.000 HD
ENDBRANCH  19  20
ENDBRANCH  17  19
ENDBRANCH   1  16
TORSDOF 4
ENDMDL
MODEL 8
REMARK VINA RESULT:      -7.3      1.889      2.858
REMARK  Name = 
REMARK  4 active torsions:
REMARK  status: ('A' for Active; 'I' for Inactive)
REMARK    1  A    between atoms: C_2  and  C_11
REMARK    2  A    between atoms: N_3  and  C_4
REMARK    3  A    between atoms: C_4  and  C_5
REMARK    4  A    between atoms: C_16  and  C_17
REMARK                            x       y       z     vdW  Elec       q    Type
REMARK                         _______ _______ _______ _____ _____    ______ ____
ROOT
ATOM      1  C   UNL     1       2.843   5.590  18.971  0.00  0.00    +0.000 A 
ATOM      2  C   UNL     1       1.873   5.319  19.957  0.00  0.00    +0.000 A 
ATOM      3  C   UNL     1       1.744   4.044  20.505  0.00  0.00    +0.000 A 
ATOM      4  C   UNL     1       2.604   3.039  20.096  0.00  0.00    +0.000 A 
ATOM      5  C   UNL     1       3.606   3.313  19.162  0.00  0.00    +0.000 A 
ATOM      6  C   UNL     1       3.757   4.580  18.544  0.00  0.00    +0.000 A 
ENDROOT
BRANCH   6   7
ATOM      7  C   UNL     1       4.871   4.787  17.561  0.00  0.00    +0.000 A 
ATOM      8  C   UNL     1       4.658   4.499  16.191  0.00  0.00    +0.000 A 
ATOM      9  C   UNL     1       5.693   4.536  15.253  0.00  0.00    +0.000 A 
ATOM     10 CL   UNL     1       5.427   3.934  13.664  0.00  0.00    +0.000 Cl
ATOM     11  C   UNL     1       6.949   4.999  15.611  0.00  0.00    +0.000 A 
ATOM     12  C   UNL     1       7.181   5.374  16.930  0.00  0.00    +0.000 A 
ATOM     13  C   UNL     1       6.177   5.227  17.903  0.00  0.00    +0.000 A 
ATOM     14 CL   UNL     1       6.696   5.529  19.531  0.00  0.00    +0.000 Cl
ENDBRANCH   6   7
BRANCH   1  16
ATOM     15  O   UNL     1       3.535   7.317  17.504  0.00  0.00    +0.000 OA
ATOM     16  C   UNL     1       2.834   7.000  18.462  0.00  0.00    +0.000 C 
ATOM     17  N   UNL     1       2.015   7.872  19.127  0.00  0.00    +0.000 N 
ATOM     18  H   UNL     1       1.531   7.559  19.962  0.00  0.00    +0.000 HD
BRANCH  17  19
ATOM     19  C   UNL     1       1.731   9.219  18.660  0.00  0.00    +0.000 C 
BRANCH  19  20
ATOM     20  C   UNL     1       0.849   9.971  19.661  0.00  0.00    +0.000 C 
ATOM     21  C   UNL     1      -0.640   9.905  19.273  0.00  0.00    +0.000 C 
ATOM     22  C   UNL     1      -0.967  10.791  18.073  0.00  0.00    +0.000 C 
ATOM     23  N   UNL     1      -0.566  12.179  18.300  0.00  0.00    +0.000 NA
ATOM     24  C   UNL     1       0.867  12.284  18.585  0.00  0.00    +0.000 C 
ATOM     25  C   UNL     1       1.269  11.442  19.796  0.00  0.00    +0.000 C 
ATOM     26  H   UNL     1      -1.086  12.544  19.099  0.00  0.00    +0.000 HD
ENDBRANCH  19  20
ENDBRANCH  17  19
ENDBRANCH   1  16
TORSDOF 4
ENDMDL
MODEL 9
REMARK VINA RESULT:      -7.2      2.871      5.340
REMARK  Name = 
REMARK  4 active torsions:
REMARK  status: ('A' for Active; 'I' for Inactive)
REMARK    1  A    between atoms: C_2  and  C_11
REMARK    2  A    between atoms: N_3  and  C_4
REMARK    3  A    between atoms: C_4  and  C_5
REMARK    4  A    between atoms: C_16  and  C_17
REMARK                            x       y       z     vdW  Elec       q    Type
REMARK                         _______ _______ _______ _____ _____    ______ ____
ROOT
ATOM      1  C   UNL     1       3.811   6.079  18.592  0.00  0.00    +0.000 A 
ATOM      2  C   UNL     1       2.780   6.693  19.331  0.00  0.00    +0.000 A 
ATOM      3  C   UNL     1       2.213   7.895  18.912  0.00  0.00    +0.000 A 
ATOM      4  C   UNL     1       2.651   8.476  17.734  0.00  0.00    +0.000 A 
ATOM      5  C   UNL     1       3.631   7.846  16.964  0.00  0.00    +0.000 A 
ATOM      6  C   UNL     1       4.269   6.645  17.363  0.00  0.00    +0.000 A 
ENDROOT
BRANCH   6   7
ATOM      7  C   UNL     1       5.303   6.032  16.465  0.00  0.00    +0.000 A 
ATOM      8  C   UNL     1       4.897   5.376  15.277  0.00  0.00    +0.000 A 
ATOM      9  C   UNL     1       5.796   4.666  14.476  0.00  0.00    +0.000 A 
ATOM     10 CL   UNL     1       5.204   3.685  13.193  0.00  0.00    +0.000 Cl
ATOM     11  C   UNL     1       7.155   4.700  14.745  0.00  0.00    +0.000 A 
ATOM     12  C   UNL     1       7.608   5.404  15.855  0.00  0.00    +0.000 A 
ATOM     13  C   UNL     1       6.698   6.021  16.731  0.00  0.00    +0.000 A 
ATOM     14 CL   UNL     1       7.407   6.663  18.179  0.00  0.00    +0.000 Cl
ENDBRANCH   6   7
BRANCH   1  16
ATOM     15  O   UNL     1       5.304   4.831  19.943  0.00  0.00    +0.000 OA
ATOM     16  C   UNL     1       4.334   4.808  19.190  0.00  0.00    +0.000 C 
ATOM     17  N   UNL     1       3.669   3.664  18.840  0.00  0.00    +0.000 N 
ATOM     18  H   UNL     1       2.930   3.712  18.147  0.00  0.00    +0.000 HD
BRANCH  17  19
ATOM     19  C   UNL     1       3.909   2.375  19.468  0.00  0.00    +0.000 C 
BRANCH  19  20
ATOM     20  C   UNL     1       2.609   1.788  20.027  0.00  0.00    +0.000 C 
ATOM     21  C   UNL     1       1.424   2.008  19.069  0.00  0.00    +0.000 C 
ATOM     22  C   UNL     1       0.950   3.460  19.055  0.00  0.00    +0.000 C 
ATOM     23  N   UNL     1       0.609   3.930  20.397  0.00  0.00    +0.000 NA
ATOM     24  C   UNL     1       1.747   3.815  21.312  0.00  0.00    +0.000 C 
ATOM     25  C   UNL     1       2.263   2.378  21.401  0.00  0.00    +0.000 C 
ATOM     26  H   UNL     1      -0.160   3.363  20.758  0.00  0.00    +0.000 HD
ENDBRANCH  19  20
ENDBRANCH  17  19
ENDBRANCH   1  16
TORSDOF 4
ENDMDL
