MODEL 1
REMARK VINA RESULT:      -7.6      0.000      0.000
REMARK  Name = 
REMARK  5 active torsions:
REMARK  status: ('A' for Active; 'I' for Inactive)
REMARK    1  A    between atoms: C_1  and  C_2
REMARK    2  A    between atoms: C_2  and  N_3
REMARK    3  A    between atoms: C_8  and  C_9
REMARK    4  A    between atoms: C_8  and  C_10
REMARK    5  A    between atoms: C_15  and  C_16
REMARK                            x       y       z     vdW  Elec       q    Type
REMARK                         _______ _______ _______ _____ _____    ______ ____
ROOT
ATOM      1  N   UNL     1       0.080  13.155  19.101  0.00  0.00    +0.000 N 
ATOM      2  C   UNL     1      -1.121  12.522  19.279  0.00  0.00    +0.000 C 
ATOM      3  O   UNL     1      -2.140  12.632  18.594  0.00  0.00    +0.000 OA
ATOM      4  C   UNL     1      -1.058  11.842  20.668  0.00  0.00    +0.000 C 
ATOM      5  C   UNL     1      -2.246  12.295  21.520  0.00  0.00    +0.000 C 
ATOM      6  C   UNL     1      -1.746  12.512  22.934  0.00  0.00    +0.000 C 
ATOM      7  C   UNL     1      -0.909  13.839  22.968  0.00  0.00    +0.000 C 
ATOM      8  C   UNL     1      -2.927  12.749  23.884  0.00  0.00    +0.000 C 
ATOM      9  O   UNL     1      -1.011  11.344  23.410  0.00  0.00    +0.000 OA
ATOM     10  C   UNL     1      -0.592  10.362  22.503  0.00  0.00    +0.000 A 
ATOM     11  C   UNL     1       0.419   9.529  22.971  0.00  0.00    +0.000 A 
ATOM     12  C   UNL     1       1.160   8.762  22.058  0.00  0.00    +0.000 A 
ATOM     13  C   UNL     1       0.841   8.705  20.684  0.00  0.00    +0.000 A 
ATOM     14  C   UNL     1      -0.249   9.477  20.222  0.00  0.00    +0.000 A 
ATOM     15  C   UNL     1      -0.846  10.401  21.095  0.00  0.00    +0.000 A 
ATOM     16  N   UNL     1       0.302  12.303  21.107  0.00  0.00    +0.000 NA
ATOM     17  C   UNL     1       0.880  12.831  20.112  0.00  0.00    +0.000 C 
ATOM     18  N   UNL     1       2.221  13.068  20.151  0.00  0.00    +0.000 N 
ATOM     19  H   UNL     1       2.600  12.288  20.699  0.00  0.00    +0.000 HD
ATOM     20  H   UNL     1       2.405  13.838  20.791  0.00  0.00    +0.000 HD
ENDROOT
BRANCH  13  21
ATOM     21  C   UNL     1       1.729   8.009  19.724  0.00  0.00    +0.000 A 
ATOM     22  C   UNL     1       2.105   8.602  18.505  0.00  0.00    +0.000 A 
ATOM     23  C   UNL     1       3.009   7.979  17.636  0.00  0.00    +0.000 A 
ATOM     24  C   UNL     1       3.563   6.753  17.965  0.00  0.00    +0.000 A 
ATOM     25  C   UNL     1       3.216   6.147  19.172  0.00  0.00    +0.000 A 
ATOM     26 CL   UNL     1       3.900   4.629  19.597  0.00  0.00    +0.000 Cl
ATOM     27  C   UNL     1       2.312   6.769  20.034  0.00  0.00    +0.000 A 
ENDBRANCH  13  21
BRANCH   1  29
ATOM     28  C   UNL     1      -0.396  15.538  19.505  0.00  0.00    +0.000 C 
ATOM     29  C   UNL     1       0.198  14.512  18.574  0.00  0.00    +0.000 C 
ENDBRANCH   1  29
TORSDOF 2
ENDMDL
MODEL 2
REMARK VINA RESULT:      -7.1      3.636      5.744
REMARK  Name = 
REMARK  5 active torsions:
REMARK  status: ('A' for Active; 'I' for Inactive)
REMARK    1  A    between atoms: C_1  and  C_2
REMARK    2  A    between atoms: C_2  and  N_3
REMARK    3  A    between atoms: C_8  and  C_9
REMARK    4  A    between atoms: C_8  and  C_10
REMARK    5  A    between atoms: C_15  and  C_16
REMARK                            x       y       z     vdW  Elec       q    Type
REMARK                         _______ _______ _______ _____ _____    ______ ____
ROOT
ATOM      1  N   UNL     1      -5.961  12.574  21.464  0.00  0.00    +0.000 N 
ATOM      2  C   UNL     1      -5.909  12.660  22.829  0.00  0.00    +0.000 C 
ATOM      3  O   UNL     1      -6.692  12.169  23.645  0.00  0.00    +0.000 OA
ATOM      4  C   UNL     1      -4.834  13.721  23.163  0.00  0.00    +0.000 C 
ATOM      5  C   UNL     1      -5.437  14.801  24.065  0.00  0.00    +0.000 C 
ATOM      6  C   UNL     1      -4.898  16.142  23.606  0.00  0.00    +0.000 C 
ATOM      7  C   UNL     1      -5.609  16.529  22.262  0.00  0.00    +0.000 C 
ATOM      8  C   UNL     1      -5.286  17.239  24.605  0.00  0.00    +0.000 C 
ATOM      9  O   UNL     1      -3.442  16.111  23.509  0.00  0.00    +0.000 OA
ATOM     10  C   UNL     1      -2.764  14.886  23.529  0.00  0.00    +0.000 A 
ATOM     11  C   UNL     1      -1.464  14.930  23.035  0.00  0.00    +0.000 A 
ATOM     12  C   UNL     1      -0.822  13.737  22.670  0.00  0.00    +0.000 A 
ATOM     13  C   UNL     1      -1.398  12.468  22.899  0.00  0.00    +0.000 A 
ATOM     14  C   UNL     1      -2.680  12.417  23.490  0.00  0.00    +0.000 A 
ATOM     15  C   UNL     1      -3.401  13.611  23.654  0.00  0.00    +0.000 A 
ATOM     16  N   UNL     1      -4.457  14.137  21.771  0.00  0.00    +0.000 NA
ATOM     17  C   UNL     1      -4.984  13.322  20.959  0.00  0.00    +0.000 C 
ATOM     18  N   UNL     1      -4.570  13.291  19.661  0.00  0.00    +0.000 N 
ATOM     19  H   UNL     1      -3.567  13.498  19.710  0.00  0.00    +0.000 HD
ATOM     20  H   UNL     1      -4.900  14.129  19.186  0.00  0.00    +0.000 HD
ENDROOT
BRANCH  13  21
ATOM     21  C   UNL     1      -0.765  11.238  22.368  0.00  0.00    +0.000 A 
ATOM     22  C   UNL     1      -0.700  10.057  23.129  0.00  0.00    +0.000 A 
ATOM     23  C   UNL     1      -0.175   8.872  22.596  0.00  0.00    +0.000 A 
ATOM     24  C   UNL     1       0.290   8.837  21.292  0.00  0.00    +0.000 A 
ATOM     25  C   UNL     1       0.227   9.991  20.512  0.00  0.00    +0.000 A 
ATOM     26 CL   UNL     1       0.794   9.962  18.890  0.00  0.00    +0.000 Cl
ATOM     27  C   UNL     1      -0.293  11.171  21.047  0.00  0.00    +0.000 A 
ENDBRANCH  13  21
BRANCH   1  29
ATOM     28  C   UNL     1      -7.540  11.133  20.241  0.00  0.00    +0.000 C 
ATOM     29  C   UNL     1      -7.212  12.527  20.711  0.00  0.00    +0.000 C 
ENDBRANCH   1  29
TORSDOF 2
ENDMDL
MODEL 3
REMARK VINA RESULT:      -6.9      3.831      5.782
REMARK  Name = 
REMARK  5 active torsions:
REMARK  status: ('A' for Active; 'I' for Inactive)
REMARK    1  A    between atoms: C_1  and  C_2
REMARK    2  A    between atoms: C_2  and  N_3
REMARK    3  A    between atoms: C_8  and  C_9
REMARK    4  A    between atoms: C_8  and  C_10
REMARK    5  A    between atoms: C_15  and  C_16
REMARK                            x       y       z     vdW  Elec       q    Type
REMARK                         _______ _______ _______ _____ _____    ______ ____
ROOT
ATOM      1  N   UNL     1      -6.018  12.035  20.463  0.00  0.00    +0.000 N 
ATOM      2  C   UNL     1      -6.214  12.201  21.807  0.00  0.00    +0.000 C 
ATOM      3  O   UNL     1      -7.081  11.679  22.512  0.00  0.00    +0.000 OA
ATOM      4  C   UNL     1      -5.317  13.385  22.240  0.00  0.00    +0.000 C 
ATOM      5  C   UNL     1      -6.164  14.446  22.945  0.00  0.00    +0.000 C 
ATOM      6  C   UNL     1      -5.678  15.807  22.488  0.00  0.00    +0.000 C 
ATOM      7  C   UNL     1      -6.175  16.044  21.018  0.00  0.00    +0.000 C 
ATOM      8  C   UNL     1      -6.334  16.913  23.324  0.00  0.00    +0.000 C 
ATOM      9  O   UNL     1      -4.232  15.920  22.642  0.00  0.00    +0.000 OA
ATOM     10  C   UNL     1      -3.458  14.774  22.865  0.00  0.00    +0.000 A 
ATOM     11  C   UNL     1      -2.101  14.924  22.596  0.00  0.00    +0.000 A 
ATOM     12  C   UNL     1      -1.299  13.784  22.434  0.00  0.00    +0.000 A 
ATOM     13  C   UNL     1      -1.787  12.478  22.653  0.00  0.00    +0.000 A 
ATOM     14  C   UNL     1      -3.143  12.328  23.021  0.00  0.00    +0.000 A 
ATOM     15  C   UNL     1      -3.988  13.449  22.973  0.00  0.00    +0.000 A 
ATOM     16  N   UNL     1      -4.741  13.759  20.905  0.00  0.00    +0.000 NA
ATOM     17  C   UNL     1      -5.040  12.849  20.078  0.00  0.00    +0.000 C 
ATOM     18  N   UNL     1      -4.404  12.788  18.874  0.00  0.00    +0.000 N 
ATOM     19  H   UNL     1      -3.448  13.100  19.077  0.00  0.00    +0.000 HD
ATOM     20  H   UNL     1      -4.721  13.561  18.290  0.00  0.00    +0.000 HD
ENDROOT
BRANCH  13  21
ATOM     21  C   UNL     1      -0.962  11.291  22.328  0.00  0.00    +0.000 A 
ATOM     22  C   UNL     1      -0.750  10.262  23.263  0.00  0.00    +0.000 A 
ATOM     23  C   UNL     1      -0.039   9.104  22.928  0.00  0.00    +0.000 A 
ATOM     24  C   UNL     1       0.473   8.942  21.651  0.00  0.00    +0.000 A 
ATOM     25  C   UNL     1       0.269   9.942  20.701  0.00  0.00    +0.000 A 
ATOM     26 CL   UNL     1       0.893   9.754  19.111  0.00  0.00    +0.000 Cl
ATOM     27  C   UNL     1      -0.437  11.097  21.040  0.00  0.00    +0.000 A 
ENDBRANCH  13  21
BRANCH   1  29
ATOM     28  C   UNL     1      -7.052  10.449  18.887  0.00  0.00    +0.000 C 
ATOM     29  C   UNL     1      -7.108  11.817  19.515  0.00  0.00    +0.000 C 
ENDBRANCH   1  29
TORSDOF 2
ENDMDL
MODEL 4
REMARK VINA RESULT:      -6.9      1.421      1.653
REMARK  Name = 
REMARK  5 active torsions:
REMARK  status: ('A' for Active; 'I' for Inactive)
REMARK    1  A    between atoms: C_1  and  C_2
REMARK    2  A    between atoms: C_2  and  N_3
REMARK    3  A    between atoms: C_8  and  C_9
REMARK    4  A    between atoms: C_8  and  C_10
REMARK    5  A    between atoms: C_15  and  C_16
REMARK                            x       y       z     vdW  Elec       q    Type
REMARK                         _______ _______ _______ _____ _____    ______ ____
ROOT
ATOM      1  N   UNL     1       1.514  14.384  19.632  0.00  0.00    +0.000 N 
ATOM      2  C   UNL     1       0.174  14.221  19.405  0.00  0.00    +0.000 C 
ATOM      3  O   UNL     1      -0.511  14.746  18.524  0.00  0.00    +0.000 OA
ATOM      4  C   UNL     1      -0.391  13.464  20.630  0.00  0.00    +0.000 C 
ATOM      5  C   UNL     1      -1.554  14.254  21.235  0.00  0.00    +0.000 C 
ATOM      6  C   UNL     1      -1.437  14.168  22.744  0.00  0.00    +0.000 C 
ATOM      7  C   UNL     1      -0.256  15.092  23.205  0.00  0.00    +0.000 C 
ATOM      8  C   UNL     1      -2.693  14.748  23.407  0.00  0.00    +0.000 C 
ATOM      9  O   UNL     1      -1.297  12.781  23.176  0.00  0.00    +0.000 OA
ATOM     10  C   UNL     1      -0.986  11.784  22.243  0.00  0.00    +0.000 A 
ATOM     11  C   UNL     1      -0.485  10.607  22.791  0.00  0.00    +0.000 A 
ATOM     12  C   UNL     1       0.189   9.693  21.966  0.00  0.00    +0.000 A 
ATOM     13  C   UNL     1       0.275   9.858  20.567  0.00  0.00    +0.000 A 
ATOM     14  C   UNL     1      -0.317  11.006  19.995  0.00  0.00    +0.000 A 
ATOM     15  C   UNL     1      -0.799  12.017  20.843  0.00  0.00    +0.000 A 
ATOM     16  N   UNL     1       0.859  13.364  21.456  0.00  0.00    +0.000 NA
ATOM     17  C   UNL     1       1.837  13.716  20.735  0.00  0.00    +0.000 C 
ATOM     18  N   UNL     1       3.111  13.445  21.136  0.00  0.00    +0.000 N 
ATOM     19  H   UNL     1       3.038  12.542  21.617  0.00  0.00    +0.000 HD
ATOM     20  H   UNL     1       3.348  14.046  21.924  0.00  0.00    +0.000 HD
ENDROOT
BRANCH  13  21
ATOM     21  C   UNL     1       1.119   8.959  19.744  0.00  0.00    +0.000 A 
ATOM     22  C   UNL     1       1.555   9.331  18.460  0.00  0.00    +0.000 A 
ATOM     23  C   UNL     1       2.419   8.516  17.717  0.00  0.00    +0.000 A 
ATOM     24  C   UNL     1       2.872   7.317  18.240  0.00  0.00    +0.000 A 
ATOM     25  C   UNL     1       2.464   6.930  19.516  0.00  0.00    +0.000 A 
ATOM     26 CL   UNL     1       3.023   5.447  20.182  0.00  0.00    +0.000 Cl
ATOM     27  C   UNL     1       1.600   7.742  20.252  0.00  0.00    +0.000 A 
ENDBRANCH  13  21
BRANCH   1  29
ATOM     28  C   UNL     1       1.764  16.737  20.316  0.00  0.00    +0.000 C 
ATOM     29  C   UNL     1       2.220  15.640  19.389  0.00  0.00    +0.000 C 
ENDBRANCH   1  29
TORSDOF 2
ENDMDL
MODEL 5
REMARK VINA RESULT:      -6.7      3.889      5.997
REMARK  Name = 
REMARK  5 active torsions:
REMARK  status: ('A' for Active; 'I' for Inactive)
REMARK    1  A    between atoms: C_1  and  C_2
REMARK    2  A    between atoms: C_2  and  N_3
REMARK    3  A    between atoms: C_8  and  C_9
REMARK    4  A    between atoms: C_8  and  C_10
REMARK    5  A    between atoms: C_15  and  C_16
REMARK                            x       y       z     vdW  Elec       q    Type
REMARK                         _______ _______ _______ _____ _____    ______ ____
ROOT
ATOM      1  N   UNL     1      -5.779  12.805  23.063  0.00  0.00    +0.000 N 
ATOM      2  C   UNL     1      -4.719  12.714  23.925  0.00  0.00    +0.000 C 
ATOM      3  O   UNL     1      -4.636  12.030  24.948  0.00  0.00    +0.000 OA
ATOM      4  C   UNL     1      -3.734  13.840  23.532  0.00  0.00    +0.000 C 
ATOM      5  C   UNL     1      -3.432  14.712  24.752  0.00  0.00    +0.000 C 
ATOM      6  C   UNL     1      -3.390  16.156  24.292  0.00  0.00    +0.000 C 
ATOM      7  C   UNL     1      -4.860  16.633  24.015  0.00  0.00    +0.000 C 
ATOM      8  C   UNL     1      -2.873  17.058  25.419  0.00  0.00    +0.000 C 
ATOM      9  O   UNL     1      -2.500  16.309  23.145  0.00  0.00    +0.000 OA
ATOM     10  C   UNL     1      -2.064  15.180  22.440  0.00  0.00    +0.000 A 
ATOM     11  C   UNL     1      -1.574  15.442  21.164  0.00  0.00    +0.000 A 
ATOM     12  C   UNL     1      -1.449  14.392  20.243  0.00  0.00    +0.000 A 
ATOM     13  C   UNL     1      -1.687  13.045  20.595  0.00  0.00    +0.000 A 
ATOM     14  C   UNL     1      -2.093  12.765  21.919  0.00  0.00    +0.000 A 
ATOM     15  C   UNL     1      -2.421  13.834  22.769  0.00  0.00    +0.000 A 
ATOM     16  N   UNL     1      -4.519  14.479  22.423  0.00  0.00    +0.000 NA
ATOM     17  C   UNL     1      -5.494  13.722  22.144  0.00  0.00    +0.000 C 
ATOM     18  N   UNL     1      -6.195  13.912  20.990  0.00  0.00    +0.000 N 
ATOM     19  H   UNL     1      -5.490  14.227  20.315  0.00  0.00    +0.000 HD
ATOM     20  H   UNL     1      -6.750  14.762  21.074  0.00  0.00    +0.000 HD
ENDROOT
BRANCH  13  21
ATOM     21  C   UNL     1      -1.694  11.978  19.566  0.00  0.00    +0.000 A 
ATOM     22  C   UNL     1      -2.824  11.739  18.763  0.00  0.00    +0.000 A 
ATOM     23  C   UNL     1      -2.803  10.786  17.736  0.00  0.00    +0.000 A 
ATOM     24  C   UNL     1      -1.653  10.056  17.483  0.00  0.00    +0.000 A 
ATOM     25  C   UNL     1      -0.516  10.281  18.258  0.00  0.00    +0.000 A 
ATOM     26 CL   UNL     1       0.920   9.388  17.952  0.00  0.00    +0.000 Cl
ATOM     27  C   UNL     1      -0.542  11.228  19.282  0.00  0.00    +0.000 A 
ENDBRANCH  13  21
BRANCH   1  29
ATOM     28  C   UNL     1      -7.596  13.905  24.309  0.00  0.00    +0.000 C 
ATOM     29  C   UNL     1      -7.171  12.711  23.494  0.00  0.00    +0.000 C 
ENDBRANCH   1  29
TORSDOF 2
ENDMDL
MODEL 6
REMARK VINA RESULT:      -6.7      1.020      1.405
REMARK  Name = 
REMARK  5 active torsions:
REMARK  status: ('A' for Active; 'I' for Inactive)
REMARK    1  A    between atoms: C_1  and  C_2
REMARK    2  A    between atoms: C_2  and  N_3
REMARK    3  A    between atoms: C_8  and  C_9
REMARK    4  A    between atoms: C_8  and  C_10
REMARK    5  A    between atoms: C_15  and  C_16
REMARK                            x       y       z     vdW  Elec       q    Type
REMARK                         _______ _______ _______ _____ _____    ______ ____
ROOT
ATOM      1  N   UNL     1       0.607  12.926  19.182  0.00  0.00    +0.000 N 
ATOM      2  C   UNL     1      -0.682  12.473  19.262  0.00  0.00    +0.000 C 
ATOM      3  O   UNL     1      -1.589  12.633  18.442  0.00  0.00    +0.000 OA
ATOM      4  C   UNL     1      -0.877  11.953  20.706  0.00  0.00    +0.000 C 
ATOM      5  C   UNL     1      -2.081  12.645  21.348  0.00  0.00    +0.000 C 
ATOM      6  C   UNL     1      -1.725  12.956  22.788  0.00  0.00    +0.000 C 
ATOM      7  C   UNL     1      -0.721  14.163  22.802  0.00  0.00    +0.000 C 
ATOM      8  C   UNL     1      -2.964  13.446  23.547  0.00  0.00    +0.000 C 
ATOM      9  O   UNL     1      -1.219  11.767  23.466  0.00  0.00    +0.000 OA
ATOM     10  C   UNL     1      -0.838  10.643  22.721  0.00  0.00    +0.000 A 
ATOM     11  C   UNL     1      -0.014   9.748  23.395  0.00  0.00    +0.000 A 
ATOM     12  C   UNL     1       0.714   8.795  22.666  0.00  0.00    +0.000 A 
ATOM     13  C   UNL     1       0.552   8.624  21.274  0.00  0.00    +0.000 A 
ATOM     14  C   UNL     1      -0.358   9.469  20.601  0.00  0.00    +0.000 A 
ATOM     15  C   UNL     1      -0.918  10.554  21.295  0.00  0.00    +0.000 A 
ATOM     16  N   UNL     1       0.473  12.286  21.272  0.00  0.00    +0.000 NA
ATOM     17  C   UNL     1       1.231  12.620  20.315  0.00  0.00    +0.000 C 
ATOM     18  N   UNL     1       2.578  12.690  20.506  0.00  0.00    +0.000 N 
ATOM     19  H   UNL     1       2.779  11.936  21.171  0.00  0.00    +0.000 HD
ATOM     20  H   UNL     1       2.792  13.499  21.087  0.00  0.00    +0.000 HD
ENDROOT
BRANCH  13  21
ATOM     21  C   UNL     1       1.442   7.717  20.510  0.00  0.00    +0.000 A 
ATOM     22  C   UNL     1       1.631   6.377  20.893  0.00  0.00    +0.000 A 
ATOM     23  C   UNL     1       2.406   5.500  20.125  0.00  0.00    +0.000 A 
ATOM     24  C   UNL     1       3.006   5.937  18.955  0.00  0.00    +0.000 A 
ATOM     25  C   UNL     1       2.826   7.258  18.547  0.00  0.00    +0.000 A 
ATOM     26 CL   UNL     1       3.558   7.814  17.095  0.00  0.00    +0.000 Cl
ATOM     27  C   UNL     1       2.055   8.131  19.317  0.00  0.00    +0.000 A 
ENDBRANCH  13  21
BRANCH   1  29
ATOM     28  C   UNL     1       0.409  15.379  19.277  0.00  0.00    +0.000 C 
ATOM     29  C   UNL     1       0.974  14.189  18.546  0.00  0.00    +0.000 C 
ENDBRANCH   1  29
TORSDOF 2
ENDMDL
MODEL 7
REMARK VINA RESULT:      -6.7      4.101      6.970
REMARK  Name = 
REMARK  5 active torsions:
REMARK  status: ('A' for Active; 'I' for Inactive)
REMARK    1  A    between atoms: C_1  and  C_2
REMARK    2  A    between atoms: C_2  and  N_3
REMARK    3  A    between atoms: C_8  and  C_9
REMARK    4  A    between atoms: C_8  and  C_10
REMARK    5  A    between atoms: C_15  and  C_16
REMARK                            x       y       z     vdW  Elec       q    Type
REMARK                         _______ _______ _______ _____ _____    ______ ____
ROOT
ATOM      1  N   UNL     1      -0.135  13.326  20.470  0.00  0.00    +0.000 N 
ATOM      2  C   UNL     1      -0.297  12.053  20.945  0.00  0.00    +0.000 C 
ATOM      3  O   UNL     1      -0.163  11.659  22.106  0.00  0.00    +0.000 OA
ATOM      4  C   UNL     1      -0.413  11.132  19.707  0.00  0.00    +0.000 C 
ATOM      5  C   UNL     1       0.631  10.017  19.792  0.00  0.00    +0.000 C 
ATOM      6  C   UNL     1       1.198   9.807  18.402  0.00  0.00    +0.000 C 
ATOM      7  C   UNL     1       2.155  11.004  18.069  0.00  0.00    +0.000 C 
ATOM      8  C   UNL     1       2.084   8.555  18.374  0.00  0.00    +0.000 C 
ATOM      9  O   UNL     1       0.128   9.625  17.426  0.00  0.00    +0.000 OA
ATOM     10  C   UNL     1      -1.192   9.952  17.764  0.00  0.00    +0.000 A 
ATOM     11  C   UNL     1      -2.045  10.130  16.679  0.00  0.00    +0.000 A 
ATOM     12  C   UNL     1      -3.265  10.798  16.862  0.00  0.00    +0.000 A 
ATOM     13  C   UNL     1      -3.727  11.195  18.136  0.00  0.00    +0.000 A 
ATOM     14  C   UNL     1      -2.904  10.929  19.253  0.00  0.00    +0.000 A 
ATOM     15  C   UNL     1      -1.598  10.457  19.039  0.00  0.00    +0.000 A 
ATOM     16  N   UNL     1      -0.225  12.153  18.623  0.00  0.00    +0.000 NA
ATOM     17  C   UNL     1      -0.279  13.303  19.149  0.00  0.00    +0.000 C 
ATOM     18  N   UNL     1      -0.429  14.405  18.362  0.00  0.00    +0.000 N 
ATOM     19  H   UNL     1      -1.029  14.087  17.593  0.00  0.00    +0.000 HD
ATOM     20  H   UNL     1       0.437  14.571  17.852  0.00  0.00    +0.000 HD
ENDROOT
BRANCH  13  21
ATOM     21  C   UNL     1      -4.943  12.030  18.280  0.00  0.00    +0.000 A 
ATOM     22  C   UNL     1      -5.724  12.389  17.167  0.00  0.00    +0.000 A 
ATOM     23  C   UNL     1      -6.916  13.109  17.313  0.00  0.00    +0.000 A 
ATOM     24  C   UNL     1      -7.359  13.481  18.571  0.00  0.00    +0.000 A 
ATOM     25  C   UNL     1      -6.609  13.128  19.693  0.00  0.00    +0.000 A 
ATOM     26 CL   UNL     1      -7.148  13.577  21.261  0.00  0.00    +0.000 Cl
ATOM     27  C   UNL     1      -5.419  12.414  19.543  0.00  0.00    +0.000 A 
ENDBRANCH  13  21
BRANCH   1  29
ATOM     28  C   UNL     1       2.262  13.811  20.763  0.00  0.00    +0.000 C 
ATOM     29  C   UNL     1       0.847  14.264  21.011  0.00  0.00    +0.000 C 
ENDBRANCH   1  29
TORSDOF 2
ENDMDL
MODEL 8
REMARK VINA RESULT:      -6.6      4.035      5.547
REMARK  Name = 
REMARK  5 active torsions:
REMARK  status: ('A' for Active; 'I' for Inactive)
REMARK    1  A    between atoms: C_1  and  C_2
REMARK    2  A    between atoms: C_2  and  N_3
REMARK    3  A    between atoms: C_8  and  C_9
REMARK    4  A    between atoms: C_8  and  C_10
REMARK    5  A    between atoms: C_15  and  C_16
REMARK                            x       y       z     vdW  Elec       q    Type
REMARK                         _______ _______ _______ _____ _____    ______ ____
ROOT
ATOM      1  N   UNL     1      -5.212  14.094  22.291  0.00  0.00    +0.000 N 
ATOM      2  C   UNL     1      -4.658  13.299  23.257  0.00  0.00    +0.000 C 
ATOM      3  O   UNL     1      -5.243  12.563  24.055  0.00  0.00    +0.000 OA
ATOM      4  C   UNL     1      -3.166  13.698  23.354  0.00  0.00    +0.000 C 
ATOM      5  C   UNL     1      -2.821  14.069  24.797  0.00  0.00    +0.000 C 
ATOM      6  C   UNL     1      -1.902  15.273  24.760  0.00  0.00    +0.000 C 
ATOM      7  C   UNL     1      -2.754  16.538  24.386  0.00  0.00    +0.000 C 
ATOM      8  C   UNL     1      -1.342  15.557  26.160  0.00  0.00    +0.000 C 
ATOM      9  O   UNL     1      -0.777  15.040  23.861  0.00  0.00    +0.000 OA
ATOM     10  C   UNL     1      -0.811  13.971  22.957  0.00  0.00    +0.000 A 
ATOM     11  C   UNL     1       0.087  14.071  21.899  0.00  0.00    +0.000 A 
ATOM     12  C   UNL     1      -0.094  13.272  20.760  0.00  0.00    +0.000 A 
ATOM     13  C   UNL     1      -1.089  12.272  20.688  0.00  0.00    +0.000 A 
ATOM     14  C   UNL     1      -1.943  12.103  21.801  0.00  0.00    +0.000 A 
ATOM     15  C   UNL     1      -1.894  13.043  22.844  0.00  0.00    +0.000 A 
ATOM     16  N   UNL     1      -3.143  14.812  22.347  0.00  0.00    +0.000 NA
ATOM     17  C   UNL     1      -4.240  14.795  21.716  0.00  0.00    +0.000 C 
ATOM     18  N   UNL     1      -4.371  15.504  20.559  0.00  0.00    +0.000 N 
ATOM     19  H   UNL     1      -3.445  15.444  20.120  0.00  0.00    +0.000 HD
ATOM     20  H   UNL     1      -4.398  16.498  20.778  0.00  0.00    +0.000 HD
ENDROOT
BRANCH  13  21
ATOM     21  C   UNL     1      -1.354  11.551  19.421  0.00  0.00    +0.000 A 
ATOM     22  C   UNL     1      -0.486  10.549  18.950  0.00  0.00    +0.000 A 
ATOM     23  C   UNL     1      -0.780   9.812  17.796  0.00  0.00    +0.000 A 
ATOM     24  C   UNL     1      -1.946  10.054  17.089  0.00  0.00    +0.000 A 
ATOM     25  C   UNL     1      -2.829  11.034  17.540  0.00  0.00    +0.000 A 
ATOM     26 CL   UNL     1      -4.283  11.342  16.678  0.00  0.00    +0.000 Cl
ATOM     27  C   UNL     1      -2.531  11.770  18.689  0.00  0.00    +0.000 A 
ENDBRANCH  13  21
BRANCH   1  29
ATOM     28  C   UNL     1      -6.499  15.757  23.575  0.00  0.00    +0.000 C 
ATOM     29  C   UNL     1      -6.504  14.759  22.446  0.00  0.00    +0.000 C 
ENDBRANCH   1  29
TORSDOF 2
ENDMDL
MODEL 9
REMARK VINA RESULT:      -6.6      8.068     10.568
REMARK  Name = 
REMARK  5 active torsions:
REMARK  status: ('A' for Active; 'I' for Inactive)
REMARK    1  A    between atoms: C_1  and  C_2
REMARK    2  A    between atoms: C_2  and  N_3
REMARK    3  A    between atoms: C_8  and  C_9
REMARK    4  A    between atoms: C_8  and  C_10
REMARK    5  A    between atoms: C_15  and  C_16
REMARK                            x       y       z     vdW  Elec       q    Type
REMARK                         _______ _______ _______ _____ _____    ______ ____
ROOT
ATOM      1  N   UNL     1       9.061  12.584  19.687  0.00  0.00    +0.000 N 
ATOM      2  C   UNL     1       9.244  12.929  18.375  0.00  0.00    +0.000 C 
ATOM      3  O   UNL     1       9.563  12.191  17.440  0.00  0.00    +0.000 OA
ATOM      4  C   UNL     1       9.246  14.475  18.322  0.00  0.00    +0.000 C 
ATOM      5  C   UNL     1      10.528  14.968  17.646  0.00  0.00    +0.000 C 
ATOM      6  C   UNL     1      11.012  16.188  18.403  0.00  0.00    +0.000 C 
ATOM      7  C   UNL     1      11.628  15.716  19.766  0.00  0.00    +0.000 C 
ATOM      8  C   UNL     1      12.163  16.861  17.645  0.00  0.00    +0.000 C 
ATOM      9  O   UNL     1       9.938  17.165  18.554  0.00  0.00    +0.000 OA
ATOM     10  C   UNL     1       8.611  16.793  18.304  0.00  0.00    +0.000 A 
ATOM     11  C   UNL     1       7.653  17.640  18.852  0.00  0.00    +0.000 A 
ATOM     12  C   UNL     1       6.329  17.195  18.982  0.00  0.00    +0.000 A 
ATOM     13  C   UNL     1       5.894  15.956  18.463  0.00  0.00    +0.000 A 
ATOM     14  C   UNL     1       6.846  15.134  17.819  0.00  0.00    +0.000 A 
ATOM     15  C   UNL     1       8.204  15.488  17.882  0.00  0.00    +0.000 A 
ATOM     16  N   UNL     1       9.098  14.772  19.786  0.00  0.00    +0.000 NA
ATOM     17  C   UNL     1       8.818  13.692  20.382  0.00  0.00    +0.000 C 
ATOM     18  N   UNL     1       8.347  13.722  21.660  0.00  0.00    +0.000 N 
ATOM     19  H   UNL     1       7.778  14.574  21.700  0.00  0.00    +0.000 HD
ATOM     20  H   UNL     1       9.104  13.986  22.288  0.00  0.00    +0.000 HD
ENDROOT
BRANCH  13  21
ATOM     21  C   UNL     1       4.531  15.447  18.747  0.00  0.00    +0.000 A 
ATOM     22  C   UNL     1       3.542  16.271  19.315  0.00  0.00    +0.000 A 
ATOM     23  C   UNL     1       2.233  15.813  19.507  0.00  0.00    +0.000 A 
ATOM     24  C   UNL     1       1.879  14.528  19.134  0.00  0.00    +0.000 A 
ATOM     25  C   UNL     1       2.837  13.694  18.560  0.00  0.00    +0.000 A 
ATOM     26 CL   UNL     1       2.412  12.098  18.085  0.00  0.00    +0.000 Cl
ATOM     27  C   UNL     1       4.142  14.151  18.373  0.00  0.00    +0.000 A 
ENDBRANCH  13  21
BRANCH   1  29
ATOM     28  C   UNL     1      11.305  11.865  20.402  0.00  0.00    +0.000 C 
ATOM     29  C   UNL     1       9.834  11.541  20.356  0.00  0.00    +0.000 C 
ENDBRANCH   1  29
TORSDOF 2
ENDMDL
