MODEL 1
REMARK VINA RESULT:      -9.2      0.000      0.000
REMARK  Name = 
REMARK  5 active torsions:
REMARK  status: ('A' for Active; 'I' for Inactive)
REMARK    1  A    between atoms: C_1  and  C_2
REMARK    2  A    between atoms: C_2  and  C_3
REMARK    3  A    between atoms: C_7  and  C_8
REMARK    4  A    between atoms: C_14  and  O_15
REMARK    5  A    between atoms: C_21  and  O_22
REMARK                            x       y       z     vdW  Elec       q    Type
REMARK                         _______ _______ _______ _____ _____    ______ ____
ROOT
ATOM      1  C   UNL     1       3.478   1.140  18.457  0.00  0.00    +0.000 C 
ATOM      2  C   UNL     1       3.416   2.656  18.693  0.00  0.00    +0.000 C 
ATOM      3  C   UNL     1       3.840   2.929  20.147  0.00  0.00    +0.000 C 
ATOM      4  C   UNL     1       2.003   3.145  18.364  0.00  0.00    +0.000 C 
ATOM      5  C   UNL     1       1.907   4.644  18.590  0.00  0.00    +0.000 C 
ATOM      6  C   UNL     1       3.099   5.367  18.017  0.00  0.00    +0.000 A 
ATOM      7  C   UNL     1       3.112   6.780  17.907  0.00  0.00    +0.000 A 
ATOM      8  C   UNL     1       4.229   7.403  17.317  0.00  0.00    +0.000 A 
ATOM      9  C   UNL     1       5.328   6.663  16.883  0.00  0.00    +0.000 A 
ATOM     10  C   UNL     1       5.333   5.283  17.046  0.00  0.00    +0.000 A 
ATOM     11  C   UNL     1       4.238   4.631  17.625  0.00  0.00    +0.000 A 
ATOM     12  O   UNL     1       4.351   3.268  17.791  0.00  0.00    +0.000 OA
ENDROOT
BRANCH   7  13
ATOM     13  C   UNL     1       1.956   7.645  18.414  0.00  0.00    +0.000 C 
ATOM     14  C   UNL     1       1.939   9.008  17.720  0.00  0.00    +0.000 C 
ATOM     15  C   UNL     1       0.720   9.784  18.201  0.00  0.00    +0.000 C 
ATOM     16  C   UNL     1       0.626   9.736  19.698  0.00  0.00    +0.000 A 
ATOM     17  C   UNL     1      -0.151  10.680  20.386  0.00  0.00    +0.000 A 
ATOM     18  C   UNL     1      -0.235  10.644  21.780  0.00  0.00    +0.000 A 
ATOM     19  C   UNL     1       0.452   9.660  22.480  0.00  0.00    +0.000 A 
ATOM     20  C   UNL     1       1.214   8.709  21.812  0.00  0.00    +0.000 A 
ATOM     21  C   UNL     1       1.291   8.739  20.421  0.00  0.00    +0.000 A 
ATOM     22  O   UNL     1       2.074   7.779  19.842  0.00  0.00    +0.000 OA
BRANCH  19  23
ATOM     23  O   UNL     1       0.403   9.595  23.843  0.00  0.00    +0.000 OA
ATOM     24  H   UNL     1      -0.445   9.962  24.142  0.00  0.00    +0.000 HD
ENDBRANCH  19  23
ENDBRANCH   7  13
BRANCH  10  25
ATOM     25  O   UNL     1       6.422   4.554  16.650  0.00  0.00    +0.000 OA
ATOM     26  H   UNL     1       7.075   5.153  16.259  0.00  0.00    +0.000 HD
ENDBRANCH  10  25
TORSDOF 3
ENDMDL
MODEL 2
REMARK VINA RESULT:      -8.1      2.861      7.412
REMARK  Name = 
REMARK  5 active torsions:
REMARK  status: ('A' for Active; 'I' for Inactive)
REMARK    1  A    between atoms: C_1  and  C_2
REMARK    2  A    between atoms: C_2  and  C_3
REMARK    3  A    between atoms: C_7  and  C_8
REMARK    4  A    between atoms: C_14  and  O_15
REMARK    5  A    between atoms: C_21  and  O_22
REMARK                            x       y       z     vdW  Elec       q    Type
REMARK                         _______ _______ _______ _____ _____    ______ ____
ROOT
ATOM      1  C   UNL     1       1.540   2.517  21.594  0.00  0.00    +0.000 C 
ATOM      2  C   UNL     1       2.082   3.119  20.290  0.00  0.00    +0.000 C 
ATOM      3  C   UNL     1       1.159   2.676  19.141  0.00  0.00    +0.000 C 
ATOM      4  C   UNL     1       3.537   2.677  20.114  0.00  0.00    +0.000 C 
ATOM      5  C   UNL     1       4.103   3.255  18.828  0.00  0.00    +0.000 C 
ATOM      6  C   UNL     1       3.742   4.710  18.671  0.00  0.00    +0.000 A 
ATOM      7  C   UNL     1       4.351   5.509  17.672  0.00  0.00    +0.000 A 
ATOM      8  C   UNL     1       4.016   6.876  17.600  0.00  0.00    +0.000 A 
ATOM      9  C   UNL     1       3.074   7.438  18.460  0.00  0.00    +0.000 A 
ATOM     10  C   UNL     1       2.439   6.636  19.400  0.00  0.00    +0.000 A 
ATOM     11  C   UNL     1       2.750   5.274  19.501  0.00  0.00    +0.000 A 
ATOM     12  O   UNL     1       2.035   4.548  20.428  0.00  0.00    +0.000 OA
ENDROOT
BRANCH   7  13
ATOM     13  C   UNL     1       5.353   4.932  16.669  0.00  0.00    +0.000 C 
ATOM     14  C   UNL     1       6.451   5.945  16.339  0.00  0.00    +0.000 C 
ATOM     15  C   UNL     1       7.460   5.283  15.409  0.00  0.00    +0.000 C 
ATOM     16  C   UNL     1       6.754   4.591  14.279  0.00  0.00    +0.000 A 
ATOM     17  C   UNL     1       7.452   4.263  13.108  0.00  0.00    +0.000 A 
ATOM     18  C   UNL     1       6.799   3.626  12.050  0.00  0.00    +0.000 A 
ATOM     19  C   UNL     1       5.451   3.311  12.172  0.00  0.00    +0.000 A 
ATOM     20  C   UNL     1       4.749   3.616  13.332  0.00  0.00    +0.000 A 
ATOM     21  C   UNL     1       5.403   4.244  14.390  0.00  0.00    +0.000 A 
ATOM     22  O   UNL     1       4.637   4.523  15.488  0.00  0.00    +0.000 OA
BRANCH  19  23
ATOM     23  O   UNL     1       4.773   2.696  11.159  0.00  0.00    +0.000 OA
ATOM     24  H   UNL     1       5.047   1.766  11.121  0.00  0.00    +0.000 HD
ENDBRANCH  19  23
ENDBRANCH   7  13
BRANCH  10  25
ATOM     25  O   UNL     1       1.490   7.176  20.227  0.00  0.00    +0.000 OA
ATOM     26  H   UNL     1       1.277   8.069  19.918  0.00  0.00    +0.000 HD
ENDBRANCH  10  25
TORSDOF 3
ENDMDL
MODEL 3
REMARK VINA RESULT:      -7.8      1.256      2.932
REMARK  Name = 
REMARK  5 active torsions:
REMARK  status: ('A' for Active; 'I' for Inactive)
REMARK    1  A    between atoms: C_1  and  C_2
REMARK    2  A    between atoms: C_2  and  C_3
REMARK    3  A    between atoms: C_7  and  C_8
REMARK    4  A    between atoms: C_14  and  O_15
REMARK    5  A    between atoms: C_21  and  O_22
REMARK                            x       y       z     vdW  Elec       q    Type
REMARK                         _______ _______ _______ _____ _____    ______ ____
ROOT
ATOM      1  C   UNL     1       7.462   4.544  16.523  0.00  0.00    +0.000 C 
ATOM      2  C   UNL     1       6.016   4.789  16.977  0.00  0.00    +0.000 C 
ATOM      3  C   UNL     1       5.079   4.382  15.826  0.00  0.00    +0.000 C 
ATOM      4  C   UNL     1       5.875   6.254  17.395  0.00  0.00    +0.000 C 
ATOM      5  C   UNL     1       4.452   6.530  17.850  0.00  0.00    +0.000 C 
ATOM      6  C   UNL     1       3.942   5.443  18.761  0.00  0.00    +0.000 A 
ATOM      7  C   UNL     1       2.735   5.604  19.484  0.00  0.00    +0.000 A 
ATOM      8  C   UNL     1       2.329   4.579  20.362  0.00  0.00    +0.000 A 
ATOM      9  C   UNL     1       3.067   3.404  20.495  0.00  0.00    +0.000 A 
ATOM     10  C   UNL     1       4.219   3.228  19.739  0.00  0.00    +0.000 A 
ATOM     11  C   UNL     1       4.654   4.228  18.860  0.00  0.00    +0.000 A 
ATOM     12  O   UNL     1       5.779   3.947  18.117  0.00  0.00    +0.000 OA
ENDROOT
BRANCH   7  13
ATOM     13  C   UNL     1       1.860   6.850  19.338  0.00  0.00    +0.000 C 
ATOM     14  C   UNL     1       2.510   7.878  18.410  0.00  0.00    +0.000 C 
ATOM     15  C   UNL     1       1.554   9.051  18.236  0.00  0.00    +0.000 C 
ATOM     16  C   UNL     1       1.039   9.508  19.570  0.00  0.00    +0.000 A 
ATOM     17  C   UNL     1       0.480  10.787  19.709  0.00  0.00    +0.000 A 
ATOM     18  C   UNL     1       0.006  11.220  20.949  0.00  0.00    +0.000 A 
ATOM     19  C   UNL     1       0.085  10.369  22.044  0.00  0.00    +0.000 A 
ATOM     20  C   UNL     1       0.623   9.094  21.920  0.00  0.00    +0.000 A 
ATOM     21  C   UNL     1       1.088   8.659  20.681  0.00  0.00    +0.000 A 
ATOM     22  O   UNL     1       1.616   7.398  20.647  0.00  0.00    +0.000 OA
BRANCH  19  23
ATOM     23  O   UNL     1      -0.358  10.757  23.276  0.00  0.00    +0.000 OA
ATOM     24  H   UNL     1      -1.260  11.105  23.187  0.00  0.00    +0.000 HD
ENDBRANCH  19  23
ENDBRANCH   7  13
BRANCH  10  25
ATOM     25  O   UNL     1       4.932   2.064  19.843  0.00  0.00    +0.000 OA
ATOM     26  H   UNL     1       5.801   2.190  19.434  0.00  0.00    +0.000 HD
ENDBRANCH  10  25
TORSDOF 3
ENDMDL
MODEL 4
REMARK VINA RESULT:      -7.7      1.728      3.574
REMARK  Name = 
REMARK  5 active torsions:
REMARK  status: ('A' for Active; 'I' for Inactive)
REMARK    1  A    between atoms: C_1  and  C_2
REMARK    2  A    between atoms: C_2  and  C_3
REMARK    3  A    between atoms: C_7  and  C_8
REMARK    4  A    between atoms: C_14  and  O_15
REMARK    5  A    between atoms: C_21  and  O_22
REMARK                            x       y       z     vdW  Elec       q    Type
REMARK                         _______ _______ _______ _____ _____    ______ ____
ROOT
ATOM      1  C   UNL     1       7.093   4.313  16.064  0.00  0.00    +0.000 C 
ATOM      2  C   UNL     1       5.800   4.945  16.601  0.00  0.00    +0.000 C 
ATOM      3  C   UNL     1       5.185   5.798  15.478  0.00  0.00    +0.000 C 
ATOM      4  C   UNL     1       6.133   5.741  17.865  0.00  0.00    +0.000 C 
ATOM      5  C   UNL     1       4.873   6.381  18.421  0.00  0.00    +0.000 C 
ATOM      6  C   UNL     1       3.719   5.412  18.433  0.00  0.00    +0.000 A 
ATOM      7  C   UNL     1       2.517   5.717  19.118  0.00  0.00    +0.000 A 
ATOM      8  C   UNL     1       1.488   4.755  19.141  0.00  0.00    +0.000 A 
ATOM      9  C   UNL     1       1.616   3.539  18.473  0.00  0.00    +0.000 A 
ATOM     10  C   UNL     1       2.776   3.270  17.755  0.00  0.00    +0.000 A 
ATOM     11  C   UNL     1       3.820   4.202  17.714  0.00  0.00    +0.000 A 
ATOM     12  O   UNL     1       4.909   3.870  16.939  0.00  0.00    +0.000 OA
ENDROOT
BRANCH   7  13
ATOM     13  C   UNL     1       2.302   7.057  19.825  0.00  0.00    +0.000 C 
ATOM     14  C   UNL     1       1.238   6.942  20.917  0.00  0.00    +0.000 C 
ATOM     15  C   UNL     1       1.134   8.280  21.639  0.00  0.00    +0.000 C 
ATOM     16  C   UNL     1       1.031   9.402  20.647  0.00  0.00    +0.000 A 
ATOM     17  C   UNL     1       0.534  10.652  21.046  0.00  0.00    +0.000 A 
ATOM     18  C   UNL     1       0.429  11.697  20.126  0.00  0.00    +0.000 A 
ATOM     19  C   UNL     1       0.830  11.491  18.812  0.00  0.00    +0.000 A 
ATOM     20  C   UNL     1       1.338  10.264  18.404  0.00  0.00    +0.000 A 
ATOM     21  C   UNL     1       1.451   9.224  19.324  0.00  0.00    +0.000 A 
ATOM     22  O   UNL     1       1.945   8.045  18.839  0.00  0.00    +0.000 OA
BRANCH  19  23
ATOM     23  O   UNL     1       0.736  12.484  17.879  0.00  0.00    +0.000 OA
ATOM     24  H   UNL     1       1.491  13.085  17.986  0.00  0.00    +0.000 HD
ENDBRANCH  19  23
ENDBRANCH   7  13
BRANCH  10  25
ATOM     25  O   UNL     1       2.896   2.089  17.072  0.00  0.00    +0.000 OA
ATOM     26  H   UNL     1       3.408   2.245  16.265  0.00  0.00    +0.000 HD
ENDBRANCH  10  25
TORSDOF 3
ENDMDL
MODEL 5
REMARK VINA RESULT:      -7.5      1.773      7.596
REMARK  Name = 
REMARK  5 active torsions:
REMARK  status: ('A' for Active; 'I' for Inactive)
REMARK    1  A    between atoms: C_1  and  C_2
REMARK    2  A    between atoms: C_2  and  C_3
REMARK    3  A    between atoms: C_7  and  C_8
REMARK    4  A    between atoms: C_14  and  O_15
REMARK    5  A    between atoms: C_21  and  O_22
REMARK                            x       y       z     vdW  Elec       q    Type
REMARK                         _______ _______ _______ _____ _____    ______ ____
ROOT
ATOM      1  C   UNL     1      -0.603  13.111  18.661  0.00  0.00    +0.000 C 
ATOM      2  C   UNL     1       0.332  11.901  18.803  0.00  0.00    +0.000 C 
ATOM      3  C   UNL     1       1.777  12.390  18.607  0.00  0.00    +0.000 C 
ATOM      4  C   UNL     1      -0.096  10.830  17.796  0.00  0.00    +0.000 C 
ATOM      5  C   UNL     1       0.812   9.618  17.909  0.00  0.00    +0.000 C 
ATOM      6  C   UNL     1       1.047   9.236  19.349  0.00  0.00    +0.000 A 
ATOM      7  C   UNL     1       1.668   8.009  19.686  0.00  0.00    +0.000 A 
ATOM      8  C   UNL     1       1.818   7.676  21.047  0.00  0.00    +0.000 A 
ATOM      9  C   UNL     1       1.407   8.546  22.055  0.00  0.00    +0.000 A 
ATOM     10  C   UNL     1       0.850   9.774  21.718  0.00  0.00    +0.000 A 
ATOM     11  C   UNL     1       0.683  10.135  20.375  0.00  0.00    +0.000 A 
ATOM     12  O   UNL     1       0.168  11.389  20.135  0.00  0.00    +0.000 OA
ENDROOT
BRANCH   7  13
ATOM     13  C   UNL     1       2.185   7.040  18.620  0.00  0.00    +0.000 C 
ATOM     14  C   UNL     1       1.990   5.586  19.052  0.00  0.00    +0.000 C 
ATOM     15  C   UNL     1       2.440   4.676  17.916  0.00  0.00    +0.000 C 
ATOM     16  C   UNL     1       3.787   5.102  17.408  0.00  0.00    +0.000 A 
ATOM     17  C   UNL     1       4.574   4.210  16.664  0.00  0.00    +0.000 A 
ATOM     18  C   UNL     1       5.831   4.599  16.195  0.00  0.00    +0.000 A 
ATOM     19  C   UNL     1       6.293   5.881  16.465  0.00  0.00    +0.000 A 
ATOM     20  C   UNL     1       5.519   6.781  17.187  0.00  0.00    +0.000 A 
ATOM     21  C   UNL     1       4.262   6.396  17.648  0.00  0.00    +0.000 A 
ATOM     22  O   UNL     1       3.571   7.335  18.364  0.00  0.00    +0.000 OA
BRANCH  19  23
ATOM     23  O   UNL     1       7.519   6.298  16.033  0.00  0.00    +0.000 OA
ATOM     24  H   UNL     1       7.826   7.015  16.612  0.00  0.00    +0.000 HD
ENDBRANCH  19  23
ENDBRANCH   7  13
BRANCH  10  25
ATOM     25  O   UNL     1       0.472  10.645  22.704  0.00  0.00    +0.000 OA
ATOM     26  H   UNL     1       1.134  11.349  22.771  0.00  0.00    +0.000 HD
ENDBRANCH  10  25
TORSDOF 3
ENDMDL
MODEL 6
REMARK VINA RESULT:      -7.5      1.049      2.953
REMARK  Name = 
REMARK  5 active torsions:
REMARK  status: ('A' for Active; 'I' for Inactive)
REMARK    1  A    between atoms: C_1  and  C_2
REMARK    2  A    between atoms: C_2  and  C_3
REMARK    3  A    between atoms: C_7  and  C_8
REMARK    4  A    between atoms: C_14  and  O_15
REMARK    5  A    between atoms: C_21  and  O_22
REMARK                            x       y       z     vdW  Elec       q    Type
REMARK                         _______ _______ _______ _____ _____    ______ ____
ROOT
ATOM      1  C   UNL     1       7.552   4.705  15.906  0.00  0.00    +0.000 C 
ATOM      2  C   UNL     1       6.079   5.009  16.215  0.00  0.00    +0.000 C 
ATOM      3  C   UNL     1       5.333   5.160  14.878  0.00  0.00    +0.000 C 
ATOM      4  C   UNL     1       6.012   6.256  17.101  0.00  0.00    +0.000 C 
ATOM      5  C   UNL     1       4.565   6.586  17.423  0.00  0.00    +0.000 C 
ATOM      6  C   UNL     1       3.790   5.352  17.813  0.00  0.00    +0.000 A 
ATOM      7  C   UNL     1       2.494   5.452  18.375  0.00  0.00    +0.000 A 
ATOM      8  C   UNL     1       1.834   4.271  18.769  0.00  0.00    +0.000 A 
ATOM      9  C   UNL     1       2.413   3.018  18.579  0.00  0.00    +0.000 A 
ATOM     10  C   UNL     1       3.661   2.924  17.975  0.00  0.00    +0.000 A 
ATOM     11  C   UNL     1       4.346   4.077  17.574  0.00  0.00    +0.000 A 
ATOM     12  O   UNL     1       5.554   3.885  16.940  0.00  0.00    +0.000 OA
ENDROOT
BRANCH   7  13
ATOM     13  C   UNL     1       1.789   6.798  18.559  0.00  0.00    +0.000 C 
ATOM     14  C   UNL     1       2.523   7.914  17.813  0.00  0.00    +0.000 C 
ATOM     15  C   UNL     1       1.727   9.204  17.963  0.00  0.00    +0.000 C 
ATOM     16  C   UNL     1       1.351   9.423  19.399  0.00  0.00    +0.000 A 
ATOM     17  C   UNL     1       0.979  10.701  19.843  0.00  0.00    +0.000 A 
ATOM     18  C   UNL     1       0.635  10.912  21.181  0.00  0.00    +0.000 A 
ATOM     19  C   UNL     1       0.657   9.843  22.067  0.00  0.00    +0.000 A 
ATOM     20  C   UNL     1       1.009   8.568  21.640  0.00  0.00    +0.000 A 
ATOM     21  C   UNL     1       1.344   8.356  20.304  0.00  0.00    +0.000 A 
ATOM     22  O   UNL     1       1.693   7.077  19.968  0.00  0.00    +0.000 OA
BRANCH  19  23
ATOM     23  O   UNL     1       0.337  10.008  23.384  0.00  0.00    +0.000 OA
ATOM     24  H   UNL     1       1.094   9.731  23.925  0.00  0.00    +0.000 HD
ENDBRANCH  19  23
ENDBRANCH   7  13
BRANCH  10  25
ATOM     25  O   UNL     1       4.222   1.694  17.757  0.00  0.00    +0.000 OA
ATOM     26  H   UNL     1       3.975   1.104  18.484  0.00  0.00    +0.000 HD
ENDBRANCH  10  25
TORSDOF 3
ENDMDL
MODEL 7
REMARK VINA RESULT:      -7.0      3.205      7.824
REMARK  Name = 
REMARK  5 active torsions:
REMARK  status: ('A' for Active; 'I' for Inactive)
REMARK    1  A    between atoms: C_1  and  C_2
REMARK    2  A    between atoms: C_2  and  C_3
REMARK    3  A    between atoms: C_7  and  C_8
REMARK    4  A    between atoms: C_14  and  O_15
REMARK    5  A    between atoms: C_21  and  O_22
REMARK                            x       y       z     vdW  Elec       q    Type
REMARK                         _______ _______ _______ _____ _____    ______ ____
ROOT
ATOM      1  C   UNL     1      -4.749  11.599  16.817  0.00  0.00    +0.000 C 
ATOM      2  C   UNL     1      -3.301  11.112  16.976  0.00  0.00    +0.000 C 
ATOM      3  C   UNL     1      -2.734  10.837  15.572  0.00  0.00    +0.000 C 
ATOM      4  C   UNL     1      -3.295   9.885  17.892  0.00  0.00    +0.000 C 
ATOM      5  C   UNL     1      -1.875   9.377  18.069  0.00  0.00    +0.000 C 
ATOM      6  C   UNL     1      -0.911  10.506  18.330  0.00  0.00    +0.000 A 
ATOM      7  C   UNL     1       0.417  10.250  18.751  0.00  0.00    +0.000 A 
ATOM      8  C   UNL     1       1.261  11.343  19.031  0.00  0.00    +0.000 A 
ATOM      9  C   UNL     1       0.828  12.657  18.860  0.00  0.00    +0.000 A 
ATOM     10  C   UNL     1      -0.457  12.900  18.391  0.00  0.00    +0.000 A 
ATOM     11  C   UNL     1      -1.324  11.838  18.107  0.00  0.00    +0.000 A 
ATOM     12  O   UNL     1      -2.561  12.172  17.601  0.00  0.00    +0.000 OA
ENDROOT
BRANCH   7  13
ATOM     13  C   UNL     1       0.960   8.828  18.906  0.00  0.00    +0.000 C 
ATOM     14  C   UNL     1       1.301   8.521  20.365  0.00  0.00    +0.000 C 
ATOM     15  C   UNL     1       1.750   7.069  20.464  0.00  0.00    +0.000 C 
ATOM     16  C   UNL     1       2.771   6.764  19.406  0.00  0.00    +0.000 A 
ATOM     17  C   UNL     1       3.612   5.649  19.539  0.00  0.00    +0.000 A 
ATOM     18  C   UNL     1       4.568   5.365  18.561  0.00  0.00    +0.000 A 
ATOM     19  C   UNL     1       4.674   6.193  17.451  0.00  0.00    +0.000 A 
ATOM     20  C   UNL     1       3.840   7.292  17.298  0.00  0.00    +0.000 A 
ATOM     21  C   UNL     1       2.880   7.572  18.269  0.00  0.00    +0.000 A 
ATOM     22  O   UNL     1       2.110   8.680  18.051  0.00  0.00    +0.000 OA
BRANCH  19  23
ATOM     23  O   UNL     1       5.601   5.955  16.477  0.00  0.00    +0.000 OA
ATOM     24  H   UNL     1       6.379   6.512  16.645  0.00  0.00    +0.000 HD
ENDBRANCH  19  23
ENDBRANCH   7  13
BRANCH  10  25
ATOM     25  O   UNL     1      -0.878  14.188  18.192  0.00  0.00    +0.000 OA
ATOM     26  H   UNL     1      -0.398  14.561  17.439  0.00  0.00    +0.000 HD
ENDBRANCH  10  25
TORSDOF 3
ENDMDL
MODEL 8
REMARK VINA RESULT:      -7.0      2.646      7.918
REMARK  Name = 
REMARK  5 active torsions:
REMARK  status: ('A' for Active; 'I' for Inactive)
REMARK    1  A    between atoms: C_1  and  C_2
REMARK    2  A    between atoms: C_2  and  C_3
REMARK    3  A    between atoms: C_7  and  C_8
REMARK    4  A    between atoms: C_14  and  O_15
REMARK    5  A    between atoms: C_21  and  O_22
REMARK                            x       y       z     vdW  Elec       q    Type
REMARK                         _______ _______ _______ _____ _____    ______ ____
ROOT
ATOM      1  C   UNL     1      -1.470  14.024  22.996  0.00  0.00    +0.000 C 
ATOM      2  C   UNL     1      -1.154  12.743  22.210  0.00  0.00    +0.000 C 
ATOM      3  C   UNL     1      -1.635  11.543  23.044  0.00  0.00    +0.000 C 
ATOM      4  C   UNL     1       0.344  12.715  21.900  0.00  0.00    +0.000 C 
ATOM      5  C   UNL     1       0.690  11.457  21.123  0.00  0.00    +0.000 C 
ATOM      6  C   UNL     1      -0.304  11.197  20.020  0.00  0.00    +0.000 A 
ATOM      7  C   UNL     1      -0.055  10.216  19.029  0.00  0.00    +0.000 A 
ATOM      8  C   UNL     1      -0.993  10.048  17.991  0.00  0.00    +0.000 A 
ATOM      9  C   UNL     1      -2.169  10.794  17.949  0.00  0.00    +0.000 A 
ATOM     10  C   UNL     1      -2.434  11.714  18.956  0.00  0.00    +0.000 A 
ATOM     11  C   UNL     1      -1.523  11.909  20.000  0.00  0.00    +0.000 A 
ATOM     12  O   UNL     1      -1.891  12.806  20.979  0.00  0.00    +0.000 OA
ENDROOT
BRANCH   7  13
ATOM     13  C   UNL     1       1.195   9.333  19.056  0.00  0.00    +0.000 C 
ATOM     14  C   UNL     1       1.654   8.980  17.640  0.00  0.00    +0.000 C 
ATOM     15  C   UNL     1       2.945   8.178  17.733  0.00  0.00    +0.000 C 
ATOM     16  C   UNL     1       2.805   7.075  18.742  0.00  0.00    +0.000 A 
ATOM     17  C   UNL     1       3.685   5.983  18.719  0.00  0.00    +0.000 A 
ATOM     18  C   UNL     1       3.554   4.950  19.650  0.00  0.00    +0.000 A 
ATOM     19  C   UNL     1       2.548   5.018  20.606  0.00  0.00    +0.000 A 
ATOM     20  C   UNL     1       1.678   6.099  20.651  0.00  0.00    +0.000 A 
ATOM     21  C   UNL     1       1.813   7.134  19.727  0.00  0.00    +0.000 A 
ATOM     22  O   UNL     1       0.907   8.153  19.830  0.00  0.00    +0.000 OA
BRANCH  19  23
ATOM     23  O   UNL     1       2.380   4.025  21.529  0.00  0.00    +0.000 OA
ATOM     24  H   UNL     1       1.634   3.468  21.254  0.00  0.00    +0.000 HD
ENDBRANCH  19  23
ENDBRANCH   7  13
BRANCH  10  25
ATOM     25  O   UNL     1      -3.602  12.429  18.936  0.00  0.00    +0.000 OA
ATOM     26  H   UNL     1      -3.614  13.031  19.694  0.00  0.00    +0.000 HD
ENDBRANCH  10  25
TORSDOF 3
ENDMDL
MODEL 9
REMARK VINA RESULT:      -7.0      3.250      8.075
REMARK  Name = 
REMARK  5 active torsions:
REMARK  status: ('A' for Active; 'I' for Inactive)
REMARK    1  A    between atoms: C_1  and  C_2
REMARK    2  A    between atoms: C_2  and  C_3
REMARK    3  A    between atoms: C_7  and  C_8
REMARK    4  A    between atoms: C_14  and  O_15
REMARK    5  A    between atoms: C_21  and  O_22
REMARK                            x       y       z     vdW  Elec       q    Type
REMARK                         _______ _______ _______ _____ _____    ______ ____
ROOT
ATOM      1  C   UNL     1       1.797  16.136  18.695  0.00  0.00    +0.000 C 
ATOM      2  C   UNL     1       1.699  14.669  19.135  0.00  0.00    +0.000 C 
ATOM      3  C   UNL     1       2.196  14.573  20.589  0.00  0.00    +0.000 C 
ATOM      4  C   UNL     1       2.500  13.809  18.155  0.00  0.00    +0.000 C 
ATOM      5  C   UNL     1       2.425  12.348  18.564  0.00  0.00    +0.000 C 
ATOM      6  C   UNL     1       1.018  11.948  18.929  0.00  0.00    +0.000 A 
ATOM      7  C   UNL     1       0.672  10.587  19.117  0.00  0.00    +0.000 A 
ATOM      8  C   UNL     1      -0.669  10.263  19.406  0.00  0.00    +0.000 A 
ATOM      9  C   UNL     1      -1.639  11.252  19.551  0.00  0.00    +0.000 A 
ATOM     10  C   UNL     1      -1.281  12.589  19.422  0.00  0.00    +0.000 A 
ATOM     11  C   UNL     1       0.041  12.947  19.131  0.00  0.00    +0.000 A 
ATOM     12  O   UNL     1       0.313  14.295  19.070  0.00  0.00    +0.000 OA
ENDROOT
BRANCH   7  13
ATOM     13  C   UNL     1       1.707   9.465  19.021  0.00  0.00    +0.000 C 
ATOM     14  C   UNL     1       1.865   8.979  17.579  0.00  0.00    +0.000 C 
ATOM     15  C   UNL     1       2.967   7.928  17.537  0.00  0.00    +0.000 C 
ATOM     16  C   UNL     1       2.762   6.911  18.623  0.00  0.00    +0.000 A 
ATOM     17  C   UNL     1       3.391   5.660  18.543  0.00  0.00    +0.000 A 
ATOM     18  C   UNL     1       3.197   4.707  19.547  0.00  0.00    +0.000 A 
ATOM     19  C   UNL     1       2.383   5.014  20.630  0.00  0.00    +0.000 A 
ATOM     20  C   UNL     1       1.766   6.254  20.730  0.00  0.00    +0.000 A 
ATOM     21  C   UNL     1       1.965   7.208  19.734  0.00  0.00    +0.000 A 
ATOM     22  O   UNL     1       1.309   8.396  19.900  0.00  0.00    +0.000 OA
BRANCH  19  23
ATOM     23  O   UNL     1       2.161   4.108  21.627  0.00  0.00    +0.000 OA
ATOM     24  H   UNL     1       2.816   3.395  21.552  0.00  0.00    +0.000 HD
ENDBRANCH  19  23
ENDBRANCH   7  13
BRANCH  10  25
ATOM     25  O   UNL     1      -2.224  13.567  19.593  0.00  0.00    +0.000 OA
ATOM     26  H   UNL     1      -2.140  13.930  20.487  0.00  0.00    +0.000 HD
ENDBRANCH  10  25
TORSDOF 3
ENDMDL
