MODEL 1
REMARK VINA RESULT:      -7.1      0.000      0.000
REMARK  Name = 
REMARK  8 active torsions:
REMARK  status: ('A' for Active; 'I' for Inactive)
REMARK    1  A    between atoms: C_1  and  C_2
REMARK    2  A    between atoms: C_2  and  C_3
REMARK    3  A    between atoms: C_4  and  S_5
REMARK    4  A    between atoms: S_5  and  C_6
REMARK    5  A    between atoms: N_12  and  C_13
REMARK    6  A    between atoms: C_13  and  O_14
REMARK    7  A    between atoms: O_14  and  C_15
REMARK    8  A    between atoms: C_15  and  C_16
REMARK                            x       y       z     vdW  Elec       q    Type
REMARK                         _______ _______ _______ _____ _____    ______ ____
ROOT
ATOM      1  C   UNL     1       1.675   3.952  19.303  0.00  0.00    +0.000 A 
ATOM      2  C   UNL     1       2.690   4.797  19.014  0.00  0.00    +0.000 A 
ATOM      3  N   UNL     1       3.487   4.601  17.877  0.00  0.00    +0.000 N 
ATOM      4  C   UNL     1       3.281   3.533  17.018  0.00  0.00    +0.000 A 
ATOM      5  O   UNL     1       3.969   3.290  16.028  0.00  0.00    +0.000 OA
ATOM      6  N   UNL     1       2.245   2.706  17.314  0.00  0.00    +0.000 N 
ATOM      7  C   UNL     1       1.391   2.845  18.354  0.00  0.00    +0.000 A 
ATOM      8  O   UNL     1       0.438   2.084  18.496  0.00  0.00    +0.000 OA
ATOM      9  H   UNL     1       2.076   1.939  16.679  0.00  0.00    +0.000 HD
ENDROOT
BRANCH   1  11
ATOM     10  C   UNL     1       1.291   3.006  21.601  0.00  0.00    +0.000 C 
ATOM     11  C   UNL     1       0.785   3.957  20.526  0.00  0.00    +0.000 C 
ENDBRANCH   1  11
BRANCH   2  12
ATOM     12  S   UNL     1       3.086   6.067  20.152  0.00  0.00    +0.000 S 
BRANCH  12  13
ATOM     13  C   UNL     1       2.203   7.510  19.582  0.00  0.00    +0.000 A 
ATOM     14  C   UNL     1       2.240   8.013  18.279  0.00  0.00    +0.000 A 
ATOM     15  C   UNL     1       1.516   9.160  17.936  0.00  0.00    +0.000 A 
ATOM     16  C   UNL     1       0.738   9.814  18.888  0.00  0.00    +0.000 A 
ATOM     17  C   UNL     1       0.672   9.314  20.186  0.00  0.00    +0.000 A 
ATOM     18  C   UNL     1       1.399   8.171  20.527  0.00  0.00    +0.000 A 
ENDBRANCH  12  13
ENDBRANCH   2  12
BRANCH   3  19
ATOM     19  C   UNL     1       4.589   5.486  17.509  0.00  0.00    +0.000 C 
BRANCH  19  20
ATOM     20  O   UNL     1       5.857   4.904  17.775  0.00  0.00    +0.000 OA
BRANCH  20  21
ATOM     21  C   UNL     1       6.885   5.367  16.906  0.00  0.00    +0.000 C 
BRANCH  21  22
ATOM     22  C   UNL     1       7.451   6.591  17.525  0.00  0.00    +0.000 A 
ATOM     23  C   UNL     1       8.142   6.842  18.692  0.00  0.00    +0.000 A 
ATOM     24  C   UNL     1       8.424   8.230  18.701  0.00  0.00    +0.000 A 
ATOM     25  C   UNL     1       7.888   8.734  17.541  0.00  0.00    +0.000 A 
ATOM     26  O   UNL     1       7.294   7.749  16.819  0.00  0.00    +0.000 OA
ENDBRANCH  21  22
ENDBRANCH  20  21
ENDBRANCH  19  20
ENDBRANCH   3  19
TORSDOF 7
ENDMDL
MODEL 2
REMARK VINA RESULT:      -7.1      2.033      3.271
REMARK  Name = 
REMARK  8 active torsions:
REMARK  status: ('A' for Active; 'I' for Inactive)
REMARK    1  A    between atoms: C_1  and  C_2
REMARK    2  A    between atoms: C_2  and  C_3
REMARK    3  A    between atoms: C_4  and  S_5
REMARK    4  A    between atoms: S_5  and  C_6
REMARK    5  A    between atoms: N_12  and  C_13
REMARK    6  A    between atoms: C_13  and  O_14
REMARK    7  A    between atoms: O_14  and  C_15
REMARK    8  A    between atoms: C_15  and  C_16
REMARK                            x       y       z     vdW  Elec       q    Type
REMARK                         _______ _______ _______ _____ _____    ______ ____
ROOT
ATOM      1  C   UNL     1       3.209   4.303  18.362  0.00  0.00    +0.000 A 
ATOM      2  C   UNL     1       3.828   5.460  18.034  0.00  0.00    +0.000 A 
ATOM      3  N   UNL     1       5.172   5.676  18.369  0.00  0.00    +0.000 N 
ATOM      4  C   UNL     1       5.913   4.729  19.057  0.00  0.00    +0.000 A 
ATOM      5  O   UNL     1       7.083   4.877  19.409  0.00  0.00    +0.000 OA
ATOM      6  N   UNL     1       5.281   3.566  19.361  0.00  0.00    +0.000 N 
ATOM      7  C   UNL     1       4.008   3.246  19.034  0.00  0.00    +0.000 A 
ATOM      8  O   UNL     1       3.548   2.137  19.291  0.00  0.00    +0.000 OA
ATOM      9  H   UNL     1       5.823   2.863  19.843  0.00  0.00    +0.000 HD
ENDROOT
BRANCH   1  11
ATOM     10  C   UNL     1       1.016   3.821  19.493  0.00  0.00    +0.000 C 
ATOM     11  C   UNL     1       1.753   3.944  18.167  0.00  0.00    +0.000 C 
ENDBRANCH   1  11
BRANCH   2  12
ATOM     12  S   UNL     1       2.890   6.745  17.303  0.00  0.00    +0.000 S 
BRANCH  12  13
ATOM     13  C   UNL     1       2.171   7.645  18.665  0.00  0.00    +0.000 A 
ATOM     14  C   UNL     1       2.153   7.214  19.994  0.00  0.00    +0.000 A 
ATOM     15  C   UNL     1       1.552   7.993  20.990  0.00  0.00    +0.000 A 
ATOM     16  C   UNL     1       0.971   9.218  20.671  0.00  0.00    +0.000 A 
ATOM     17  C   UNL     1       0.999   9.674  19.357  0.00  0.00    +0.000 A 
ATOM     18  C   UNL     1       1.596   8.892  18.363  0.00  0.00    +0.000 A 
ENDBRANCH  12  13
ENDBRANCH   2  12
BRANCH   3  19
ATOM     19  C   UNL     1       5.895   6.900  18.031  0.00  0.00    +0.000 C 
BRANCH  19  20
ATOM     20  O   UNL     1       6.298   6.927  16.670  0.00  0.00    +0.000 OA
BRANCH  20  21
ATOM     21  C   UNL     1       7.362   6.027  16.379  0.00  0.00    +0.000 C 
BRANCH  21  22
ATOM     22  C   UNL     1       6.919   5.195  15.233  0.00  0.00    +0.000 A 
ATOM     23  C   UNL     1       5.921   4.259  15.058  0.00  0.00    +0.000 A 
ATOM     24  C   UNL     1       6.003   3.832  13.711  0.00  0.00    +0.000 A 
ATOM     25  C   UNL     1       7.044   4.533  13.152  0.00  0.00    +0.000 A 
ATOM     26  O   UNL     1       7.608   5.363  14.066  0.00  0.00    +0.000 OA
ENDBRANCH  21  22
ENDBRANCH  20  21
ENDBRANCH  19  20
ENDBRANCH   3  19
TORSDOF 7
ENDMDL
MODEL 3
REMARK VINA RESULT:      -7.1      2.844      5.925
REMARK  Name = 
REMARK  8 active torsions:
REMARK  status: ('A' for Active; 'I' for Inactive)
REMARK    1  A    between atoms: C_1  and  C_2
REMARK    2  A    between atoms: C_2  and  C_3
REMARK    3  A    between atoms: C_4  and  S_5
REMARK    4  A    between atoms: S_5  and  C_6
REMARK    5  A    between atoms: N_12  and  C_13
REMARK    6  A    between atoms: C_13  and  O_14
REMARK    7  A    between atoms: O_14  and  C_15
REMARK    8  A    between atoms: C_15  and  C_16
REMARK                            x       y       z     vdW  Elec       q    Type
REMARK                         _______ _______ _______ _____ _____    ______ ____
ROOT
ATOM      1  C   UNL     1       2.836   4.038  19.530  0.00  0.00    +0.000 A 
ATOM      2  C   UNL     1       3.130   5.186  18.879  0.00  0.00    +0.000 A 
ATOM      3  N   UNL     1       2.607   6.413  19.312  0.00  0.00    +0.000 N 
ATOM      4  C   UNL     1       1.761   6.499  20.407  0.00  0.00    +0.000 A 
ATOM      5  O   UNL     1       1.244   7.540  20.810  0.00  0.00    +0.000 OA
ATOM      6  N   UNL     1       1.492   5.339  21.060  0.00  0.00    +0.000 N 
ATOM      7  C   UNL     1       1.992   4.120  20.750  0.00  0.00    +0.000 A 
ATOM      8  O   UNL     1       1.746   3.140  21.447  0.00  0.00    +0.000 OA
ATOM      9  H   UNL     1       0.894   5.399  21.871  0.00  0.00    +0.000 HD
ENDROOT
BRANCH   1  11
ATOM     10  C   UNL     1       2.220   1.993  18.205  0.00  0.00    +0.000 C 
ATOM     11  C   UNL     1       3.230   2.629  19.148  0.00  0.00    +0.000 C 
ENDBRANCH   1  11
BRANCH   2  12
ATOM     12  S   UNL     1       4.067   5.107  17.402  0.00  0.00    +0.000 S 
BRANCH  12  13
ATOM     13  C   UNL     1       5.646   5.838  17.800  0.00  0.00    +0.000 A 
ATOM     14  C   UNL     1       6.219   6.925  17.135  0.00  0.00    +0.000 A 
ATOM     15  C   UNL     1       7.471   7.418  17.519  0.00  0.00    +0.000 A 
ATOM     16  C   UNL     1       8.162   6.837  18.581  0.00  0.00    +0.000 A 
ATOM     17  C   UNL     1       7.596   5.768  19.269  0.00  0.00    +0.000 A 
ATOM     18  C   UNL     1       6.347   5.275  18.880  0.00  0.00    +0.000 A 
ENDBRANCH  12  13
ENDBRANCH   2  12
BRANCH   3  19
ATOM     19  C   UNL     1       2.899   7.685  18.655  0.00  0.00    +0.000 C 
BRANCH  19  20
ATOM     20  O   UNL     1       1.776   8.193  17.948  0.00  0.00    +0.000 OA
BRANCH  20  21
ATOM     21  C   UNL     1       1.769   9.612  17.845  0.00  0.00    +0.000 C 
BRANCH  21  22
ATOM     22  C   UNL     1       0.465  10.076  18.380  0.00  0.00    +0.000 A 
ATOM     23  C   UNL     1       0.082  10.746  19.523  0.00  0.00    +0.000 A 
ATOM     24  C   UNL     1      -1.322  10.911  19.440  0.00  0.00    +0.000 A 
ATOM     25  C   UNL     1      -1.704  10.331  18.255  0.00  0.00    +0.000 A 
ATOM     26  O   UNL     1      -0.628   9.820  17.603  0.00  0.00    +0.000 OA
ENDBRANCH  21  22
ENDBRANCH  20  21
ENDBRANCH  19  20
ENDBRANCH   3  19
TORSDOF 7
ENDMDL
MODEL 4
REMARK VINA RESULT:      -7.1      2.832      7.086
REMARK  Name = 
REMARK  8 active torsions:
REMARK  status: ('A' for Active; 'I' for Inactive)
REMARK    1  A    between atoms: C_1  and  C_2
REMARK    2  A    between atoms: C_2  and  C_3
REMARK    3  A    between atoms: C_4  and  S_5
REMARK    4  A    between atoms: S_5  and  C_6
REMARK    5  A    between atoms: N_12  and  C_13
REMARK    6  A    between atoms: C_13  and  O_14
REMARK    7  A    between atoms: O_14  and  C_15
REMARK    8  A    between atoms: C_15  and  C_16
REMARK                            x       y       z     vdW  Elec       q    Type
REMARK                         _______ _______ _______ _____ _____    ______ ____
ROOT
ATOM      1  C   UNL     1       6.840   6.209  17.674  0.00  0.00    +0.000 A 
ATOM      2  C   UNL     1       5.686   5.738  17.152  0.00  0.00    +0.000 A 
ATOM      3  N   UNL     1       4.991   4.689  17.773  0.00  0.00    +0.000 N 
ATOM      4  C   UNL     1       5.463   4.086  18.928  0.00  0.00    +0.000 A 
ATOM      5  O   UNL     1       4.917   3.141  19.496  0.00  0.00    +0.000 OA
ATOM      6  N   UNL     1       6.613   4.586  19.449  0.00  0.00    +0.000 N 
ATOM      7  C   UNL     1       7.322   5.627  18.953  0.00  0.00    +0.000 A 
ATOM      8  O   UNL     1       8.314   6.052  19.538  0.00  0.00    +0.000 OA
ATOM      9  H   UNL     1       6.950   4.166  20.303  0.00  0.00    +0.000 HD
ENDROOT
BRANCH   1  11
ATOM     10  C   UNL     1       7.550   8.621  17.733  0.00  0.00    +0.000 C 
ATOM     11  C   UNL     1       7.761   7.258  17.090  0.00  0.00    +0.000 C 
ENDBRANCH   1  11
BRANCH   2  12
ATOM     12  S   UNL     1       5.134   6.362  15.612  0.00  0.00    +0.000 S 
BRANCH  12  13
ATOM     13  C   UNL     1       5.893   5.321  14.377  0.00  0.00    +0.000 A 
ATOM     14  C   UNL     1       7.204   5.450  13.911  0.00  0.00    +0.000 A 
ATOM     15  C   UNL     1       7.701   4.586  12.929  0.00  0.00    +0.000 A 
ATOM     16  C   UNL     1       6.897   3.575  12.408  0.00  0.00    +0.000 A 
ATOM     17  C   UNL     1       5.596   3.417  12.876  0.00  0.00    +0.000 A 
ATOM     18  C   UNL     1       5.100   4.284  13.853  0.00  0.00    +0.000 A 
ENDBRANCH  12  13
ENDBRANCH   2  12
BRANCH   3  19
ATOM     19  C   UNL     1       3.736   4.146  17.261  0.00  0.00    +0.000 C 
BRANCH  19  20
ATOM     20  O   UNL     1       2.618   4.944  17.625  0.00  0.00    +0.000 OA
BRANCH  20  21
ATOM     21  C   UNL     1       1.485   4.181  18.022  0.00  0.00    +0.000 C 
BRANCH  21  22
ATOM     22  C   UNL     1       1.668   3.854  19.457  0.00  0.00    +0.000 A 
ATOM     23  C   UNL     1       1.996   4.595  20.574  0.00  0.00    +0.000 A 
ATOM     24  C   UNL     1       1.993   3.696  21.668  0.00  0.00    +0.000 A 
ATOM     25  C   UNL     1       1.664   2.468  21.149  0.00  0.00    +0.000 A 
ATOM     26  O   UNL     1       1.464   2.551  19.809  0.00  0.00    +0.000 OA
ENDBRANCH  21  22
ENDBRANCH  20  21
ENDBRANCH  19  20
ENDBRANCH   3  19
TORSDOF 7
ENDMDL
MODEL 5
REMARK VINA RESULT:      -7.0      2.760      5.704
REMARK  Name = 
REMARK  8 active torsions:
REMARK  status: ('A' for Active; 'I' for Inactive)
REMARK    1  A    between atoms: C_1  and  C_2
REMARK    2  A    between atoms: C_2  and  C_3
REMARK    3  A    between atoms: C_4  and  S_5
REMARK    4  A    between atoms: S_5  and  C_6
REMARK    5  A    between atoms: N_12  and  C_13
REMARK    6  A    between atoms: C_13  and  O_14
REMARK    7  A    between atoms: O_14  and  C_15
REMARK    8  A    between atoms: C_15  and  C_16
REMARK                            x       y       z     vdW  Elec       q    Type
REMARK                         _______ _______ _______ _____ _____    ______ ____
ROOT
ATOM      1  C   UNL     1       3.565   3.321  19.853  0.00  0.00    +0.000 A 
ATOM      2  C   UNL     1       3.442   4.360  18.998  0.00  0.00    +0.000 A 
ATOM      3  N   UNL     1       2.527   5.394  19.248  0.00  0.00    +0.000 N 
ATOM      4  C   UNL     1       1.706   5.386  20.364  0.00  0.00    +0.000 A 
ATOM      5  O   UNL     1       0.862   6.244  20.617  0.00  0.00    +0.000 OA
ATOM      6  N   UNL     1       1.858   4.344  21.223  0.00  0.00    +0.000 N 
ATOM      7  C   UNL     1       2.748   3.333  21.094  0.00  0.00    +0.000 A 
ATOM      8  O   UNL     1       2.858   2.473  21.963  0.00  0.00    +0.000 OA
ATOM      9  H   UNL     1       1.278   4.345  22.049  0.00  0.00    +0.000 HD
ENDROOT
BRANCH   1  11
ATOM     10  C   UNL     1       3.832   1.112  18.682  0.00  0.00    +0.000 C 
ATOM     11  C   UNL     1       4.422   2.085  19.693  0.00  0.00    +0.000 C 
ENDBRANCH   1  11
BRANCH   2  12
ATOM     12  S   UNL     1       4.344   4.336  17.497  0.00  0.00    +0.000 S 
BRANCH  12  13
ATOM     13  C   UNL     1       5.719   5.446  17.749  0.00  0.00    +0.000 A 
ATOM     14  C   UNL     1       5.947   6.621  17.028  0.00  0.00    +0.000 A 
ATOM     15  C   UNL     1       7.063   7.418  17.298  0.00  0.00    +0.000 A 
ATOM     16  C   UNL     1       7.962   7.058  18.300  0.00  0.00    +0.000 A 
ATOM     17  C   UNL     1       7.739   5.903  19.043  0.00  0.00    +0.000 A 
ATOM     18  C   UNL     1       6.625   5.105  18.769  0.00  0.00    +0.000 A 
ENDBRANCH  12  13
ENDBRANCH   2  12
BRANCH   3  19
ATOM     19  C   UNL     1       2.358   6.546  18.365  0.00  0.00    +0.000 C 
BRANCH  19  20
ATOM     20  O   UNL     1       2.503   7.777  19.057  0.00  0.00    +0.000 OA
BRANCH  20  21
ATOM     21  C   UNL     1       2.192   8.913  18.259  0.00  0.00    +0.000 C 
BRANCH  21  22
ATOM     22  C   UNL     1       1.002   9.555  18.870  0.00  0.00    +0.000 A 
ATOM     23  C   UNL     1      -0.148  10.122  18.361  0.00  0.00    +0.000 A 
ATOM     24  C   UNL     1      -0.912  10.548  19.475  0.00  0.00    +0.000 A 
ATOM     25  C   UNL     1      -0.181  10.214  20.588  0.00  0.00    +0.000 A 
ATOM     26  O   UNL     1       0.984   9.612  20.234  0.00  0.00    +0.000 OA
ENDBRANCH  21  22
ENDBRANCH  20  21
ENDBRANCH  19  20
ENDBRANCH   3  19
TORSDOF 7
ENDMDL
MODEL 6
REMARK VINA RESULT:      -7.0      2.805      5.814
REMARK  Name = 
REMARK  8 active torsions:
REMARK  status: ('A' for Active; 'I' for Inactive)
REMARK    1  A    between atoms: C_1  and  C_2
REMARK    2  A    between atoms: C_2  and  C_3
REMARK    3  A    between atoms: C_4  and  S_5
REMARK    4  A    between atoms: S_5  and  C_6
REMARK    5  A    between atoms: N_12  and  C_13
REMARK    6  A    between atoms: C_13  and  O_14
REMARK    7  A    between atoms: O_14  and  C_15
REMARK    8  A    between atoms: C_15  and  C_16
REMARK                            x       y       z     vdW  Elec       q    Type
REMARK                         _______ _______ _______ _____ _____    ______ ____
ROOT
ATOM      1  C   UNL     1       2.661   4.067  19.454  0.00  0.00    +0.000 A 
ATOM      2  C   UNL     1       3.017   5.233  18.869  0.00  0.00    +0.000 A 
ATOM      3  N   UNL     1       2.531   6.458  19.350  0.00  0.00    +0.000 N 
ATOM      4  C   UNL     1       1.659   6.524  20.425  0.00  0.00    +0.000 A 
ATOM      5  O   UNL     1       1.172   7.563  20.867  0.00  0.00    +0.000 OA
ATOM      6  N   UNL     1       1.327   5.345  21.012  0.00  0.00    +0.000 N 
ATOM      7  C   UNL     1       1.786   4.123  20.653  0.00  0.00    +0.000 A 
ATOM      8  O   UNL     1       1.483   3.121  21.294  0.00  0.00    +0.000 OA
ATOM      9  H   UNL     1       0.710   5.388  21.809  0.00  0.00    +0.000 HD
ENDROOT
BRANCH   1  11
ATOM     10  C   UNL     1       4.261   2.144  19.703  0.00  0.00    +0.000 C 
ATOM     11  C   UNL     1       3.009   2.664  19.011  0.00  0.00    +0.000 C 
ENDBRANCH   1  11
BRANCH   2  12
ATOM     12  S   UNL     1       3.991   5.189  17.415  0.00  0.00    +0.000 S 
BRANCH  12  13
ATOM     13  C   UNL     1       5.602   5.784  17.901  0.00  0.00    +0.000 A 
ATOM     14  C   UNL     1       6.377   5.255  18.936  0.00  0.00    +0.000 A 
ATOM     15  C   UNL     1       7.626   5.803  19.244  0.00  0.00    +0.000 A 
ATOM     16  C   UNL     1       8.123   6.880  18.514  0.00  0.00    +0.000 A 
ATOM     17  C   UNL     1       7.375   7.406  17.465  0.00  0.00    +0.000 A 
ATOM     18  C   UNL     1       6.125   6.860  17.162  0.00  0.00    +0.000 A 
ENDBRANCH  12  13
ENDBRANCH   2  12
BRANCH   3  19
ATOM     19  C   UNL     1       2.891   7.747  18.765  0.00  0.00    +0.000 C 
BRANCH  19  20
ATOM     20  O   UNL     1       1.908   8.215  17.852  0.00  0.00    +0.000 OA
BRANCH  20  21
ATOM     21  C   UNL     1       1.897   9.631  17.712  0.00  0.00    +0.000 C 
BRANCH  21  22
ATOM     22  C   UNL     1       0.837  10.143  18.615  0.00  0.00    +0.000 A 
ATOM     23  C   UNL     1      -0.536  10.013  18.652  0.00  0.00    +0.000 A 
ATOM     24  C   UNL     1      -0.978  10.734  19.787  0.00  0.00    +0.000 A 
ATOM     25  C   UNL     1       0.151  11.258  20.368  0.00  0.00    +0.000 A 
ATOM     26  O   UNL     1       1.259  10.907  19.665  0.00  0.00    +0.000 OA
ENDBRANCH  21  22
ENDBRANCH  20  21
ENDBRANCH  19  20
ENDBRANCH   3  19
TORSDOF 7
ENDMDL
MODEL 7
REMARK VINA RESULT:      -6.9      1.783      2.769
REMARK  Name = 
REMARK  8 active torsions:
REMARK  status: ('A' for Active; 'I' for Inactive)
REMARK    1  A    between atoms: C_1  and  C_2
REMARK    2  A    between atoms: C_2  and  C_3
REMARK    3  A    between atoms: C_4  and  S_5
REMARK    4  A    between atoms: S_5  and  C_6
REMARK    5  A    between atoms: N_12  and  C_13
REMARK    6  A    between atoms: C_13  and  O_14
REMARK    7  A    between atoms: O_14  and  C_15
REMARK    8  A    between atoms: C_15  and  C_16
REMARK                            x       y       z     vdW  Elec       q    Type
REMARK                         _______ _______ _______ _____ _____    ______ ____
ROOT
ATOM      1  C   UNL     1       1.886   3.595  19.295  0.00  0.00    +0.000 A 
ATOM      2  C   UNL     1       3.072   4.205  19.071  0.00  0.00    +0.000 A 
ATOM      3  N   UNL     1       3.951   3.729  18.087  0.00  0.00    +0.000 N 
ATOM      4  C   UNL     1       3.652   2.615  17.319  0.00  0.00    +0.000 A 
ATOM      5  O   UNL     1       4.397   2.131  16.468  0.00  0.00    +0.000 OA
ATOM      6  N   UNL     1       2.448   2.027  17.544  0.00  0.00    +0.000 N 
ATOM      7  C   UNL     1       1.515   2.445  18.431  0.00  0.00    +0.000 A 
ATOM      8  O   UNL     1       0.424   1.888  18.510  0.00  0.00    +0.000 OA
ATOM      9  H   UNL     1       2.215   1.229  16.973  0.00  0.00    +0.000 HD
ENDROOT
BRANCH   1  11
ATOM     10  C   UNL     1       1.089   3.075  21.622  0.00  0.00    +0.000 C 
ATOM     11  C   UNL     1       0.870   3.911  20.369  0.00  0.00    +0.000 C 
ENDBRANCH   1  11
BRANCH   2  12
ATOM     12  S   UNL     1       3.561   5.519  20.119  0.00  0.00    +0.000 S 
BRANCH  12  13
ATOM     13  C   UNL     1       2.681   6.954  19.528  0.00  0.00    +0.000 A 
ATOM     14  C   UNL     1       1.836   7.754  20.301  0.00  0.00    +0.000 A 
ATOM     15  C   UNL     1       1.182   8.855  19.737  0.00  0.00    +0.000 A 
ATOM     16  C   UNL     1       1.373   9.178  18.395  0.00  0.00    +0.000 A 
ATOM     17  C   UNL     1       2.229   8.405  17.616  0.00  0.00    +0.000 A 
ATOM     18  C   UNL     1       2.877   7.303  18.180  0.00  0.00    +0.000 A 
ENDBRANCH  12  13
ENDBRANCH   2  12
BRANCH   3  19
ATOM     19  C   UNL     1       5.239   4.353  17.794  0.00  0.00    +0.000 C 
BRANCH  19  20
ATOM     20  O   UNL     1       5.199   5.137  16.611  0.00  0.00    +0.000 OA
BRANCH  20  21
ATOM     21  C   UNL     1       6.488   5.512  16.138  0.00  0.00    +0.000 C 
BRANCH  21  22
ATOM     22  C   UNL     1       6.623   4.951  14.771  0.00  0.00    +0.000 A 
ATOM     23  C   UNL     1       5.904   4.029  14.038  0.00  0.00    +0.000 A 
ATOM     24  C   UNL     1       6.538   3.937  12.776  0.00  0.00    +0.000 A 
ATOM     25  C   UNL     1       7.601   4.805  12.820  0.00  0.00    +0.000 A 
ATOM     26  O   UNL     1       7.663   5.426  14.026  0.00  0.00    +0.000 OA
ENDBRANCH  21  22
ENDBRANCH  20  21
ENDBRANCH  19  20
ENDBRANCH   3  19
TORSDOF 7
ENDMDL
MODEL 8
REMARK VINA RESULT:      -6.8      2.043      5.696
REMARK  Name = 
REMARK  8 active torsions:
REMARK  status: ('A' for Active; 'I' for Inactive)
REMARK    1  A    between atoms: C_1  and  C_2
REMARK    2  A    between atoms: C_2  and  C_3
REMARK    3  A    between atoms: C_4  and  S_5
REMARK    4  A    between atoms: S_5  and  C_6
REMARK    5  A    between atoms: N_12  and  C_13
REMARK    6  A    between atoms: C_13  and  O_14
REMARK    7  A    between atoms: O_14  and  C_15
REMARK    8  A    between atoms: C_15  and  C_16
REMARK                            x       y       z     vdW  Elec       q    Type
REMARK                         _______ _______ _______ _____ _____    ______ ____
ROOT
ATOM      1  C   UNL     1       5.760   6.684  17.227  0.00  0.00    +0.000 A 
ATOM      2  C   UNL     1       5.096   5.911  18.115  0.00  0.00    +0.000 A 
ATOM      3  N   UNL     1       5.767   5.312  19.191  0.00  0.00    +0.000 N 
ATOM      4  C   UNL     1       7.131   5.471  19.379  0.00  0.00    +0.000 A 
ATOM      5  O   UNL     1       7.778   4.943  20.282  0.00  0.00    +0.000 OA
ATOM      6  N   UNL     1       7.778   6.267  18.489  0.00  0.00    +0.000 N 
ATOM      7  C   UNL     1       7.208   6.928  17.454  0.00  0.00    +0.000 A 
ATOM      8  O   UNL     1       7.867   7.682  16.746  0.00  0.00    +0.000 OA
ATOM      9  H   UNL     1       8.767   6.404  18.633  0.00  0.00    +0.000 HD
ENDROOT
BRANCH   1  11
ATOM     10  C   UNL     1       5.244   6.360  14.788  0.00  0.00    +0.000 C 
ATOM     11  C   UNL     1       5.219   7.321  15.967  0.00  0.00    +0.000 C 
ENDBRANCH   1  11
BRANCH   2  12
ATOM     12  S   UNL     1       3.405   5.554  17.831  0.00  0.00    +0.000 S 
BRANCH  12  13
ATOM     13  C   UNL     1       2.505   6.936  18.513  0.00  0.00    +0.000 A 
ATOM     14  C   UNL     1       2.075   8.052  17.791  0.00  0.00    +0.000 A 
ATOM     15  C   UNL     1       1.382   9.089  18.424  0.00  0.00    +0.000 A 
ATOM     16  C   UNL     1       1.101   9.020  19.787  0.00  0.00    +0.000 A 
ATOM     17  C   UNL     1       1.502   7.906  20.518  0.00  0.00    +0.000 A 
ATOM     18  C   UNL     1       2.197   6.873  19.884  0.00  0.00    +0.000 A 
ENDBRANCH  12  13
ENDBRANCH   2  12
BRANCH   3  19
ATOM     19  C   UNL     1       5.099   4.477  20.187  0.00  0.00    +0.000 C 
BRANCH  19  20
ATOM     20  O   UNL     1       5.013   3.119  19.778  0.00  0.00    +0.000 OA
BRANCH  20  21
ATOM     21  C   UNL     1       4.182   2.328  20.619  0.00  0.00    +0.000 C 
BRANCH  21  22
ATOM     22  C   UNL     1       2.779   2.628  20.243  0.00  0.00    +0.000 A 
ATOM     23  C   UNL     1       1.730   3.260  20.880  0.00  0.00    +0.000 A 
ATOM     24  C   UNL     1       0.642   3.242  19.975  0.00  0.00    +0.000 A 
ATOM     25  C   UNL     1       1.095   2.602  18.847  0.00  0.00    +0.000 A 
ATOM     26  O   UNL     1       2.390   2.224  18.998  0.00  0.00    +0.000 OA
ENDBRANCH  21  22
ENDBRANCH  20  21
ENDBRANCH  19  20
ENDBRANCH   3  19
TORSDOF 7
ENDMDL
MODEL 9
REMARK VINA RESULT:      -6.7      2.864      6.061
REMARK  Name = 
REMARK  8 active torsions:
REMARK  status: ('A' for Active; 'I' for Inactive)
REMARK    1  A    between atoms: C_1  and  C_2
REMARK    2  A    between atoms: C_2  and  C_3
REMARK    3  A    between atoms: C_4  and  S_5
REMARK    4  A    between atoms: S_5  and  C_6
REMARK    5  A    between atoms: N_12  and  C_13
REMARK    6  A    between atoms: C_13  and  O_14
REMARK    7  A    between atoms: O_14  and  C_15
REMARK    8  A    between atoms: C_15  and  C_16
REMARK                            x       y       z     vdW  Elec       q    Type
REMARK                         _______ _______ _______ _____ _____    ______ ____
ROOT
ATOM      1  C   UNL     1       2.473   3.895  19.688  0.00  0.00    +0.000 A 
ATOM      2  C   UNL     1       2.711   4.872  18.785  0.00  0.00    +0.000 A 
ATOM      3  N   UNL     1       2.559   6.223  19.130  0.00  0.00    +0.000 N 
ATOM      4  C   UNL     1       2.147   6.610  20.395  0.00  0.00    +0.000 A 
ATOM      5  O   UNL     1       1.963   7.775  20.744  0.00  0.00    +0.000 OA
ATOM      6  N   UNL     1       1.932   5.616  21.295  0.00  0.00    +0.000 N 
ATOM      7  C   UNL     1       2.103   4.292  21.071  0.00  0.00    +0.000 A 
ATOM      8  O   UNL     1       1.952   3.474  21.973  0.00  0.00    +0.000 OA
ATOM      9  H   UNL     1       1.653   5.893  22.225  0.00  0.00    +0.000 HD
ENDROOT
BRANCH   1  11
ATOM     10  C   UNL     1       1.147   1.880  18.978  0.00  0.00    +0.000 C 
ATOM     11  C   UNL     1       2.493   2.400  19.463  0.00  0.00    +0.000 C 
ENDBRANCH   1  11
BRANCH   2  12
ATOM     12  S   UNL     1       3.082   4.428  17.133  0.00  0.00    +0.000 S 
BRANCH  12  13
ATOM     13  C   UNL     1       4.861   4.478  17.013  0.00  0.00    +0.000 A 
ATOM     14  C   UNL     1       5.597   4.232  15.851  0.00  0.00    +0.000 A 
ATOM     15  C   UNL     1       6.995   4.287  15.866  0.00  0.00    +0.000 A 
ATOM     16  C   UNL     1       7.676   4.600  17.040  0.00  0.00    +0.000 A 
ATOM     17  C   UNL     1       6.959   4.870  18.202  0.00  0.00    +0.000 A 
ATOM     18  C   UNL     1       5.563   4.810  18.186  0.00  0.00    +0.000 A 
ENDBRANCH  12  13
ENDBRANCH   2  12
BRANCH   3  19
ATOM     19  C   UNL     1       2.812   7.321  18.200  0.00  0.00    +0.000 C 
BRANCH  19  20
ATOM     20  O   UNL     1       1.616   7.981  17.811  0.00  0.00    +0.000 OA
BRANCH  20  21
ATOM     21  C   UNL     1       1.743   9.398  17.763  0.00  0.00    +0.000 C 
BRANCH  21  22
ATOM     22  C   UNL     1       0.499   9.961  18.341  0.00  0.00    +0.000 A 
ATOM     23  C   UNL     1       0.207  10.649  19.502  0.00  0.00    +0.000 A 
ATOM     24  C   UNL     1      -1.180  10.929  19.465  0.00  0.00    +0.000 A 
ATOM     25  C   UNL     1      -1.644  10.395  18.288  0.00  0.00    +0.000 A 
ATOM     26  O   UNL     1      -0.635   9.804  17.598  0.00  0.00    +0.000 OA
ENDBRANCH  21  22
ENDBRANCH  20  21
ENDBRANCH  19  20
ENDBRANCH   3  19
TORSDOF 7
ENDMDL
