MODEL 1
REMARK VINA RESULT:      -8.9      0.000      0.000
REMARK  Name = 
REMARK  3 active torsions:
REMARK  status: ('A' for Active; 'I' for Inactive)
REMARK    1  A    between atoms: C_1  and  C_2
REMARK    2  A    between atoms: C_2  and  C_3
REMARK    3  A    between atoms: C_24  and  O_25
REMARK                            x       y       z     vdW  Elec       q    Type
REMARK                         _______ _______ _______ _____ _____    ______ ____
ROOT
ATOM      1  C   UNL     1       6.344   3.867  15.848  0.00  0.00    +0.000 C 
ATOM      2  C   UNL     1       5.392   5.022  16.210  0.00  0.00    +0.000 C 
ATOM      3  C   UNL     1       5.229   5.791  14.857  0.00  0.00    +0.000 C 
ATOM      4  O   UNL     1       4.218   4.345  16.810  0.00  0.00    +0.000 OA
ATOM      5  C   UNL     1       3.574   4.934  17.898  0.00  0.00    +0.000 A 
ATOM      6  C   UNL     1       3.543   6.319  17.985  0.00  0.00    +0.000 A 
ATOM      7  C   UNL     1       2.643   6.995  18.810  0.00  0.00    +0.000 A 
ATOM      8  N   UNL     1       2.422   8.306  18.548  0.00  0.00    +0.000 NA
ATOM      9  C   UNL     1       1.582   8.970  19.370  0.00  0.00    +0.000 A 
ATOM     10  C   UNL     1       1.030   8.348  20.478  0.00  0.00    +0.000 A 
ATOM     11  N   UNL     1       1.266   7.034  20.749  0.00  0.00    +0.000 NA
ATOM     12  C   UNL     1       2.060   6.325  19.874  0.00  0.00    +0.000 A 
ATOM     13  C   UNL     1       2.409   4.958  20.054  0.00  0.00    +0.000 A 
ATOM     14  C   UNL     1       2.118   4.316  21.266  0.00  0.00    +0.000 A 
ATOM     15  C   UNL     1       2.576   3.027  21.541  0.00  0.00    +0.000 A 
ATOM     16  C   UNL     1       3.271   2.325  20.561  0.00  0.00    +0.000 A 
ATOM     17  C   UNL     1       3.514   2.905  19.308  0.00  0.00    +0.000 A 
ATOM     18  C   UNL     1       3.129   4.240  19.031  0.00  0.00    +0.000 A 
ATOM     19  C   UNL     1       0.244   9.152  21.484  0.00  0.00    +0.000 C 
ATOM     20  C   UNL     1      -0.352  10.440  20.908  0.00  0.00    +0.000 C 
ATOM     21  C   UNL     1       0.703  11.215  20.124  0.00  0.00    +0.000 C 
ATOM     22  C   UNL     1       1.217  10.373  18.962  0.00  0.00    +0.000 C 
ATOM     23  C   UNL     1       4.699   7.051  17.391  0.00  0.00    +0.000 C 
ATOM     24  C   UNL     1       5.899   6.057  17.224  0.00  0.00    +0.000 C 
ENDROOT
BRANCH  24  25
ATOM     25  O   UNL     1       6.292   5.421  18.456  0.00  0.00    +0.000 OA
ATOM     26  H   UNL     1       6.769   4.607  18.254  0.00  0.00    +0.000 HD
ENDBRANCH  24  25
TORSDOF 1
ENDMDL
MODEL 2
REMARK VINA RESULT:      -8.2      1.285      4.155
REMARK  Name = 
REMARK  3 active torsions:
REMARK  status: ('A' for Active; 'I' for Inactive)
REMARK    1  A    between atoms: C_1  and  C_2
REMARK    2  A    between atoms: C_2  and  C_3
REMARK    3  A    between atoms: C_24  and  O_25
REMARK                            x       y       z     vdW  Elec       q    Type
REMARK                         _______ _______ _______ _____ _____    ______ ____
ROOT
ATOM      1  C   UNL     1       3.720   1.017  19.332  0.00  0.00    +0.000 C 
ATOM      2  C   UNL     1       3.250   2.440  19.688  0.00  0.00    +0.000 C 
ATOM      3  C   UNL     1       2.936   2.344  21.217  0.00  0.00    +0.000 C 
ATOM      4  O   UNL     1       4.358   3.310  19.225  0.00  0.00    +0.000 OA
ATOM      5  C   UNL     1       4.060   4.542  18.644  0.00  0.00    +0.000 A 
ATOM      6  C   UNL     1       2.936   5.230  19.078  0.00  0.00    +0.000 A 
ATOM      7  C   UNL     1       2.753   6.591  18.833  0.00  0.00    +0.000 A 
ATOM      8  N   UNL     1       1.851   7.247  19.603  0.00  0.00    +0.000 NA
ATOM      9  C   UNL     1       1.645   8.554  19.339  0.00  0.00    +0.000 A 
ATOM     10  C   UNL     1       2.278   9.176  18.275  0.00  0.00    +0.000 A 
ATOM     11  N   UNL     1       3.172   8.510  17.492  0.00  0.00    +0.000 NA
ATOM     12  C   UNL     1       3.450   7.196  17.798  0.00  0.00    +0.000 A 
ATOM     13  C   UNL     1       4.338   6.380  17.046  0.00  0.00    +0.000 A 
ATOM     14  C   UNL     1       4.826   6.831  15.812  0.00  0.00    +0.000 A 
ATOM     15  C   UNL     1       5.575   6.004  14.973  0.00  0.00    +0.000 A 
ATOM     16  C   UNL     1       5.919   4.727  15.403  0.00  0.00    +0.000 A 
ATOM     17  C   UNL     1       5.516   4.268  16.665  0.00  0.00    +0.000 A 
ATOM     18  C   UNL     1       4.688   5.057  17.501  0.00  0.00    +0.000 A 
ATOM     19  C   UNL     1       1.898  10.583  17.883  0.00  0.00    +0.000 C 
ATOM     20  C   UNL     1       1.275  11.389  19.027  0.00  0.00    +0.000 C 
ATOM     21  C   UNL     1       0.184  10.580  19.722  0.00  0.00    +0.000 C 
ATOM     22  C   UNL     1       0.772   9.304  20.312  0.00  0.00    +0.000 C 
ATOM     23  C   UNL     1       1.792   4.402  19.561  0.00  0.00    +0.000 C 
ATOM     24  C   UNL     1       1.961   2.940  19.023  0.00  0.00    +0.000 C 
ENDROOT
BRANCH  24  25
ATOM     25  O   UNL     1       2.059   2.865  17.587  0.00  0.00    +0.000 OA
ATOM     26  H   UNL     1       2.986   2.930  17.329  0.00  0.00    +0.000 HD
ENDBRANCH  24  25
TORSDOF 1
ENDMDL
MODEL 3
REMARK VINA RESULT:      -6.8      6.584      9.176
REMARK  Name = 
REMARK  3 active torsions:
REMARK  status: ('A' for Active; 'I' for Inactive)
REMARK    1  A    between atoms: C_1  and  C_2
REMARK    2  A    between atoms: C_2  and  C_3
REMARK    3  A    between atoms: C_24  and  O_25
REMARK                            x       y       z     vdW  Elec       q    Type
REMARK                         _______ _______ _______ _____ _____    ______ ____
ROOT
ATOM      1  C   UNL     1       1.911  11.638  18.745  0.00  0.00    +0.000 C 
ATOM      2  C   UNL     1       0.736  12.099  19.629  0.00  0.00    +0.000 C 
ATOM      3  C   UNL     1       1.403  13.116  20.613  0.00  0.00    +0.000 C 
ATOM      4  O   UNL     1      -0.276  12.580  18.658  0.00  0.00    +0.000 OA
ATOM      5  C   UNL     1      -1.626  12.331  18.902  0.00  0.00    +0.000 A 
ATOM      6  C   UNL     1      -2.069  12.286  20.216  0.00  0.00    +0.000 A 
ATOM      7  C   UNL     1      -3.419  12.403  20.554  0.00  0.00    +0.000 A 
ATOM      8  N   UNL     1      -3.714  12.734  21.834  0.00  0.00    +0.000 NA
ATOM      9  C   UNL     1      -5.019  12.808  22.170  0.00  0.00    +0.000 A 
ATOM     10  C   UNL     1      -6.010  12.486  21.257  0.00  0.00    +0.000 A 
ATOM     11  N   UNL     1      -5.710  12.139  19.975  0.00  0.00    +0.000 NA
ATOM     12  C   UNL     1      -4.385  12.134  19.597  0.00  0.00    +0.000 A 
ATOM     13  C   UNL     1      -3.933  11.763  18.301  0.00  0.00    +0.000 A 
ATOM     14  C   UNL     1      -4.825  11.178  17.391  0.00  0.00    +0.000 A 
ATOM     15  C   UNL     1      -4.392  10.662  16.169  0.00  0.00    +0.000 A 
ATOM     16  C   UNL     1      -3.057  10.802  15.803  0.00  0.00    +0.000 A 
ATOM     17  C   UNL     1      -2.150  11.451  16.652  0.00  0.00    +0.000 A 
ATOM     18  C   UNL     1      -2.547  11.912  17.932  0.00  0.00    +0.000 A 
ATOM     19  C   UNL     1      -7.449  12.396  21.701  0.00  0.00    +0.000 C 
ATOM     20  C   UNL     1      -7.754  13.215  22.959  0.00  0.00    +0.000 C 
ATOM     21  C   UNL     1      -6.712  12.946  24.040  0.00  0.00    +0.000 C 
ATOM     22  C   UNL     1      -5.327  13.342  23.544  0.00  0.00    +0.000 C 
ATOM     23  C   UNL     1      -1.088  11.815  21.236  0.00  0.00    +0.000 C 
ATOM     24  C   UNL     1       0.064  11.039  20.511  0.00  0.00    +0.000 C 
ENDROOT
BRANCH  24  25
ATOM     25  O   UNL     1      -0.403   9.929  19.718  0.00  0.00    +0.000 OA
ATOM     26  H   UNL     1      -0.610  10.241  18.829  0.00  0.00    +0.000 HD
ENDBRANCH  24  25
TORSDOF 1
ENDMDL
MODEL 4
REMARK VINA RESULT:      -6.7      9.458     10.878
REMARK  Name = 
REMARK  3 active torsions:
REMARK  status: ('A' for Active; 'I' for Inactive)
REMARK    1  A    between atoms: C_1  and  C_2
REMARK    2  A    between atoms: C_2  and  C_3
REMARK    3  A    between atoms: C_24  and  O_25
REMARK                            x       y       z     vdW  Elec       q    Type
REMARK                         _______ _______ _______ _____ _____    ______ ____
ROOT
ATOM      1  C   UNL     1      11.245  16.203  16.765  0.00  0.00    +0.000 C 
ATOM      2  C   UNL     1      10.685  16.203  18.200  0.00  0.00    +0.000 C 
ATOM      3  C   UNL     1      10.239  17.688  18.412  0.00  0.00    +0.000 C 
ATOM      4  O   UNL     1       9.663  15.130  18.186  0.00  0.00    +0.000 OA
ATOM      5  C   UNL     1       9.520  14.311  19.306  0.00  0.00    +0.000 A 
ATOM      6  C   UNL     1       9.769  14.848  20.561  0.00  0.00    +0.000 A 
ATOM      7  C   UNL     1       9.319  14.242  21.735  0.00  0.00    +0.000 A 
ATOM      8  N   UNL     1       9.266  15.010  22.851  0.00  0.00    +0.000 NA
ATOM      9  C   UNL     1       8.869  14.414  23.995  0.00  0.00    +0.000 A 
ATOM     10  C   UNL     1       8.598  13.056  24.035  0.00  0.00    +0.000 A 
ATOM     11  N   UNL     1       8.667  12.283  22.915  0.00  0.00    +0.000 NA
ATOM     12  C   UNL     1       8.996  12.894  21.725  0.00  0.00    +0.000 A 
ATOM     13  C   UNL     1       9.132  12.201  20.491  0.00  0.00    +0.000 A 
ATOM     14  C   UNL     1       9.133  10.799  20.473  0.00  0.00    +0.000 A 
ATOM     15  C   UNL     1       9.414  10.081  19.310  0.00  0.00    +0.000 A 
ATOM     16  C   UNL     1       9.619  10.766  18.117  0.00  0.00    +0.000 A 
ATOM     17  C   UNL     1       9.549  12.165  18.079  0.00  0.00    +0.000 A 
ATOM     18  C   UNL     1       9.344  12.921  19.260  0.00  0.00    +0.000 A 
ATOM     19  C   UNL     1       8.335  12.374  25.355  0.00  0.00    +0.000 C 
ATOM     20  C   UNL     1       7.830  13.324  26.445  0.00  0.00    +0.000 C 
ATOM     21  C   UNL     1       8.699  14.576  26.510  0.00  0.00    +0.000 C 
ATOM     22  C   UNL     1       8.653  15.318  25.180  0.00  0.00    +0.000 C 
ATOM     23  C   UNL     1      10.786  15.938  20.631  0.00  0.00    +0.000 C 
ATOM     24  C   UNL     1      11.668  15.893  19.337  0.00  0.00    +0.000 C 
ENDROOT
BRANCH  24  25
ATOM     25  O   UNL     1      12.314  14.621  19.126  0.00  0.00    +0.000 OA
ATOM     26  H   UNL     1      13.232  14.680  19.418  0.00  0.00    +0.000 HD
ENDBRANCH  24  25
TORSDOF 1
ENDMDL
MODEL 5
REMARK VINA RESULT:      -6.5      6.578      8.928
REMARK  Name = 
REMARK  3 active torsions:
REMARK  status: ('A' for Active; 'I' for Inactive)
REMARK    1  A    between atoms: C_1  and  C_2
REMARK    2  A    between atoms: C_2  and  C_3
REMARK    3  A    between atoms: C_24  and  O_25
REMARK                            x       y       z     vdW  Elec       q    Type
REMARK                         _______ _______ _______ _____ _____    ______ ____
ROOT
ATOM      1  C   UNL     1       2.969  14.226  19.308  0.00  0.00    +0.000 C 
ATOM      2  C   UNL     1       1.501  14.470  19.705  0.00  0.00    +0.000 C 
ATOM      3  C   UNL     1       1.013  15.521  18.654  0.00  0.00    +0.000 C 
ATOM      4  O   UNL     1       0.901  13.114  19.713  0.00  0.00    +0.000 OA
ATOM      5  C   UNL     1      -0.038  12.790  20.693  0.00  0.00    +0.000 A 
ATOM      6  C   UNL     1      -0.873  13.788  21.172  0.00  0.00    +0.000 A 
ATOM      7  C   UNL     1      -2.052  13.507  21.864  0.00  0.00    +0.000 A 
ATOM      8  N   UNL     1      -2.975  14.495  21.949  0.00  0.00    +0.000 NA
ATOM      9  C   UNL     1      -4.097  14.236  22.653  0.00  0.00    +0.000 A 
ATOM     10  C   UNL     1      -4.260  13.032  23.319  0.00  0.00    +0.000 A 
ATOM     11  N   UNL     1      -3.323  12.046  23.245  0.00  0.00    +0.000 NA
ATOM     12  C   UNL     1      -2.208  12.268  22.467  0.00  0.00    +0.000 A 
ATOM     13  C   UNL     1      -1.142  11.337  22.328  0.00  0.00    +0.000 A 
ATOM     14  C   UNL     1      -1.088  10.208  23.158  0.00  0.00    +0.000 A 
ATOM     15  C   UNL     1       0.014   9.352  23.159  0.00  0.00    +0.000 A 
ATOM     16  C   UNL     1       1.052   9.573  22.259  0.00  0.00    +0.000 A 
ATOM     17  C   UNL     1       0.997  10.646  21.360  0.00  0.00    +0.000 A 
ATOM     18  C   UNL     1      -0.072  11.575  21.392  0.00  0.00    +0.000 A 
ATOM     19  C   UNL     1      -5.433  12.831  24.247  0.00  0.00    +0.000 C 
ATOM     20  C   UNL     1      -6.625  13.740  23.931  0.00  0.00    +0.000 C 
ATOM     21  C   UNL     1      -6.166  15.184  23.750  0.00  0.00    +0.000 C 
ATOM     22  C   UNL     1      -5.181  15.280  22.591  0.00  0.00    +0.000 C 
ATOM     23  C   UNL     1      -0.320  15.175  21.181  0.00  0.00    +0.000 C 
ATOM     24  C   UNL     1       1.241  15.099  21.080  0.00  0.00    +0.000 C 
ENDROOT
BRANCH  24  25
ATOM     25  O   UNL     1       1.846  14.315  22.128  0.00  0.00    +0.000 OA
ATOM     26  H   UNL     1       1.544  14.643  22.984  0.00  0.00    +0.000 HD
ENDBRANCH  24  25
TORSDOF 1
ENDMDL
MODEL 6
REMARK VINA RESULT:      -6.5      6.210      9.469
REMARK  Name = 
REMARK  3 active torsions:
REMARK  status: ('A' for Active; 'I' for Inactive)
REMARK    1  A    between atoms: C_1  and  C_2
REMARK    2  A    between atoms: C_2  and  C_3
REMARK    3  A    between atoms: C_24  and  O_25
REMARK                            x       y       z     vdW  Elec       q    Type
REMARK                         _______ _______ _______ _____ _____    ______ ____
ROOT
ATOM      1  C   UNL     1      -4.157  12.635  24.498  0.00  0.00    +0.000 C 
ATOM      2  C   UNL     1      -3.097  13.422  23.705  0.00  0.00    +0.000 C 
ATOM      3  C   UNL     1      -3.135  14.841  24.364  0.00  0.00    +0.000 C 
ATOM      4  O   UNL     1      -1.872  12.596  23.825  0.00  0.00    +0.000 OA
ATOM      5  C   UNL     1      -1.016  12.484  22.729  0.00  0.00    +0.000 A 
ATOM      6  C   UNL     1      -0.898  13.560  21.862  0.00  0.00    +0.000 A 
ATOM      7  C   UNL     1       0.168  13.687  20.970  0.00  0.00    +0.000 A 
ATOM      8  N   UNL     1       0.408  14.918  20.458  0.00  0.00    +0.000 NA
ATOM      9  C   UNL     1       1.413  15.032  19.564  0.00  0.00    +0.000 A 
ATOM     10  C   UNL     1       2.119  13.919  19.139  0.00  0.00    +0.000 A 
ATOM     11  N   UNL     1       1.866  12.680  19.644  0.00  0.00    +0.000 NA
ATOM     12  C   UNL     1       0.894  12.561  20.614  0.00  0.00    +0.000 A 
ATOM     13  C   UNL     1       0.511  11.325  21.202  0.00  0.00    +0.000 A 
ATOM     14  C   UNL     1       0.977  10.119  20.661  0.00  0.00    +0.000 A 
ATOM     15  C   UNL     1       0.508   8.884  21.110  0.00  0.00    +0.000 A 
ATOM     16  C   UNL     1      -0.385   8.839  22.176  0.00  0.00    +0.000 A 
ATOM     17  C   UNL     1      -0.815  10.020  22.794  0.00  0.00    +0.000 A 
ATOM     18  C   UNL     1      -0.416  11.290  22.307  0.00  0.00    +0.000 A 
ATOM     19  C   UNL     1       3.112  14.037  18.009  0.00  0.00    +0.000 C 
ATOM     20  C   UNL     1       3.664  15.454  17.824  0.00  0.00    +0.000 C 
ATOM     21  C   UNL     1       2.529  16.474  17.815  0.00  0.00    +0.000 C 
ATOM     22  C   UNL     1       1.774  16.431  19.139  0.00  0.00    +0.000 C 
ATOM     23  C   UNL     1      -2.101  14.430  21.709  0.00  0.00    +0.000 C 
ATOM     24  C   UNL     1      -3.361  13.646  22.210  0.00  0.00    +0.000 C 
ENDROOT
BRANCH  24  25
ATOM     25  O   UNL     1      -3.563  12.391  21.530  0.00  0.00    +0.000 OA
ATOM     26  H   UNL     1      -4.086  11.806  22.092  0.00  0.00    +0.000 HD
ENDBRANCH  24  25
TORSDOF 1
ENDMDL
MODEL 7
REMARK VINA RESULT:      -6.5      4.237      7.191
REMARK  Name = 
REMARK  3 active torsions:
REMARK  status: ('A' for Active; 'I' for Inactive)
REMARK    1  A    between atoms: C_1  and  C_2
REMARK    2  A    between atoms: C_2  and  C_3
REMARK    3  A    between atoms: C_24  and  O_25
REMARK                            x       y       z     vdW  Elec       q    Type
REMARK                         _______ _______ _______ _____ _____    ______ ____
ROOT
ATOM      1  C   UNL     1       2.291   2.868  20.675  0.00  0.00    +0.000 C 
ATOM      2  C   UNL     1       2.606   3.034  19.176  0.00  0.00    +0.000 C 
ATOM      3  C   UNL     1       1.202   2.906  18.497  0.00  0.00    +0.000 C 
ATOM      4  O   UNL     1       3.335   4.323  19.104  0.00  0.00    +0.000 OA
ATOM      5  C   UNL     1       4.403   4.452  18.216  0.00  0.00    +0.000 A 
ATOM      6  C   UNL     1       4.367   3.747  17.022  0.00  0.00    +0.000 A 
ATOM      7  C   UNL     1       5.182   4.074  15.936  0.00  0.00    +0.000 A 
ATOM      8  N   UNL     1       4.816   3.603  14.719  0.00  0.00    +0.000 NA
ATOM      9  C   UNL     1       5.626   3.885  13.677  0.00  0.00    +0.000 A 
ATOM     10  C   UNL     1       6.817   4.567  13.864  0.00  0.00    +0.000 A 
ATOM     11  N   UNL     1       7.190   5.026  15.090  0.00  0.00    +0.000 NA
ATOM     12  C   UNL     1       6.335   4.812  16.150  0.00  0.00    +0.000 A 
ATOM     13  C   UNL     1       6.616   5.211  17.485  0.00  0.00    +0.000 A 
ATOM     14  C   UNL     1       7.896   5.673  17.823  0.00  0.00    +0.000 A 
ATOM     15  C   UNL     1       8.257   5.931  19.146  0.00  0.00    +0.000 A 
ATOM     16  C   UNL     1       7.304   5.806  20.151  0.00  0.00    +0.000 A 
ATOM     17  C   UNL     1       5.991   5.423  19.843  0.00  0.00    +0.000 A 
ATOM     18  C   UNL     1       5.620   5.078  18.520  0.00  0.00    +0.000 A 
ATOM     19  C   UNL     1       7.793   4.713  12.722  0.00  0.00    +0.000 C 
ATOM     20  C   UNL     1       7.141   4.602  11.341  0.00  0.00    +0.000 C 
ATOM     21  C   UNL     1       6.227   3.382  11.275  0.00  0.00    +0.000 C 
ATOM     22  C   UNL     1       5.117   3.502  12.312  0.00  0.00    +0.000 C 
ATOM     23  C   UNL     1       3.639   2.444  17.037  0.00  0.00    +0.000 C 
ATOM     24  C   UNL     1       3.489   1.964  18.521  0.00  0.00    +0.000 C 
ENDROOT
BRANCH  24  25
ATOM     25  O   UNL     1       4.747   1.841  19.214  0.00  0.00    +0.000 OA
ATOM     26  H   UNL     1       5.039   0.922  19.178  0.00  0.00    +0.000 HD
ENDBRANCH  24  25
TORSDOF 1
ENDMDL
MODEL 8
REMARK VINA RESULT:      -6.5      8.646      9.942
REMARK  Name = 
REMARK  3 active torsions:
REMARK  status: ('A' for Active; 'I' for Inactive)
REMARK    1  A    between atoms: C_1  and  C_2
REMARK    2  A    between atoms: C_2  and  C_3
REMARK    3  A    between atoms: C_24  and  O_25
REMARK                            x       y       z     vdW  Elec       q    Type
REMARK                         _______ _______ _______ _____ _____    ______ ____
ROOT
ATOM      1  C   UNL     1      11.385  11.873  17.465  0.00  0.00    +0.000 C 
ATOM      2  C   UNL     1      10.997  12.008  18.950  0.00  0.00    +0.000 C 
ATOM      3  C   UNL     1      12.333  11.693  19.700  0.00  0.00    +0.000 C 
ATOM      4  O   UNL     1      10.411  13.367  19.045  0.00  0.00    +0.000 OA
ATOM      5  C   UNL     1       9.310  13.577  19.875  0.00  0.00    +0.000 A 
ATOM      6  C   UNL     1       9.194  12.820  21.033  0.00  0.00    +0.000 A 
ATOM      7  C   UNL     1       8.354  13.190  22.085  0.00  0.00    +0.000 A 
ATOM      8  N   UNL     1       8.588  12.628  23.295  0.00  0.00    +0.000 NA
ATOM      9  C   UNL     1       7.751  12.954  24.303  0.00  0.00    +0.000 A 
ATOM     10  C   UNL     1       6.656  13.774  24.083  0.00  0.00    +0.000 A 
ATOM     11  N   UNL     1       6.413  14.325  22.861  0.00  0.00    +0.000 NA
ATOM     12  C   UNL     1       7.304  14.062  21.843  0.00  0.00    +0.000 A 
ATOM     13  C   UNL     1       7.153  14.548  20.515  0.00  0.00    +0.000 A 
ATOM     14  C   UNL     1       5.955  15.165  20.129  0.00  0.00    +0.000 A 
ATOM     15  C   UNL     1       5.707  15.519  18.801  0.00  0.00    +0.000 A 
ATOM     16  C   UNL     1       6.702  15.332  17.848  0.00  0.00    +0.000 A 
ATOM     17  C   UNL     1       7.943  14.789  18.210  0.00  0.00    +0.000 A 
ATOM     18  C   UNL     1       8.191  14.348  19.534  0.00  0.00    +0.000 A 
ATOM     19  C   UNL     1       5.632  13.979  25.172  0.00  0.00    +0.000 C 
ATOM     20  C   UNL     1       6.181  13.736  26.581  0.00  0.00    +0.000 C 
ATOM     21  C   UNL     1       6.950  12.419  26.638  0.00  0.00    +0.000 C 
ATOM     22  C   UNL     1       8.129  12.458  25.673  0.00  0.00    +0.000 C 
ATOM     23  C   UNL     1       9.773  11.446  20.994  0.00  0.00    +0.000 C 
ATOM     24  C   UNL     1       9.962  11.017  19.498  0.00  0.00    +0.000 C 
ENDROOT
BRANCH  24  25
ATOM     25  O   UNL     1       8.744  11.066  18.729  0.00  0.00    +0.000 OA
ATOM     26  H   UNL     1       8.834  11.731  18.036  0.00  0.00    +0.000 HD
ENDBRANCH  24  25
TORSDOF 1
ENDMDL
MODEL 9
REMARK VINA RESULT:      -6.3      9.778     11.572
REMARK  Name = 
REMARK  3 active torsions:
REMARK  status: ('A' for Active; 'I' for Inactive)
REMARK    1  A    between atoms: C_1  and  C_2
REMARK    2  A    between atoms: C_2  and  C_3
REMARK    3  A    between atoms: C_24  and  O_25
REMARK                            x       y       z     vdW  Elec       q    Type
REMARK                         _______ _______ _______ _____ _____    ______ ____
ROOT
ATOM      1  C   UNL     1      11.569  13.528  16.427  0.00  0.00    +0.000 C 
ATOM      2  C   UNL     1      11.015  13.025  17.773  0.00  0.00    +0.000 C 
ATOM      3  C   UNL     1      11.269  11.482  17.714  0.00  0.00    +0.000 C 
ATOM      4  O   UNL     1      11.729  13.843  18.783  0.00  0.00    +0.000 OA
ATOM      5  C   UNL     1      11.043  14.278  19.917  0.00  0.00    +0.000 A 
ATOM      6  C   UNL     1      10.038  13.476  20.437  0.00  0.00    +0.000 A 
ATOM      7  C   UNL     1       9.551  13.637  21.735  0.00  0.00    +0.000 A 
ATOM      8  N   UNL     1       8.873  12.597  22.279  0.00  0.00    +0.000 NA
ATOM      9  C   UNL     1       8.367  12.767  23.519  0.00  0.00    +0.000 A 
ATOM     10  C   UNL     1       8.479  13.983  24.173  0.00  0.00    +0.000 A 
ATOM     11  N   UNL     1       9.147  15.032  23.618  0.00  0.00    +0.000 NA
ATOM     12  C   UNL     1       9.734  14.847  22.385  0.00  0.00    +0.000 A 
ATOM     13  C   UNL     1      10.434  15.865  21.682  0.00  0.00    +0.000 A 
ATOM     14  C   UNL     1      10.381  17.191  22.135  0.00  0.00    +0.000 A 
ATOM     15  C   UNL     1      10.925  18.241  21.395  0.00  0.00    +0.000 A 
ATOM     16  C   UNL     1      11.609  17.963  20.216  0.00  0.00    +0.000 A 
ATOM     17  C   UNL     1      11.751  16.642  19.770  0.00  0.00    +0.000 A 
ATOM     18  C   UNL     1      11.140  15.566  20.460  0.00  0.00    +0.000 A 
ATOM     19  C   UNL     1       7.752  14.212  25.476  0.00  0.00    +0.000 C 
ATOM     20  C   UNL     1       7.434  12.920  26.234  0.00  0.00    +0.000 C 
ATOM     21  C   UNL     1       6.805  11.890  25.300  0.00  0.00    +0.000 C 
ATOM     22  C   UNL     1       7.770  11.548  24.171  0.00  0.00    +0.000 C 
ATOM     23  C   UNL     1       9.290  12.627  19.464  0.00  0.00    +0.000 C 
ATOM     24  C   UNL     1       9.510  13.195  18.020  0.00  0.00    +0.000 C 
ENDROOT
BRANCH  24  25
ATOM     25  O   UNL     1       9.118  14.575  17.881  0.00  0.00    +0.000 OA
ATOM     26  H   UNL     1       9.323  15.046  18.698  0.00  0.00    +0.000 HD
ENDBRANCH  24  25
TORSDOF 1
ENDMDL
