MODEL 1
REMARK VINA RESULT:      -8.5      0.000      0.000
REMARK  Name = 
REMARK  6 active torsions:
REMARK  status: ('A' for Active; 'I' for Inactive)
REMARK    1  A    between atoms: C_2  and  O_3
REMARK    2  A    between atoms: C_2  and  C_4
REMARK    3  A    between atoms: C_4  and  C_5
REMARK    4  A    between atoms: C_5  and  C_6
REMARK    5  A    between atoms: C_6  and  N_7
REMARK    6  A    between atoms: N_19  and  C_20
REMARK                            x       y       z     vdW  Elec       q    Type
REMARK                         _______ _______ _______ _____ _____    ______ ____
ROOT
ATOM      1  N   UNL     1       1.651   8.892  19.530  0.00  0.00    +0.000 NA
ATOM      2  C   UNL     1       1.881   8.847  18.066  0.00  0.00    +0.000 C 
ATOM      3  C   UNL     1       3.128   7.990  17.712  0.00  0.00    +0.000 C 
ATOM      4  C   UNL     1       3.100   6.706  18.485  0.00  0.00    +0.000 A 
ATOM      5  C   UNL     1       2.232   6.520  19.542  0.00  0.00    +0.000 A 
ATOM      6  C   UNL     1       2.410   5.203  20.023  0.00  0.00    +0.000 A 
ATOM      7  C   UNL     1       1.812   4.484  21.078  0.00  0.00    +0.000 A 
ATOM      8  C   UNL     1       2.237   3.188  21.341  0.00  0.00    +0.000 A 
ATOM      9  F   UNL     1       1.671   2.504  22.344  0.00  0.00    +0.000 F 
ATOM     10  C   UNL     1       3.247   2.601  20.601  0.00  0.00    +0.000 A 
ATOM     11  C   UNL     1       3.862   3.304  19.559  0.00  0.00    +0.000 A 
ATOM     12  C   UNL     1       3.409   4.606  19.244  0.00  0.00    +0.000 A 
ATOM     13  N   UNL     1       3.824   5.542  18.275  0.00  0.00    +0.000 N 
ATOM     14  C   UNL     1       1.266   7.550  20.031  0.00  0.00    +0.000 C 
ENDROOT
BRANCH  13  15
ATOM     15  C   UNL     1       4.828   5.323  17.277  0.00  0.00    +0.000 A 
ATOM     16  C   UNL     1       6.084   5.940  17.389  0.00  0.00    +0.000 A 
ATOM     17  C   UNL     1       7.038   5.799  16.377  0.00  0.00    +0.000 A 
ATOM     18  C   UNL     1       6.750   5.013  15.269  0.00  0.00    +0.000 A 
ATOM     19  F   UNL     1       7.660   4.887  14.295  0.00  0.00    +0.000 F 
ATOM     20  C   UNL     1       5.530   4.361  15.158  0.00  0.00    +0.000 A 
ATOM     21  C   UNL     1       4.566   4.517  16.158  0.00  0.00    +0.000 A 
ENDBRANCH  13  15
BRANCH   1  22
ATOM     22  C   UNL     1       0.636   9.894  19.883  0.00  0.00    +0.000 C 
BRANCH  22  23
ATOM     23  C   UNL     1       0.076  10.652  18.670  0.00  0.00    +0.000 C 
BRANCH  23  24
ATOM     24  C   UNL     1      -1.443  10.518  18.549  0.00  0.00    +0.000 C 
BRANCH  24  26
ATOM     25  O   UNL     1      -3.083  11.397  16.985  0.00  0.00    +0.000 OA
ATOM     26  C   UNL     1      -2.020  11.515  17.574  0.00  0.00    +0.000 C 
BRANCH  26  27
ATOM     27  O   UNL     1      -1.219  12.595  17.413  0.00  0.00    +0.000 OA
ATOM     28  H   UNL     1      -1.124  12.871  16.481  0.00  0.00    +0.000 HD
ENDBRANCH  26  27
ENDBRANCH  24  26
ENDBRANCH  23  24
ENDBRANCH  22  23
ENDBRANCH   1  22
TORSDOF 6
ENDMDL
MODEL 2
REMARK VINA RESULT:      -8.4      4.280      7.151
REMARK  Name = 
REMARK  6 active torsions:
REMARK  status: ('A' for Active; 'I' for Inactive)
REMARK    1  A    between atoms: C_2  and  O_3
REMARK    2  A    between atoms: C_2  and  C_4
REMARK    3  A    between atoms: C_4  and  C_5
REMARK    4  A    between atoms: C_5  and  C_6
REMARK    5  A    between atoms: C_6  and  N_7
REMARK    6  A    between atoms: N_19  and  C_20
REMARK                            x       y       z     vdW  Elec       q    Type
REMARK                         _______ _______ _______ _____ _____    ______ ____
ROOT
ATOM      1  N   UNL     1       5.830   5.106  15.946  0.00  0.00    +0.000 NA
ATOM      2  C   UNL     1       6.087   6.394  16.633  0.00  0.00    +0.000 C 
ATOM      3  C   UNL     1       4.764   7.069  17.092  0.00  0.00    +0.000 C 
ATOM      4  C   UNL     1       3.878   6.056  17.750  0.00  0.00    +0.000 A 
ATOM      5  C   UNL     1       4.137   4.703  17.659  0.00  0.00    +0.000 A 
ATOM      6  C   UNL     1       3.162   4.022  18.423  0.00  0.00    +0.000 A 
ATOM      7  C   UNL     1       2.931   2.654  18.673  0.00  0.00    +0.000 A 
ATOM      8  C   UNL     1       1.840   2.282  19.447  0.00  0.00    +0.000 A 
ATOM      9  F   UNL     1       1.617   0.982  19.685  0.00  0.00    +0.000 F 
ATOM     10  C   UNL     1       0.967   3.225  19.957  0.00  0.00    +0.000 A 
ATOM     11  C   UNL     1       1.172   4.587  19.707  0.00  0.00    +0.000 A 
ATOM     12  C   UNL     1       2.305   4.989  18.963  0.00  0.00    +0.000 A 
ATOM     13  N   UNL     1       2.767   6.257  18.555  0.00  0.00    +0.000 N 
ATOM     14  C   UNL     1       5.282   4.113  16.903  0.00  0.00    +0.000 C 
ENDROOT
BRANCH  13  15
ATOM     15  C   UNL     1       2.171   7.514  18.899  0.00  0.00    +0.000 A 
ATOM     16  C   UNL     1       1.852   7.805  20.234  0.00  0.00    +0.000 A 
ATOM     17  C   UNL     1       1.194   8.993  20.565  0.00  0.00    +0.000 A 
ATOM     18  C   UNL     1       0.885   9.906  19.567  0.00  0.00    +0.000 A 
ATOM     19  F   UNL     1       0.245  11.039  19.882  0.00  0.00    +0.000 F 
ATOM     20  C   UNL     1       1.227   9.656  18.244  0.00  0.00    +0.000 A 
ATOM     21  C   UNL     1       1.867   8.460  17.908  0.00  0.00    +0.000 A 
ENDBRANCH  13  15
BRANCH   1  22
ATOM     22  C   UNL     1       7.044   4.592  15.295  0.00  0.00    +0.000 C 
BRANCH  22  23
ATOM     23  C   UNL     1       6.887   4.390  13.781  0.00  0.00    +0.000 C 
BRANCH  23  24
ATOM     24  C   UNL     1       5.455   4.024  13.386  0.00  0.00    +0.000 C 
BRANCH  24  26
ATOM     25  O   UNL     1       4.453   3.021  11.412  0.00  0.00    +0.000 OA
ATOM     26  C   UNL     1       5.415   3.160  12.149  0.00  0.00    +0.000 C 
BRANCH  26  27
ATOM     27  O   UNL     1       6.597   2.536  11.924  0.00  0.00    +0.000 OA
ATOM     28  H   UNL     1       6.664   2.147  11.030  0.00  0.00    +0.000 HD
ENDBRANCH  26  27
ENDBRANCH  24  26
ENDBRANCH  23  24
ENDBRANCH  22  23
ENDBRANCH   1  22
TORSDOF 6
ENDMDL
MODEL 3
REMARK VINA RESULT:      -8.3      1.971      2.251
REMARK  Name = 
REMARK  6 active torsions:
REMARK  status: ('A' for Active; 'I' for Inactive)
REMARK    1  A    between atoms: C_2  and  O_3
REMARK    2  A    between atoms: C_2  and  C_4
REMARK    3  A    between atoms: C_4  and  C_5
REMARK    4  A    between atoms: C_5  and  C_6
REMARK    5  A    between atoms: C_6  and  N_7
REMARK    6  A    between atoms: N_19  and  C_20
REMARK                            x       y       z     vdW  Elec       q    Type
REMARK                         _______ _______ _______ _____ _____    ______ ____
ROOT
ATOM      1  N   UNL     1       1.590   8.760  19.637  0.00  0.00    +0.000 NA
ATOM      2  C   UNL     1       1.830   8.751  18.175  0.00  0.00    +0.000 C 
ATOM      3  C   UNL     1       3.099   7.929  17.812  0.00  0.00    +0.000 C 
ATOM      4  C   UNL     1       3.095   6.630  18.559  0.00  0.00    +0.000 A 
ATOM      5  C   UNL     1       2.225   6.403  19.606  0.00  0.00    +0.000 A 
ATOM      6  C   UNL     1       2.429   5.081  20.062  0.00  0.00    +0.000 A 
ATOM      7  C   UNL     1       1.842   4.327  21.098  0.00  0.00    +0.000 A 
ATOM      8  C   UNL     1       2.294   3.036  21.337  0.00  0.00    +0.000 A 
ATOM      9  F   UNL     1       1.738   2.319  22.323  0.00  0.00    +0.000 F 
ATOM     10  C   UNL     1       3.321   2.487  20.593  0.00  0.00    +0.000 A 
ATOM     11  C   UNL     1       3.927   3.225  19.570  0.00  0.00    +0.000 A 
ATOM     12  C   UNL     1       3.447   4.522  19.278  0.00  0.00    +0.000 A 
ATOM     13  N   UNL     1       3.846   5.487  18.330  0.00  0.00    +0.000 N 
ATOM     14  C   UNL     1       1.233   7.401  20.109  0.00  0.00    +0.000 C 
ENDROOT
BRANCH  13  15
ATOM     15  C   UNL     1       4.862   5.311  17.335  0.00  0.00    +0.000 A 
ATOM     16  C   UNL     1       6.113   5.928  17.483  0.00  0.00    +0.000 A 
ATOM     17  C   UNL     1       7.078   5.830  16.476  0.00  0.00    +0.000 A 
ATOM     18  C   UNL     1       6.805   5.087  15.336  0.00  0.00    +0.000 A 
ATOM     19  F   UNL     1       7.725   5.002  14.367  0.00  0.00    +0.000 F 
ATOM     20  C   UNL     1       5.589   4.435  15.187  0.00  0.00    +0.000 A 
ATOM     21  C   UNL     1       4.614   4.548  16.183  0.00  0.00    +0.000 A 
ENDBRANCH  13  15
BRANCH   1  22
ATOM     22  C   UNL     1       0.550   9.733  20.004  0.00  0.00    +0.000 C 
BRANCH  22  23
ATOM     23  C   UNL     1       0.967  10.674  21.144  0.00  0.00    +0.000 C 
BRANCH  23  24
ATOM     24  C   UNL     1      -0.200  11.518  21.660  0.00  0.00    +0.000 C 
BRANCH  24  26
ATOM     25  O   UNL     1      -1.928  11.176  23.334  0.00  0.00    +0.000 OA
ATOM     26  C   UNL     1      -0.812  10.929  22.907  0.00  0.00    +0.000 C 
BRANCH  26  27
ATOM     27  O   UNL     1       0.025  10.063  23.527  0.00  0.00    +0.000 OA
ATOM     28  H   UNL     1       0.260  10.335  24.435  0.00  0.00    +0.000 HD
ENDBRANCH  26  27
ENDBRANCH  24  26
ENDBRANCH  23  24
ENDBRANCH  22  23
ENDBRANCH   1  22
TORSDOF 6
ENDMDL
MODEL 4
REMARK VINA RESULT:      -8.3      1.882      2.434
REMARK  Name = 
REMARK  6 active torsions:
REMARK  status: ('A' for Active; 'I' for Inactive)
REMARK    1  A    between atoms: C_2  and  O_3
REMARK    2  A    between atoms: C_2  and  C_4
REMARK    3  A    between atoms: C_4  and  C_5
REMARK    4  A    between atoms: C_5  and  C_6
REMARK    5  A    between atoms: C_6  and  N_7
REMARK    6  A    between atoms: N_19  and  C_20
REMARK                            x       y       z     vdW  Elec       q    Type
REMARK                         _______ _______ _______ _____ _____    ______ ____
ROOT
ATOM      1  N   UNL     1       1.692   8.671  19.860  0.00  0.00    +0.000 NA
ATOM      2  C   UNL     1       1.854   8.726  18.387  0.00  0.00    +0.000 C 
ATOM      3  C   UNL     1       3.103   7.925  17.923  0.00  0.00    +0.000 C 
ATOM      4  C   UNL     1       3.141   6.595  18.612  0.00  0.00    +0.000 A 
ATOM      5  C   UNL     1       2.328   6.319  19.692  0.00  0.00    +0.000 A 
ATOM      6  C   UNL     1       2.559   4.980  20.079  0.00  0.00    +0.000 A 
ATOM      7  C   UNL     1       2.028   4.180  21.111  0.00  0.00    +0.000 A 
ATOM      8  C   UNL     1       2.495   2.881  21.270  0.00  0.00    +0.000 A 
ATOM      9  F   UNL     1       1.993   2.120  22.251  0.00  0.00    +0.000 F 
ATOM     10  C   UNL     1       3.483   2.369  20.449  0.00  0.00    +0.000 A 
ATOM     11  C   UNL     1       4.032   3.153  19.428  0.00  0.00    +0.000 A 
ATOM     12  C   UNL     1       3.534   4.460  19.218  0.00  0.00    +0.000 A 
ATOM     13  N   UNL     1       3.881   5.466  18.294  0.00  0.00    +0.000 N 
ATOM     14  C   UNL     1       1.363   7.290  20.290  0.00  0.00    +0.000 C 
ENDROOT
BRANCH  13  15
ATOM     15  C   UNL     1       4.843   5.337  17.239  0.00  0.00    +0.000 A 
ATOM     16  C   UNL     1       4.552   4.561  16.107  0.00  0.00    +0.000 A 
ATOM     17  C   UNL     1       5.517   4.362  15.115  0.00  0.00    +0.000 A 
ATOM     18  C   UNL     1       6.760   4.967  15.237  0.00  0.00    +0.000 A 
ATOM     19  F   UNL     1       7.687   4.768  14.292  0.00  0.00    +0.000 F 
ATOM     20  C   UNL     1       7.054   5.773  16.329  0.00  0.00    +0.000 A 
ATOM     21  C   UNL     1       6.099   5.957  17.333  0.00  0.00    +0.000 A 
ENDBRANCH  13  15
BRANCH   1  22
ATOM     22  C   UNL     1       0.671   9.622  20.323  0.00  0.00    +0.000 C 
BRANCH  22  23
ATOM     23  C   UNL     1      -0.223   9.064  21.441  0.00  0.00    +0.000 C 
BRANCH  23  24
ATOM     24  C   UNL     1      -0.023   9.798  22.768  0.00  0.00    +0.000 C 
BRANCH  24  26
ATOM     25  O   UNL     1      -0.237  12.182  22.346  0.00  0.00    +0.000 OA
ATOM     26  C   UNL     1      -0.708  11.142  22.778  0.00  0.00    +0.000 C 
BRANCH  26  27
ATOM     27  O   UNL     1      -1.946  11.080  23.325  0.00  0.00    +0.000 OA
ATOM     28  H   UNL     1      -2.022  11.570  24.166  0.00  0.00    +0.000 HD
ENDBRANCH  26  27
ENDBRANCH  24  26
ENDBRANCH  23  24
ENDBRANCH  22  23
ENDBRANCH   1  22
TORSDOF 6
ENDMDL
MODEL 5
REMARK VINA RESULT:      -8.3      0.612      1.287
REMARK  Name = 
REMARK  6 active torsions:
REMARK  status: ('A' for Active; 'I' for Inactive)
REMARK    1  A    between atoms: C_2  and  O_3
REMARK    2  A    between atoms: C_2  and  C_4
REMARK    3  A    between atoms: C_4  and  C_5
REMARK    4  A    between atoms: C_5  and  C_6
REMARK    5  A    between atoms: C_6  and  N_7
REMARK    6  A    between atoms: N_19  and  C_20
REMARK                            x       y       z     vdW  Elec       q    Type
REMARK                         _______ _______ _______ _____ _____    ______ ____
ROOT
ATOM      1  N   UNL     1       1.632   8.874  19.675  0.00  0.00    +0.000 NA
ATOM      2  C   UNL     1       1.827   8.875  18.205  0.00  0.00    +0.000 C 
ATOM      3  C   UNL     1       3.080   8.049  17.797  0.00  0.00    +0.000 C 
ATOM      4  C   UNL     1       3.091   6.744  18.533  0.00  0.00    +0.000 A 
ATOM      5  C   UNL     1       2.252   6.513  19.604  0.00  0.00    +0.000 A 
ATOM      6  C   UNL     1       2.463   5.186  20.043  0.00  0.00    +0.000 A 
ATOM      7  C   UNL     1       1.903   4.427  21.091  0.00  0.00    +0.000 A 
ATOM      8  C   UNL     1       2.354   3.131  21.305  0.00  0.00    +0.000 A 
ATOM      9  F   UNL     1       1.825   2.409  22.302  0.00  0.00    +0.000 F 
ATOM     10  C   UNL     1       3.355   2.583  20.525  0.00  0.00    +0.000 A 
ATOM     11  C   UNL     1       3.933   3.326  19.490  0.00  0.00    +0.000 A 
ATOM     12  C   UNL     1       3.452   4.628  19.223  0.00  0.00    +0.000 A 
ATOM     13  N   UNL     1       3.828   5.598  18.272  0.00  0.00    +0.000 N 
ATOM     14  C   UNL     1       1.282   7.512  20.146  0.00  0.00    +0.000 C 
ENDROOT
BRANCH  13  15
ATOM     15  C   UNL     1       4.811   5.425  17.245  0.00  0.00    +0.000 A 
ATOM     16  C   UNL     1       4.535   4.620  16.129  0.00  0.00    +0.000 A 
ATOM     17  C   UNL     1       5.519   4.378  15.166  0.00  0.00    +0.000 A 
ATOM     18  C   UNL     1       6.768   4.969  15.299  0.00  0.00    +0.000 A 
ATOM     19  F   UNL     1       7.714   4.729  14.382  0.00  0.00    +0.000 F 
ATOM     20  C   UNL     1       7.049   5.802  16.374  0.00  0.00    +0.000 A 
ATOM     21  C   UNL     1       6.074   6.028  17.350  0.00  0.00    +0.000 A 
ENDBRANCH  13  15
BRANCH   1  22
ATOM     22  C   UNL     1       0.610   9.848  20.082  0.00  0.00    +0.000 C 
BRANCH  22  23
ATOM     23  C   UNL     1      -0.343  10.246  18.945  0.00  0.00    +0.000 C 
BRANCH  23  24
ATOM     24  C   UNL     1      -1.302  11.366  19.352  0.00  0.00    +0.000 C 
BRANCH  24  26
ATOM     25  O   UNL     1      -0.586  13.676  19.106  0.00  0.00    +0.000 OA
ATOM     26  C   UNL     1      -1.018  12.649  18.609  0.00  0.00    +0.000 C 
BRANCH  26  27
ATOM     27  O   UNL     1      -1.291  12.543  17.286  0.00  0.00    +0.000 OA
ATOM     28  H   UNL     1      -1.855  11.776  17.068  0.00  0.00    +0.000 HD
ENDBRANCH  26  27
ENDBRANCH  24  26
ENDBRANCH  23  24
ENDBRANCH  22  23
ENDBRANCH   1  22
TORSDOF 6
ENDMDL
MODEL 6
REMARK VINA RESULT:      -8.2      1.504      1.717
REMARK  Name = 
REMARK  6 active torsions:
REMARK  status: ('A' for Active; 'I' for Inactive)
REMARK    1  A    between atoms: C_2  and  O_3
REMARK    2  A    between atoms: C_2  and  C_4
REMARK    3  A    between atoms: C_4  and  C_5
REMARK    4  A    between atoms: C_5  and  C_6
REMARK    5  A    between atoms: C_6  and  N_7
REMARK    6  A    between atoms: N_19  and  C_20
REMARK                            x       y       z     vdW  Elec       q    Type
REMARK                         _______ _______ _______ _____ _____    ______ ____
ROOT
ATOM      1  N   UNL     1       1.719   8.724  19.679  0.00  0.00    +0.000 NA
ATOM      2  C   UNL     1       1.930   8.721  18.211  0.00  0.00    +0.000 C 
ATOM      3  C   UNL     1       3.177   7.879  17.818  0.00  0.00    +0.000 C 
ATOM      4  C   UNL     1       3.163   6.575  18.555  0.00  0.00    +0.000 A 
ATOM      5  C   UNL     1       2.309   6.355  19.617  0.00  0.00    +0.000 A 
ATOM      6  C   UNL     1       2.498   5.026  20.059  0.00  0.00    +0.000 A 
ATOM      7  C   UNL     1       1.917   4.275  21.101  0.00  0.00    +0.000 A 
ATOM      8  C   UNL     1       2.349   2.975  21.323  0.00  0.00    +0.000 A 
ATOM      9  F   UNL     1       1.800   2.260  22.313  0.00  0.00    +0.000 F 
ATOM     10  C   UNL     1       3.352   2.413  20.554  0.00  0.00    +0.000 A 
ATOM     11  C   UNL     1       3.952   3.147  19.525  0.00  0.00    +0.000 A 
ATOM     12  C   UNL     1       3.490   4.455  19.252  0.00  0.00    +0.000 A 
ATOM     13  N   UNL     1       3.888   5.419  18.304  0.00  0.00    +0.000 N 
ATOM     14  C   UNL     1       1.346   7.367  20.147  0.00  0.00    +0.000 C 
ENDROOT
BRANCH  13  15
ATOM     15  C   UNL     1       4.881   5.233  17.288  0.00  0.00    +0.000 A 
ATOM     16  C   UNL     1       6.138   5.847  17.404  0.00  0.00    +0.000 A 
ATOM     17  C   UNL     1       7.080   5.738  16.377  0.00  0.00    +0.000 A 
ATOM     18  C   UNL     1       6.780   4.988  15.249  0.00  0.00    +0.000 A 
ATOM     19  F   UNL     1       7.678   4.893  14.260  0.00  0.00    +0.000 F 
ATOM     20  C   UNL     1       5.558   4.338  15.131  0.00  0.00    +0.000 A 
ATOM     21  C   UNL     1       4.606   4.462  16.148  0.00  0.00    +0.000 A 
ENDBRANCH  13  15
BRANCH   1  22
ATOM     22  C   UNL     1       0.704   9.712  20.073  0.00  0.00    +0.000 C 
BRANCH  22  23
ATOM     23  C   UNL     1       0.610  10.908  19.114  0.00  0.00    +0.000 C 
BRANCH  23  24
ATOM     24  C   UNL     1       1.432  12.106  19.594  0.00  0.00    +0.000 C 
BRANCH  24  26
ATOM     25  O   UNL     1       1.813  14.144  18.325  0.00  0.00    +0.000 OA
ATOM     26  C   UNL     1       1.943  12.936  18.441  0.00  0.00    +0.000 C 
BRANCH  26  27
ATOM     27  O   UNL     1       2.588  12.184  17.517  0.00  0.00    +0.000 OA
ATOM     28  H   UNL     1       3.548  12.108  17.683  0.00  0.00    +0.000 HD
ENDBRANCH  26  27
ENDBRANCH  24  26
ENDBRANCH  23  24
ENDBRANCH  22  23
ENDBRANCH   1  22
TORSDOF 6
ENDMDL
MODEL 7
REMARK VINA RESULT:      -8.2      4.280      7.151
REMARK  Name = 
REMARK  6 active torsions:
REMARK  status: ('A' for Active; 'I' for Inactive)
REMARK    1  A    between atoms: C_2  and  O_3
REMARK    2  A    between atoms: C_2  and  C_4
REMARK    3  A    between atoms: C_4  and  C_5
REMARK    4  A    between atoms: C_5  and  C_6
REMARK    5  A    between atoms: C_6  and  N_7
REMARK    6  A    between atoms: N_19  and  C_20
REMARK                            x       y       z     vdW  Elec       q    Type
REMARK                         _______ _______ _______ _____ _____    ______ ____
ROOT
ATOM      1  N   UNL     1       5.788   5.166  16.482  0.00  0.00    +0.000 NA
ATOM      2  C   UNL     1       5.960   6.573  16.916  0.00  0.00    +0.000 C 
ATOM      3  C   UNL     1       4.598   7.222  17.294  0.00  0.00    +0.000 C 
ATOM      4  C   UNL     1       3.809   6.285  18.155  0.00  0.00    +0.000 A 
ATOM      5  C   UNL     1       4.170   4.961  18.299  0.00  0.00    +0.000 A 
ATOM      6  C   UNL     1       3.267   4.360  19.207  0.00  0.00    +0.000 A 
ATOM      7  C   UNL     1       3.149   3.048  19.707  0.00  0.00    +0.000 A 
ATOM      8  C   UNL     1       2.107   2.744  20.574  0.00  0.00    +0.000 A 
ATOM      9  F   UNL     1       1.992   1.497  21.049  0.00  0.00    +0.000 F 
ATOM     10  C   UNL     1       1.176   3.700  20.937  0.00  0.00    +0.000 A 
ATOM     11  C   UNL     1       1.269   5.004  20.439  0.00  0.00    +0.000 A 
ATOM     12  C   UNL     1       2.350   5.345  19.596  0.00  0.00    +0.000 A 
ATOM     13  N   UNL     1       2.703   6.548  18.950  0.00  0.00    +0.000 N 
ATOM     14  C   UNL     1       5.340   4.327  17.620  0.00  0.00    +0.000 C 
ENDROOT
BRANCH  13  15
ATOM     15  C   UNL     1       2.019   7.800  19.084  0.00  0.00    +0.000 A 
ATOM     16  C   UNL     1       1.774   8.597  17.954  0.00  0.00    +0.000 A 
ATOM     17  C   UNL     1       1.184   9.857  18.088  0.00  0.00    +0.000 A 
ATOM     18  C   UNL     1       0.807  10.307  19.346  0.00  0.00    +0.000 A 
ATOM     19  F   UNL     1       0.252  11.518  19.475  0.00  0.00    +0.000 F 
ATOM     20  C   UNL     1       1.004   9.518  20.471  0.00  0.00    +0.000 A 
ATOM     21  C   UNL     1       1.613   8.266  20.343  0.00  0.00    +0.000 A 
ENDBRANCH  13  15
BRANCH   1  22
ATOM     22  C   UNL     1       7.023   4.632  15.890  0.00  0.00    +0.000 C 
BRANCH  22  23
ATOM     23  C   UNL     1       7.023   4.649  14.355  0.00  0.00    +0.000 C 
BRANCH  23  24
ATOM     24  C   UNL     1       5.863   3.846  13.763  0.00  0.00    +0.000 C 
BRANCH  24  26
ATOM     25  O   UNL     1       5.532   2.546  11.736  0.00  0.00    +0.000 OA
ATOM     26  C   UNL     1       6.148   3.404  12.348  0.00  0.00    +0.000 C 
BRANCH  26  27
ATOM     27  O   UNL     1       7.188   4.079  11.802  0.00  0.00    +0.000 OA
ATOM     28  H   UNL     1       7.205   5.025  12.046  0.00  0.00    +0.000 HD
ENDBRANCH  26  27
ENDBRANCH  24  26
ENDBRANCH  23  24
ENDBRANCH  22  23
ENDBRANCH   1  22
TORSDOF 6
ENDMDL
MODEL 8
REMARK VINA RESULT:      -8.1      2.223      2.563
REMARK  Name = 
REMARK  6 active torsions:
REMARK  status: ('A' for Active; 'I' for Inactive)
REMARK    1  A    between atoms: C_2  and  O_3
REMARK    2  A    between atoms: C_2  and  C_4
REMARK    3  A    between atoms: C_4  and  C_5
REMARK    4  A    between atoms: C_5  and  C_6
REMARK    5  A    between atoms: C_6  and  N_7
REMARK    6  A    between atoms: N_19  and  C_20
REMARK                            x       y       z     vdW  Elec       q    Type
REMARK                         _______ _______ _______ _____ _____    ______ ____
ROOT
ATOM      1  N   UNL     1       1.682   9.108  19.158  0.00  0.00    +0.000 NA
ATOM      2  C   UNL     1       1.974   8.980  17.710  0.00  0.00    +0.000 C 
ATOM      3  C   UNL     1       3.218   8.082  17.459  0.00  0.00    +0.000 C 
ATOM      4  C   UNL     1       3.130   6.844  18.298  0.00  0.00    +0.000 A 
ATOM      5  C   UNL     1       2.214   6.731  19.324  0.00  0.00    +0.000 A 
ATOM      6  C   UNL     1       2.344   5.439  19.883  0.00  0.00    +0.000 A 
ATOM      7  C   UNL     1       1.687   4.790  20.948  0.00  0.00    +0.000 A 
ATOM      8  C   UNL     1       2.073   3.503  21.298  0.00  0.00    +0.000 A 
ATOM      9  F   UNL     1       1.452   2.885  22.311  0.00  0.00    +0.000 F 
ATOM     10  C   UNL     1       3.102   2.859  20.637  0.00  0.00    +0.000 A 
ATOM     11  C   UNL     1       3.776   3.492  19.586  0.00  0.00    +0.000 A 
ATOM     12  C   UNL     1       3.364   4.783  19.182  0.00  0.00    +0.000 A 
ATOM     13  N   UNL     1       3.838   5.657  18.183  0.00  0.00    +0.000 N 
ATOM     14  C   UNL     1       1.249   7.803  19.714  0.00  0.00    +0.000 C 
ENDROOT
BRANCH  13  15
ATOM     15  C   UNL     1       4.880   5.365  17.243  0.00  0.00    +0.000 A 
ATOM     16  C   UNL     1       6.142   5.965  17.377  0.00  0.00    +0.000 A 
ATOM     17  C   UNL     1       7.136   5.751  16.417  0.00  0.00    +0.000 A 
ATOM     18  C   UNL     1       6.880   4.912  15.342  0.00  0.00    +0.000 A 
ATOM     19  F   UNL     1       7.828   4.716  14.417  0.00  0.00    +0.000 F 
ATOM     20  C   UNL     1       5.652   4.277  15.212  0.00  0.00    +0.000 A 
ATOM     21  C   UNL     1       4.650   4.505  16.159  0.00  0.00    +0.000 A 
ENDBRANCH  13  15
BRANCH   1  22
ATOM     22  C   UNL     1       0.673  10.147  19.412  0.00  0.00    +0.000 C 
BRANCH  22  23
ATOM     23  C   UNL     1       0.861  10.868  20.755  0.00  0.00    +0.000 C 
BRANCH  23  24
ATOM     24  C   UNL     1      -0.086  10.345  21.836  0.00  0.00    +0.000 C 
BRANCH  24  26
ATOM     25  O   UNL     1       1.818   9.245  22.871  0.00  0.00    +0.000 OA
ATOM     26  C   UNL     1       0.656   9.611  22.927  0.00  0.00    +0.000 C 
BRANCH  26  27
ATOM     27  O   UNL     1      -0.120   9.397  24.017  0.00  0.00    +0.000 OA
ATOM     28  H   UNL     1      -0.189   8.454  24.263  0.00  0.00    +0.000 HD
ENDBRANCH  26  27
ENDBRANCH  24  26
ENDBRANCH  23  24
ENDBRANCH  22  23
ENDBRANCH   1  22
TORSDOF 6
ENDMDL
MODEL 9
REMARK VINA RESULT:      -8.0      1.543      1.892
REMARK  Name = 
REMARK  6 active torsions:
REMARK  status: ('A' for Active; 'I' for Inactive)
REMARK    1  A    between atoms: C_2  and  O_3
REMARK    2  A    between atoms: C_2  and  C_4
REMARK    3  A    between atoms: C_4  and  C_5
REMARK    4  A    between atoms: C_5  and  C_6
REMARK    5  A    between atoms: C_6  and  N_7
REMARK    6  A    between atoms: N_19  and  C_20
REMARK                            x       y       z     vdW  Elec       q    Type
REMARK                         _______ _______ _______ _____ _____    ______ ____
ROOT
ATOM      1  N   UNL     1       1.781   8.604  19.844  0.00  0.00    +0.000 NA
ATOM      2  C   UNL     1       1.947   8.645  18.372  0.00  0.00    +0.000 C 
ATOM      3  C   UNL     1       3.184   7.822  17.915  0.00  0.00    +0.000 C 
ATOM      4  C   UNL     1       3.201   6.497  18.614  0.00  0.00    +0.000 A 
ATOM      5  C   UNL     1       2.382   6.242  19.696  0.00  0.00    +0.000 A 
ATOM      6  C   UNL     1       2.592   4.902  20.093  0.00  0.00    +0.000 A 
ATOM      7  C   UNL     1       2.048   4.118  21.130  0.00  0.00    +0.000 A 
ATOM      8  C   UNL     1       2.494   2.814  21.300  0.00  0.00    +0.000 A 
ATOM      9  F   UNL     1       1.980   2.068  22.286  0.00  0.00    +0.000 F 
ATOM     10  C   UNL     1       3.475   2.281  20.484  0.00  0.00    +0.000 A 
ATOM     11  C   UNL     1       4.038   3.048  19.458  0.00  0.00    +0.000 A 
ATOM     12  C   UNL     1       3.561   4.361  19.238  0.00  0.00    +0.000 A 
ATOM     13  N   UNL     1       3.924   5.354  18.307  0.00  0.00    +0.000 N 
ATOM     14  C   UNL     1       1.431   7.232  20.285  0.00  0.00    +0.000 C 
ENDROOT
BRANCH  13  15
ATOM     15  C   UNL     1       4.885   5.203  17.255  0.00  0.00    +0.000 A 
ATOM     16  C   UNL     1       6.143   5.820  17.350  0.00  0.00    +0.000 A 
ATOM     17  C   UNL     1       7.052   5.747  16.291  0.00  0.00    +0.000 A 
ATOM     18  C   UNL     1       6.720   5.029  15.151  0.00  0.00    +0.000 A 
ATOM     19  F   UNL     1       7.587   4.969  14.132  0.00  0.00    +0.000 F 
ATOM     20  C   UNL     1       5.498   4.378  15.052  0.00  0.00    +0.000 A 
ATOM     21  C   UNL     1       4.578   4.466  16.101  0.00  0.00    +0.000 A 
ENDBRANCH  13  15
BRANCH   1  22
ATOM     22  C   UNL     1       0.774   9.574  20.299  0.00  0.00    +0.000 C 
BRANCH  22  23
ATOM     23  C   UNL     1       0.607   9.613  21.825  0.00  0.00    +0.000 C 
BRANCH  23  24
ATOM     24  C   UNL     1      -0.578  10.478  22.260  0.00  0.00    +0.000 C 
BRANCH  24  26
ATOM     25  O   UNL     1       0.361  12.683  21.861  0.00  0.00    +0.000 OA
ATOM     26  C   UNL     1      -0.517  11.860  21.658  0.00  0.00    +0.000 C 
BRANCH  26  27
ATOM     27  O   UNL     1      -1.565  12.106  20.835  0.00  0.00    +0.000 OA
ATOM     28  H   UNL     1      -2.080  11.305  20.617  0.00  0.00    +0.000 HD
ENDBRANCH  26  27
ENDBRANCH  24  26
ENDBRANCH  23  24
ENDBRANCH  22  23
ENDBRANCH   1  22
TORSDOF 6
ENDMDL
