MODEL 1
REMARK VINA RESULT:      -7.7      0.000      0.000
REMARK  Name = 
REMARK  1 active torsions:
REMARK  status: ('A' for Active; 'I' for Inactive)
REMARK    1  A    between atoms: C_1  and  C_2
REMARK                            x       y       z     vdW  Elec       q    Type
REMARK                         _______ _______ _______ _____ _____    ______ ____
ROOT
ATOM      1  C   UNL     1       1.894   6.424  20.293  0.00  0.00    +0.000 C 
ATOM      2  C   UNL     1       1.929   4.967  19.951  0.00  0.00    +0.000 A 
ATOM      3  C   UNL     1       1.186   4.094  20.665  0.00  0.00    +0.000 A 
ATOM      4  C   UNL     1       1.218   2.680  20.354  0.00  0.00    +0.000 A 
ATOM      5  C   UNL     1       1.984   2.202  19.360  0.00  0.00    +0.000 A 
ATOM      6  C   UNL     1       2.783   3.092  18.589  0.00  0.00    +0.000 A 
ATOM      7  N   UNL     1       3.606   2.833  17.594  0.00  0.00    +0.000 NA
ATOM      8  C   UNL     1       4.133   4.040  17.246  0.00  0.00    +0.000 A 
ATOM      9  C   UNL     1       3.628   5.063  18.028  0.00  0.00    +0.000 A 
ATOM     10  N   UNL     1       2.737   4.463  18.903  0.00  0.00    +0.000 N 
ATOM     11  C   UNL     1       4.019   6.431  17.859  0.00  0.00    +0.000 C 
ATOM     12  O   UNL     1       3.378   7.430  18.144  0.00  0.00    +0.000 OA
ATOM     13  C   UNL     1       5.367   6.582  17.154  0.00  0.00    +0.000 C 
ATOM     14  O   UNL     1       6.112   7.518  17.409  0.00  0.00    +0.000 OA
ATOM     15  C   UNL     1       5.725   5.559  16.156  0.00  0.00    +0.000 A 
ATOM     16  C   UNL     1       6.664   5.829  15.162  0.00  0.00    +0.000 A 
ATOM     17  C   UNL     1       6.931   4.847  14.215  0.00  0.00    +0.000 A 
ATOM     18  C   UNL     1       6.263   3.635  14.317  0.00  0.00    +0.000 A 
ATOM     19  N   UNL     1       5.365   3.341  15.288  0.00  0.00    +0.000 NA
ATOM     20  C   UNL     1       5.107   4.310  16.197  0.00  0.00    +0.000 A 
ENDROOT
TORSDOF 0
ENDMDL
MODEL 2
REMARK VINA RESULT:      -7.4      1.515      5.353
REMARK  Name = 
REMARK  1 active torsions:
REMARK  status: ('A' for Active; 'I' for Inactive)
REMARK    1  A    between atoms: C_1  and  C_2
REMARK                            x       y       z     vdW  Elec       q    Type
REMARK                         _______ _______ _______ _____ _____    ______ ____
ROOT
ATOM      1  C   UNL     1       7.399   6.496  17.632  0.00  0.00    +0.000 C 
ATOM      2  C   UNL     1       6.871   5.612  16.546  0.00  0.00    +0.000 A 
ATOM      3  C   UNL     1       7.531   5.528  15.370  0.00  0.00    +0.000 A 
ATOM      4  C   UNL     1       7.027   4.687  14.306  0.00  0.00    +0.000 A 
ATOM      5  C   UNL     1       5.898   3.976  14.454  0.00  0.00    +0.000 A 
ATOM      6  C   UNL     1       5.174   4.042  15.677  0.00  0.00    +0.000 A 
ATOM      7  N   UNL     1       4.050   3.447  16.021  0.00  0.00    +0.000 NA
ATOM      8  C   UNL     1       3.788   3.885  17.283  0.00  0.00    +0.000 A 
ATOM      9  C   UNL     1       4.761   4.757  17.734  0.00  0.00    +0.000 A 
ATOM     10  N   UNL     1       5.680   4.863  16.702  0.00  0.00    +0.000 N 
ATOM     11  C   UNL     1       4.721   5.356  19.036  0.00  0.00    +0.000 C 
ATOM     12  O   UNL     1       5.662   5.760  19.700  0.00  0.00    +0.000 OA
ATOM     13  C   UNL     1       3.315   5.378  19.637  0.00  0.00    +0.000 C 
ATOM     14  O   UNL     1       2.963   6.278  20.386  0.00  0.00    +0.000 OA
ATOM     15  C   UNL     1       2.411   4.271  19.280  0.00  0.00    +0.000 A 
ATOM     16  C   UNL     1       1.324   3.947  20.090  0.00  0.00    +0.000 A 
ATOM     17  C   UNL     1       0.530   2.863  19.734  0.00  0.00    +0.000 A 
ATOM     18  C   UNL     1       0.845   2.166  18.576  0.00  0.00    +0.000 A 
ATOM     19  N   UNL     1       1.881   2.478  17.761  0.00  0.00    +0.000 NA
ATOM     20  C   UNL     1       2.653   3.529  18.124  0.00  0.00    +0.000 A 
ENDROOT
TORSDOF 0
ENDMDL
MODEL 3
REMARK VINA RESULT:      -7.3      2.385      5.545
REMARK  Name = 
REMARK  1 active torsions:
REMARK  status: ('A' for Active; 'I' for Inactive)
REMARK    1  A    between atoms: C_1  and  C_2
REMARK                            x       y       z     vdW  Elec       q    Type
REMARK                         _______ _______ _______ _____ _____    ______ ____
ROOT
ATOM      1  C   UNL     1       4.432   4.645  16.932  0.00  0.00    +0.000 C 
ATOM      2  C   UNL     1       3.802   4.134  18.190  0.00  0.00    +0.000 A 
ATOM      3  C   UNL     1       3.893   2.823  18.501  0.00  0.00    +0.000 A 
ATOM      4  C   UNL     1       3.279   2.312  19.708  0.00  0.00    +0.000 A 
ATOM      5  C   UNL     1       2.603   3.119  20.542  0.00  0.00    +0.000 A 
ATOM      6  C   UNL     1       2.483   4.505  20.246  0.00  0.00    +0.000 A 
ATOM      7  N   UNL     1       1.858   5.455  20.911  0.00  0.00    +0.000 NA
ATOM      8  C   UNL     1       2.030   6.582  20.167  0.00  0.00    +0.000 A 
ATOM      9  C   UNL     1       2.776   6.334  19.028  0.00  0.00    +0.000 A 
ATOM     10  N   UNL     1       3.088   4.985  19.070  0.00  0.00    +0.000 N 
ATOM     11  C   UNL     1       3.103   7.358  18.080  0.00  0.00    +0.000 C 
ATOM     12  O   UNL     1       4.057   7.392  17.319  0.00  0.00    +0.000 OA
ATOM     13  C   UNL     1       2.154   8.555  18.145  0.00  0.00    +0.000 C 
ATOM     14  O   UNL     1       1.889   9.206  17.145  0.00  0.00    +0.000 OA
ATOM     15  C   UNL     1       1.581   8.891  19.460  0.00  0.00    +0.000 A 
ATOM     16  C   UNL     1       1.100  10.172  19.723  0.00  0.00    +0.000 A 
ATOM     17  C   UNL     1       0.613  10.452  20.994  0.00  0.00    +0.000 A 
ATOM     18  C   UNL     1       0.611   9.434  21.938  0.00  0.00    +0.000 A 
ATOM     19  N   UNL     1       1.050   8.175  21.698  0.00  0.00    +0.000 NA
ATOM     20  C   UNL     1       1.531   7.919  20.459  0.00  0.00    +0.000 A 
ENDROOT
TORSDOF 0
ENDMDL
MODEL 4
REMARK VINA RESULT:      -7.2      2.890      4.639
REMARK  Name = 
REMARK  1 active torsions:
REMARK  status: ('A' for Active; 'I' for Inactive)
REMARK    1  A    between atoms: C_1  and  C_2
REMARK                            x       y       z     vdW  Elec       q    Type
REMARK                         _______ _______ _______ _____ _____    ______ ____
ROOT
ATOM      1  C   UNL     1       0.496   8.098  21.402  0.00  0.00    +0.000 C 
ATOM      2  C   UNL     1       0.975   8.923  20.249  0.00  0.00    +0.000 A 
ATOM      3  C   UNL     1       0.572  10.208  20.131  0.00  0.00    +0.000 A 
ATOM      4  C   UNL     1       1.017  11.015  19.015  0.00  0.00    +0.000 A 
ATOM      5  C   UNL     1       1.831  10.514  18.072  0.00  0.00    +0.000 A 
ATOM      6  C   UNL     1       2.272   9.164  18.161  0.00  0.00    +0.000 A 
ATOM      7  N   UNL     1       3.048   8.480  17.345  0.00  0.00    +0.000 NA
ATOM      8  C   UNL     1       3.117   7.231  17.886  0.00  0.00    +0.000 A 
ATOM      9  C   UNL     1       2.382   7.139  19.054  0.00  0.00    +0.000 A 
ATOM     10  N   UNL     1       1.833   8.394  19.254  0.00  0.00    +0.000 N 
ATOM     11  C   UNL     1       2.297   5.931  19.820  0.00  0.00    +0.000 C 
ATOM     12  O   UNL     1       2.076   5.820  21.015  0.00  0.00    +0.000 OA
ATOM     13  C   UNL     1       2.616   4.681  18.999  0.00  0.00    +0.000 C 
ATOM     14  O   UNL     1       2.081   3.610  19.244  0.00  0.00    +0.000 OA
ATOM     15  C   UNL     1       3.597   4.823  17.908  0.00  0.00    +0.000 A 
ATOM     16  C   UNL     1       4.285   3.715  17.417  0.00  0.00    +0.000 A 
ATOM     17  C   UNL     1       5.234   3.909  16.421  0.00  0.00    +0.000 A 
ATOM     18  C   UNL     1       5.438   5.198  15.947  0.00  0.00    +0.000 A 
ATOM     19  N   UNL     1       4.764   6.286  16.391  0.00  0.00    +0.000 NA
ATOM     20  C   UNL     1       3.850   6.084  17.368  0.00  0.00    +0.000 A 
ENDROOT
TORSDOF 0
ENDMDL
MODEL 5
REMARK VINA RESULT:      -7.2      2.221      3.442
REMARK  Name = 
REMARK  1 active torsions:
REMARK  status: ('A' for Active; 'I' for Inactive)
REMARK    1  A    between atoms: C_1  and  C_2
REMARK                            x       y       z     vdW  Elec       q    Type
REMARK                         _______ _______ _______ _____ _____    ______ ____
ROOT
ATOM      1  C   UNL     1       1.821   4.993  21.177  0.00  0.00    +0.000 C 
ATOM      2  C   UNL     1       1.919   6.261  20.388  0.00  0.00    +0.000 A 
ATOM      3  C   UNL     1       1.234   7.354  20.789  0.00  0.00    +0.000 A 
ATOM      4  C   UNL     1       1.309   8.584  20.029  0.00  0.00    +0.000 A 
ATOM      5  C   UNL     1       2.052   8.672  18.914  0.00  0.00    +0.000 A 
ATOM      6  C   UNL     1       2.785   7.540  18.460  0.00  0.00    +0.000 A 
ATOM      7  N   UNL     1       3.552   7.407  17.397  0.00  0.00    +0.000 NA
ATOM      8  C   UNL     1       3.976   6.113  17.425  0.00  0.00    +0.000 A 
ATOM      9  C   UNL     1       3.473   5.434  18.519  0.00  0.00    +0.000 A 
ATOM     10  N   UNL     1       2.703   6.353  19.212  0.00  0.00    +0.000 N 
ATOM     11  C   UNL     1       3.775   4.057  18.781  0.00  0.00    +0.000 C 
ATOM     12  O   UNL     1       3.777   3.486  19.859  0.00  0.00    +0.000 OA
ATOM     13  C   UNL     1       4.225   3.299  17.531  0.00  0.00    +0.000 C 
ATOM     14  O   UNL     1       3.981   2.109  17.392  0.00  0.00    +0.000 OA
ATOM     15  C   UNL     1       4.965   4.060  16.510  0.00  0.00    +0.000 A 
ATOM     16  C   UNL     1       5.791   3.411  15.594  0.00  0.00    +0.000 A 
ATOM     17  C   UNL     1       6.505   4.178  14.682  0.00  0.00    +0.000 A 
ATOM     18  C   UNL     1       6.346   5.557  14.713  0.00  0.00    +0.000 A 
ATOM     19  N   UNL     1       5.531   6.208  15.576  0.00  0.00    +0.000 NA
ATOM     20  C   UNL     1       4.849   5.449  16.466  0.00  0.00    +0.000 A 
ENDROOT
TORSDOF 0
ENDMDL
MODEL 6
REMARK VINA RESULT:      -7.1      2.496      5.641
REMARK  Name = 
REMARK  1 active torsions:
REMARK  status: ('A' for Active; 'I' for Inactive)
REMARK    1  A    between atoms: C_1  and  C_2
REMARK                            x       y       z     vdW  Elec       q    Type
REMARK                         _______ _______ _______ _____ _____    ______ ____
ROOT
ATOM      1  C   UNL     1       4.925   7.521  16.305  0.00  0.00    +0.000 C 
ATOM      2  C   UNL     1       5.834   6.874  17.303  0.00  0.00    +0.000 A 
ATOM      3  C   UNL     1       7.155   7.159  17.289  0.00  0.00    +0.000 A 
ATOM      4  C   UNL     1       8.048   6.532  18.239  0.00  0.00    +0.000 A 
ATOM      5  C   UNL     1       7.595   5.655  19.150  0.00  0.00    +0.000 A 
ATOM      6  C   UNL     1       6.211   5.329  19.192  0.00  0.00    +0.000 A 
ATOM      7  N   UNL     1       5.570   4.493  19.983  0.00  0.00    +0.000 NA
ATOM      8  C   UNL     1       4.273   4.539  19.570  0.00  0.00    +0.000 A 
ATOM      9  C   UNL     1       4.103   5.416  18.515  0.00  0.00    +0.000 A 
ATOM     10  N   UNL     1       5.356   5.949  18.263  0.00  0.00    +0.000 N 
ATOM     11  C   UNL     1       2.829   5.651  17.902  0.00  0.00    +0.000 C 
ATOM     12  O   UNL     1       2.460   6.650  17.306  0.00  0.00    +0.000 OA
ATOM     13  C   UNL     1       1.837   4.510  18.134  0.00  0.00    +0.000 C 
ATOM     14  O   UNL     1       0.989   4.230  17.300  0.00  0.00    +0.000 OA
ATOM     15  C   UNL     1       1.947   3.770  19.404  0.00  0.00    +0.000 A 
ATOM     16  C   UNL     1       0.862   3.055  19.909  0.00  0.00    +0.000 A 
ATOM     17  C   UNL     1       1.001   2.414  21.134  0.00  0.00    +0.000 A 
ATOM     18  C   UNL     1       2.222   2.499  21.788  0.00  0.00    +0.000 A 
ATOM     19  N   UNL     1       3.298   3.166  21.304  0.00  0.00    +0.000 NA
ATOM     20  C   UNL     1       3.145   3.795  20.116  0.00  0.00    +0.000 A 
ENDROOT
TORSDOF 0
ENDMDL
MODEL 7
REMARK VINA RESULT:      -7.1      1.587      1.614
REMARK  Name = 
REMARK  1 active torsions:
REMARK  status: ('A' for Active; 'I' for Inactive)
REMARK    1  A    between atoms: C_1  and  C_2
REMARK                            x       y       z     vdW  Elec       q    Type
REMARK                         _______ _______ _______ _____ _____    ______ ____
ROOT
ATOM      1  C   UNL     1       2.950   4.444  21.356  0.00  0.00    +0.000 C 
ATOM      2  C   UNL     1       2.248   3.738  20.239  0.00  0.00    +0.000 A 
ATOM      3  C   UNL     1       1.064   3.129  20.471  0.00  0.00    +0.000 A 
ATOM      4  C   UNL     1       0.378   2.432  19.404  0.00  0.00    +0.000 A 
ATOM      5  C   UNL     1       0.897   2.368  18.166  0.00  0.00    +0.000 A 
ATOM      6  C   UNL     1       2.143   2.994  17.886  0.00  0.00    +0.000 A 
ATOM      7  N   UNL     1       2.827   3.037  16.761  0.00  0.00    +0.000 NA
ATOM      8  C   UNL     1       3.959   3.734  17.060  0.00  0.00    +0.000 A 
ATOM      9  C   UNL     1       3.978   4.135  18.383  0.00  0.00    +0.000 A 
ATOM     10  N   UNL     1       2.795   3.670  18.935  0.00  0.00    +0.000 N 
ATOM     11  C   UNL     1       5.057   4.889  18.948  0.00  0.00    +0.000 C 
ATOM     12  O   UNL     1       5.018   5.647  19.904  0.00  0.00    +0.000 OA
ATOM     13  C   UNL     1       6.359   4.747  18.158  0.00  0.00    +0.000 C 
ATOM     14  O   UNL     1       7.446   4.799  18.715  0.00  0.00    +0.000 OA
ATOM     15  C   UNL     1       6.246   4.551  16.702  0.00  0.00    +0.000 A 
ATOM     16  C   UNL     1       7.308   4.862  15.855  0.00  0.00    +0.000 A 
ATOM     17  C   UNL     1       7.135   4.705  14.485  0.00  0.00    +0.000 A 
ATOM     18  C   UNL     1       5.916   4.226  14.025  0.00  0.00    +0.000 A 
ATOM     19  N   UNL     1       4.878   3.894  14.831  0.00  0.00    +0.000 NA
ATOM     20  C   UNL     1       5.057   4.062  16.162  0.00  0.00    +0.000 A 
ENDROOT
TORSDOF 0
ENDMDL
MODEL 8
REMARK VINA RESULT:      -7.0      2.311      5.978
REMARK  Name = 
REMARK  1 active torsions:
REMARK  status: ('A' for Active; 'I' for Inactive)
REMARK    1  A    between atoms: C_1  and  C_2
REMARK                            x       y       z     vdW  Elec       q    Type
REMARK                         _______ _______ _______ _____ _____    ______ ____
ROOT
ATOM      1  C   UNL     1       4.275   2.561  17.404  0.00  0.00    +0.000 C 
ATOM      2  C   UNL     1       4.629   3.881  16.793  0.00  0.00    +0.000 A 
ATOM      3  C   UNL     1       5.500   3.930  15.761  0.00  0.00    +0.000 A 
ATOM      4  C   UNL     1       5.861   5.200  15.168  0.00  0.00    +0.000 A 
ATOM      5  C   UNL     1       5.349   6.354  15.625  0.00  0.00    +0.000 A 
ATOM      6  C   UNL     1       4.431   6.342  16.712  0.00  0.00    +0.000 A 
ATOM      7  N   UNL     1       3.832   7.347  17.316  0.00  0.00    +0.000 NA
ATOM      8  C   UNL     1       3.092   6.776  18.307  0.00  0.00    +0.000 A 
ATOM      9  C   UNL     1       3.227   5.400  18.317  0.00  0.00    +0.000 A 
ATOM     10  N   UNL     1       4.089   5.098  17.275  0.00  0.00    +0.000 N 
ATOM     11  C   UNL     1       2.546   4.562  19.259  0.00  0.00    +0.000 C 
ATOM     12  O   UNL     1       2.230   3.391  19.125  0.00  0.00    +0.000 OA
ATOM     13  C   UNL     1       2.119   5.312  20.522  0.00  0.00    +0.000 C 
ATOM     14  O   UNL     1       2.069   4.749  21.605  0.00  0.00    +0.000 OA
ATOM     15  C   UNL     1       1.767   6.736  20.374  0.00  0.00    +0.000 A 
ATOM     16  C   UNL     1       0.956   7.372  21.312  0.00  0.00    +0.000 A 
ATOM     17  C   UNL     1       0.613   8.702  21.101  0.00  0.00    +0.000 A 
ATOM     18  C   UNL     1       1.113   9.341  19.975  0.00  0.00    +0.000 A 
ATOM     19  N   UNL     1       1.922   8.751  19.063  0.00  0.00    +0.000 NA
ATOM     20  C   UNL     1       2.239   7.452  19.275  0.00  0.00    +0.000 A 
ENDROOT
TORSDOF 0
ENDMDL
MODEL 9
REMARK VINA RESULT:      -7.0      2.564      4.047
REMARK  Name = 
REMARK  1 active torsions:
REMARK  status: ('A' for Active; 'I' for Inactive)
REMARK    1  A    between atoms: C_1  and  C_2
REMARK                            x       y       z     vdW  Elec       q    Type
REMARK                         _______ _______ _______ _____ _____    ______ ____
ROOT
ATOM      1  C   UNL     1       1.226   7.081  21.175  0.00  0.00    +0.000 C 
ATOM      2  C   UNL     1       1.481   8.061  20.074  0.00  0.00    +0.000 A 
ATOM      3  C   UNL     1       0.887   9.274  20.106  0.00  0.00    +0.000 A 
ATOM      4  C   UNL     1       1.113  10.229  19.042  0.00  0.00    +0.000 A 
ATOM      5  C   UNL     1       1.909   9.937  18.000  0.00  0.00    +0.000 A 
ATOM      6  C   UNL     1       2.549   8.668  17.931  0.00  0.00    +0.000 A 
ATOM      7  N   UNL     1       3.345   8.179  17.002  0.00  0.00    +0.000 NA
ATOM      8  C   UNL     1       3.640   6.916  17.417  0.00  0.00    +0.000 A 
ATOM      9  C   UNL     1       3.027   6.616  18.620  0.00  0.00    +0.000 A 
ATOM     10  N   UNL     1       2.320   7.753  18.975  0.00  0.00    +0.000 N 
ATOM     11  C   UNL     1       3.184   5.351  19.274  0.00  0.00    +0.000 C 
ATOM     12  O   UNL     1       3.083   5.110  20.466  0.00  0.00    +0.000 OA
ATOM     13  C   UNL     1       3.612   4.236  18.318  0.00  0.00    +0.000 C 
ATOM     14  O   UNL     1       3.260   3.079  18.500  0.00  0.00    +0.000 OA
ATOM     15  C   UNL     1       4.466   4.615  17.179  0.00  0.00    +0.000 A 
ATOM     16  C   UNL     1       5.264   3.669  16.539  0.00  0.00    +0.000 A 
ATOM     17  C   UNL     1       6.088   4.087  15.501  0.00  0.00    +0.000 A 
ATOM     18  C   UNL     1       6.061   5.426  15.136  0.00  0.00    +0.000 A 
ATOM     19  N   UNL     1       5.276   6.358  15.727  0.00  0.00    +0.000 NA
ATOM     20  C   UNL     1       4.486   5.940  16.743  0.00  0.00    +0.000 A 
ENDROOT
TORSDOF 0
ENDMDL
