MODEL 1
REMARK VINA RESULT:      -6.9      0.000      0.000
REMARK  Name = 
REMARK  7 active torsions:
REMARK  status: ('A' for Active; 'I' for Inactive)
REMARK    1  A    between atoms: C_1  and  S_2
REMARK    2  A    between atoms: S_2  and  C_5
REMARK    3  A    between atoms: N_11  and  C_12
REMARK    4  A    between atoms: C_12  and  C_13
REMARK    5  A    between atoms: C_13  and  O_14
REMARK    6  A    between atoms: C_13  and  C_15
REMARK    7  A    between atoms: C_15  and  O_16
REMARK                            x       y       z     vdW  Elec       q    Type
REMARK                         _______ _______ _______ _____ _____    ______ ____
ROOT
ATOM      1  C   UNL     1       2.918   6.712  18.734  0.00  0.00    +0.000 A 
ATOM      2  C   UNL     1       2.574   6.630  20.081  0.00  0.00    +0.000 A 
ATOM      3  C   UNL     1       1.643   7.509  20.594  0.00  0.00    +0.000 A 
ATOM      4  C   UNL     1       1.281   8.635  19.858  0.00  0.00    +0.000 A 
ATOM      5  C   UNL     1       0.486   9.665  20.479  0.00  0.00    +0.000 A 
ATOM      6  C   UNL     1       0.596  10.955  20.155  0.00  0.00    +0.000 A 
ATOM      7  N   UNL     1       1.361  11.326  19.039  0.00  0.00    +0.000 N 
ATOM      8  C   UNL     1       1.898  10.319  18.153  0.00  0.00    +0.000 A 
ATOM      9  O   UNL     1       2.479  10.590  17.101  0.00  0.00    +0.000 OA
ATOM     10  C   UNL     1       1.846   8.877  18.609  0.00  0.00    +0.000 A 
ATOM     11  C   UNL     1       2.543   7.834  17.970  0.00  0.00    +0.000 A 
ATOM     12  C   UNL     1      -0.155  11.717  21.185  0.00  0.00    +0.000 A 
ATOM     13  C   UNL     1      -0.328  13.047  21.536  0.00  0.00    +0.000 A 
ATOM     14  C   UNL     1      -1.046  13.374  22.717  0.00  0.00    +0.000 A 
ATOM     15  C   UNL     1      -1.613  12.393  23.546  0.00  0.00    +0.000 A 
ATOM     16  C   UNL     1      -1.483  11.065  23.199  0.00  0.00    +0.000 A 
ATOM     17  C   UNL     1      -0.764  10.789  22.048  0.00  0.00    +0.000 A 
ATOM     18  C   UNL     1      -0.439   9.462  21.602  0.00  0.00    +0.000 C 
ATOM     19  O   UNL     1      -0.869   8.422  22.054  0.00  0.00    +0.000 OA
ENDROOT
BRANCH   1  21
ATOM     20  C   UNL     1       4.966   6.189  16.813  0.00  0.00    +0.000 C 
ATOM     21  S   UNL     1       4.024   5.451  18.136  0.00  0.00    +0.000 S 
ATOM     22  O   UNL     1       3.169   4.439  17.546  0.00  0.00    +0.000 OA
ATOM     23  O   UNL     1       4.944   5.130  19.207  0.00  0.00    +0.000 OA
ENDBRANCH   1  21
BRANCH   7  24
ATOM     24  C   UNL     1       1.555  12.725  18.611  0.00  0.00    +0.000 C 
BRANCH  24  25
ATOM     25  C   UNL     1       2.870  13.429  19.049  0.00  0.00    +0.000 C 
BRANCH  25  26
ATOM     26  O   UNL     1       2.913  13.733  20.450  0.00  0.00    +0.000 OA
ATOM     27  H   UNL     1       3.775  13.433  20.805  0.00  0.00    +0.000 HD
ENDBRANCH  25  26
BRANCH  25  28
ATOM     28  C   UNL     1       3.178  14.719  18.283  0.00  0.00    +0.000 C 
BRANCH  28  29
ATOM     29  O   UNL     1       4.383  14.577  17.524  0.00  0.00    +0.000 OA
ATOM     30  H   UNL     1       4.869  13.833  17.930  0.00  0.00    +0.000 HD
ENDBRANCH  28  29
ENDBRANCH  25  28
ENDBRANCH  24  25
ENDBRANCH   7  24
TORSDOF 6
ENDMDL
MODEL 2
REMARK VINA RESULT:      -6.7      3.435      8.729
REMARK  Name = 
REMARK  7 active torsions:
REMARK  status: ('A' for Active; 'I' for Inactive)
REMARK    1  A    between atoms: C_1  and  S_2
REMARK    2  A    between atoms: S_2  and  C_5
REMARK    3  A    between atoms: N_11  and  C_12
REMARK    4  A    between atoms: C_12  and  C_13
REMARK    5  A    between atoms: C_13  and  O_14
REMARK    6  A    between atoms: C_13  and  C_15
REMARK    7  A    between atoms: C_15  and  O_16
REMARK                            x       y       z     vdW  Elec       q    Type
REMARK                         _______ _______ _______ _____ _____    ______ ____
ROOT
ATOM      1  C   UNL     1       0.901   8.349  21.236  0.00  0.00    +0.000 A 
ATOM      2  C   UNL     1       1.743   9.070  20.394  0.00  0.00    +0.000 A 
ATOM      3  C   UNL     1       2.367   8.422  19.348  0.00  0.00    +0.000 A 
ATOM      4  C   UNL     1       2.389   7.030  19.317  0.00  0.00    +0.000 A 
ATOM      5  C   UNL     1       3.225   6.354  18.356  0.00  0.00    +0.000 A 
ATOM      6  C   UNL     1       3.793   5.171  18.600  0.00  0.00    +0.000 A 
ATOM      7  N   UNL     1       3.423   4.448  19.744  0.00  0.00    +0.000 N 
ATOM      8  C   UNL     1       2.327   4.897  20.571  0.00  0.00    +0.000 A 
ATOM      9  O   UNL     1       1.889   4.245  21.519  0.00  0.00    +0.000 OA
ATOM     10  C   UNL     1       1.783   6.288  20.326  0.00  0.00    +0.000 A 
ATOM     11  C   UNL     1       0.895   6.941  21.204  0.00  0.00    +0.000 A 
ATOM     12  C   UNL     1       4.783   4.945  17.517  0.00  0.00    +0.000 A 
ATOM     13  C   UNL     1       5.790   4.032  17.238  0.00  0.00    +0.000 A 
ATOM     14  C   UNL     1       6.641   4.244  16.122  0.00  0.00    +0.000 A 
ATOM     15  C   UNL     1       6.492   5.345  15.264  0.00  0.00    +0.000 A 
ATOM     16  C   UNL     1       5.477   6.248  15.502  0.00  0.00    +0.000 A 
ATOM     17  C   UNL     1       4.679   6.013  16.608  0.00  0.00    +0.000 A 
ATOM     18  C   UNL     1       3.651   6.907  17.065  0.00  0.00    +0.000 C 
ATOM     19  O   UNL     1       3.230   7.882  16.478  0.00  0.00    +0.000 OA
ENDROOT
BRANCH   1  21
ATOM     20  C   UNL     1      -0.517  10.791  21.669  0.00  0.00    +0.000 C 
ATOM     21  S   UNL     1       0.038   9.298  22.472  0.00  0.00    +0.000 S 
ATOM     22  O   UNL     1       1.051   9.678  23.439  0.00  0.00    +0.000 OA
ATOM     23  O   UNL     1      -1.135   8.545  22.864  0.00  0.00    +0.000 OA
ENDBRANCH   1  21
BRANCH   7  24
ATOM     24  C   UNL     1       4.006   3.142  20.108  0.00  0.00    +0.000 C 
BRANCH  24  25
ATOM     25  C   UNL     1       3.412   1.879  19.424  0.00  0.00    +0.000 C 
BRANCH  25  26
ATOM     26  O   UNL     1       4.289   1.291  18.453  0.00  0.00    +0.000 OA
ATOM     27  H   UNL     1       4.710   2.012  17.940  0.00  0.00    +0.000 HD
ENDBRANCH  25  26
BRANCH  25  28
ATOM     28  C   UNL     1       2.057   2.109  18.747  0.00  0.00    +0.000 C 
BRANCH  28  29
ATOM     29  O   UNL     1       2.184   2.019  17.325  0.00  0.00    +0.000 OA
ATOM     30  H   UNL     1       2.654   1.180  17.151  0.00  0.00    +0.000 HD
ENDBRANCH  28  29
ENDBRANCH  25  28
ENDBRANCH  24  25
ENDBRANCH   7  24
TORSDOF 6
ENDMDL
MODEL 3
REMARK VINA RESULT:      -6.6      1.388      1.878
REMARK  Name = 
REMARK  7 active torsions:
REMARK  status: ('A' for Active; 'I' for Inactive)
REMARK    1  A    between atoms: C_1  and  S_2
REMARK    2  A    between atoms: S_2  and  C_5
REMARK    3  A    between atoms: N_11  and  C_12
REMARK    4  A    between atoms: C_12  and  C_13
REMARK    5  A    between atoms: C_13  and  O_14
REMARK    6  A    between atoms: C_13  and  C_15
REMARK    7  A    between atoms: C_15  and  O_16
REMARK                            x       y       z     vdW  Elec       q    Type
REMARK                         _______ _______ _______ _____ _____    ______ ____
ROOT
ATOM      1  C   UNL     1       3.008   6.831  18.504  0.00  0.00    +0.000 A 
ATOM      2  C   UNL     1       2.652   6.644  19.837  0.00  0.00    +0.000 A 
ATOM      3  C   UNL     1       1.704   7.470  20.405  0.00  0.00    +0.000 A 
ATOM      4  C   UNL     1       1.334   8.643  19.751  0.00  0.00    +0.000 A 
ATOM      5  C   UNL     1       0.519   9.612  20.439  0.00  0.00    +0.000 A 
ATOM      6  C   UNL     1       0.614  10.925  20.213  0.00  0.00    +0.000 A 
ATOM      7  N   UNL     1       1.384  11.388  19.136  0.00  0.00    +0.000 N 
ATOM      8  C   UNL     1       1.944  10.458  18.183  0.00  0.00    +0.000 A 
ATOM      9  O   UNL     1       2.531  10.815  17.161  0.00  0.00    +0.000 OA
ATOM     10  C   UNL     1       1.907   8.986  18.529  0.00  0.00    +0.000 A 
ATOM     11  C   UNL     1       2.626   8.002  17.821  0.00  0.00    +0.000 A 
ATOM     12  C   UNL     1      -0.159  11.597  21.288  0.00  0.00    +0.000 A 
ATOM     13  C   UNL     1      -0.354  12.895  21.737  0.00  0.00    +0.000 A 
ATOM     14  C   UNL     1      -1.087  13.123  22.931  0.00  0.00    +0.000 A 
ATOM     15  C   UNL     1      -1.648  12.076  23.678  0.00  0.00    +0.000 A 
ATOM     16  C   UNL     1      -1.496  10.778  23.233  0.00  0.00    +0.000 A 
ATOM     17  C   UNL     1      -0.762  10.599  22.074  0.00  0.00    +0.000 A 
ATOM     18  C   UNL     1      -0.414   9.314  21.532  0.00  0.00    +0.000 C 
ATOM     19  O   UNL     1      -0.835   8.237  21.901  0.00  0.00    +0.000 OA
ENDROOT
BRANCH   1  21
ATOM     20  C   UNL     1       5.270   5.205  19.135  0.00  0.00    +0.000 C 
ATOM     21  S   UNL     1       4.138   5.634  17.825  0.00  0.00    +0.000 S 
ATOM     22  O   UNL     1       4.896   6.351  16.817  0.00  0.00    +0.000 OA
ATOM     23  O   UNL     1       3.376   4.448  17.495  0.00  0.00    +0.000 OA
ENDBRANCH   1  21
BRANCH   7  24
ATOM     24  C   UNL     1       1.563  12.818  18.816  0.00  0.00    +0.000 C 
BRANCH  24  25
ATOM     25  C   UNL     1       0.361  13.560  18.165  0.00  0.00    +0.000 C 
BRANCH  25  26
ATOM     26  O   UNL     1       0.121  14.857  18.727  0.00  0.00    +0.000 OA
ATOM     27  H   UNL     1       0.456  15.532  18.102  0.00  0.00    +0.000 HD
ENDBRANCH  25  26
BRANCH  25  28
ATOM     28  C   UNL     1      -0.957  12.782  18.210  0.00  0.00    +0.000 C 
BRANCH  28  29
ATOM     29  O   UNL     1      -1.382  12.437  16.888  0.00  0.00    +0.000 OA
ATOM     30  H   UNL     1      -1.244  11.473  16.805  0.00  0.00    +0.000 HD
ENDBRANCH  28  29
ENDBRANCH  25  28
ENDBRANCH  24  25
ENDBRANCH   7  24
TORSDOF 6
ENDMDL
MODEL 4
REMARK VINA RESULT:      -6.6      1.513      1.801
REMARK  Name = 
REMARK  7 active torsions:
REMARK  status: ('A' for Active; 'I' for Inactive)
REMARK    1  A    between atoms: C_1  and  S_2
REMARK    2  A    between atoms: S_2  and  C_5
REMARK    3  A    between atoms: N_11  and  C_12
REMARK    4  A    between atoms: C_12  and  C_13
REMARK    5  A    between atoms: C_13  and  O_14
REMARK    6  A    between atoms: C_13  and  C_15
REMARK    7  A    between atoms: C_15  and  O_16
REMARK                            x       y       z     vdW  Elec       q    Type
REMARK                         _______ _______ _______ _____ _____    ______ ____
ROOT
ATOM      1  C   UNL     1       2.992   6.739  18.594  0.00  0.00    +0.000 A 
ATOM      2  C   UNL     1       2.663   6.598  19.939  0.00  0.00    +0.000 A 
ATOM      3  C   UNL     1       1.708   7.425  20.492  0.00  0.00    +0.000 A 
ATOM      4  C   UNL     1       1.303   8.565  19.800  0.00  0.00    +0.000 A 
ATOM      5  C   UNL     1       0.480   9.544  20.464  0.00  0.00    +0.000 A 
ATOM      6  C   UNL     1       0.544  10.848  20.187  0.00  0.00    +0.000 A 
ATOM      7  N   UNL     1       1.286  11.285  19.079  0.00  0.00    +0.000 N 
ATOM      8  C   UNL     1       1.849  10.329  18.153  0.00  0.00    +0.000 A 
ATOM      9  O   UNL     1       2.411  10.658  17.108  0.00  0.00    +0.000 OA
ATOM     10  C   UNL     1       1.848   8.871  18.556  0.00  0.00    +0.000 A 
ATOM     11  C   UNL     1       2.574   7.876  17.874  0.00  0.00    +0.000 A 
ATOM     12  C   UNL     1      -0.223  11.546  21.250  0.00  0.00    +0.000 A 
ATOM     13  C   UNL     1      -0.437  12.856  21.651  0.00  0.00    +0.000 A 
ATOM     14  C   UNL     1      -1.155  13.116  22.848  0.00  0.00    +0.000 A 
ATOM     15  C   UNL     1      -1.681  12.087  23.645  0.00  0.00    +0.000 A 
ATOM     16  C   UNL     1      -1.511  10.777  23.248  0.00  0.00    +0.000 A 
ATOM     17  C   UNL     1      -0.793  10.567  22.083  0.00  0.00    +0.000 A 
ATOM     18  C   UNL     1      -0.428   9.270  21.586  0.00  0.00    +0.000 C 
ATOM     19  O   UNL     1      -0.820   8.200  22.003  0.00  0.00    +0.000 OA
ENDROOT
BRANCH   1  21
ATOM     20  C   UNL     1       3.177   4.086  17.551  0.00  0.00    +0.000 C 
ATOM     21  S   UNL     1       4.135   5.539  17.941  0.00  0.00    +0.000 S 
ATOM     22  O   UNL     1       5.006   5.198  19.050  0.00  0.00    +0.000 OA
ATOM     23  O   UNL     1       4.663   6.066  16.701  0.00  0.00    +0.000 OA
ENDBRANCH   1  21
BRANCH   7  24
ATOM     24  C   UNL     1       1.430  12.704  18.702  0.00  0.00    +0.000 C 
BRANCH  24  25
ATOM     25  C   UNL     1       0.130  13.551  18.601  0.00  0.00    +0.000 C 
BRANCH  25  26
ATOM     26  O   UNL     1      -0.674  13.227  17.458  0.00  0.00    +0.000 OA
ATOM     27  H   UNL     1      -1.108  14.046  17.142  0.00  0.00    +0.000 HD
ENDBRANCH  25  26
BRANCH  25  28
ATOM     28  C   UNL     1       0.364  15.065  18.590  0.00  0.00    +0.000 C 
BRANCH  28  29
ATOM     29  O   UNL     1      -0.871  15.765  18.765  0.00  0.00    +0.000 OA
ATOM     30  H   UNL     1      -0.641  16.714  18.781  0.00  0.00    +0.000 HD
ENDBRANCH  28  29
ENDBRANCH  25  28
ENDBRANCH  24  25
ENDBRANCH   7  24
TORSDOF 6
ENDMDL
MODEL 5
REMARK VINA RESULT:      -6.6      4.598      7.926
REMARK  Name = 
REMARK  7 active torsions:
REMARK  status: ('A' for Active; 'I' for Inactive)
REMARK    1  A    between atoms: C_1  and  S_2
REMARK    2  A    between atoms: S_2  and  C_5
REMARK    3  A    between atoms: N_11  and  C_12
REMARK    4  A    between atoms: C_12  and  C_13
REMARK    5  A    between atoms: C_13  and  O_14
REMARK    6  A    between atoms: C_13  and  C_15
REMARK    7  A    between atoms: C_15  and  O_16
REMARK                            x       y       z     vdW  Elec       q    Type
REMARK                         _______ _______ _______ _____ _____    ______ ____
ROOT
ATOM      1  C   UNL     1      -1.949  14.857  23.459  0.00  0.00    +0.000 A 
ATOM      2  C   UNL     1      -2.976  15.201  22.584  0.00  0.00    +0.000 A 
ATOM      3  C   UNL     1      -3.348  14.311  21.598  0.00  0.00    +0.000 A 
ATOM      4  C   UNL     1      -2.522  13.230  21.299  0.00  0.00    +0.000 A 
ATOM      5  C   UNL     1      -2.791  12.433  20.129  0.00  0.00    +0.000 A 
ATOM      6  C   UNL     1      -1.826  11.837  19.425  0.00  0.00    +0.000 A 
ATOM      7  N   UNL     1      -0.517  11.806  19.931  0.00  0.00    +0.000 N 
ATOM      8  C   UNL     1      -0.239  12.274  21.269  0.00  0.00    +0.000 A 
ATOM      9  O   UNL     1       0.866  12.167  21.802  0.00  0.00    +0.000 OA
ATOM     10  C   UNL     1      -1.329  13.037  21.990  0.00  0.00    +0.000 A 
ATOM     11  C   UNL     1      -1.116  13.755  23.183  0.00  0.00    +0.000 A 
ATOM     12  C   UNL     1      -2.451  11.363  18.164  0.00  0.00    +0.000 A 
ATOM     13  C   UNL     1      -2.023  10.819  16.963  0.00  0.00    +0.000 A 
ATOM     14  C   UNL     1      -2.954  10.621  15.909  0.00  0.00    +0.000 A 
ATOM     15  C   UNL     1      -4.315  10.941  16.042  0.00  0.00    +0.000 A 
ATOM     16  C   UNL     1      -4.770  11.453  17.239  0.00  0.00    +0.000 A 
ATOM     17  C   UNL     1      -3.827  11.643  18.234  0.00  0.00    +0.000 A 
ATOM     18  C   UNL     1      -4.106  12.267  19.498  0.00  0.00    +0.000 C 
ATOM     19  O   UNL     1      -5.201  12.557  19.934  0.00  0.00    +0.000 OA
ENDROOT
BRANCH   1  21
ATOM     20  C   UNL     1      -0.888  17.447  24.030  0.00  0.00    +0.000 C 
ATOM     21  S   UNL     1      -1.633  16.010  24.779  0.00  0.00    +0.000 S 
ATOM     22  O   UNL     1      -0.620  15.379  25.604  0.00  0.00    +0.000 OA
ATOM     23  O   UNL     1      -2.911  16.410  25.328  0.00  0.00    +0.000 OA
ENDBRANCH   1  21
BRANCH   7  24
ATOM     24  C   UNL     1       0.618  11.187  19.220  0.00  0.00    +0.000 C 
BRANCH  24  25
ATOM     25  C   UNL     1       0.763   9.642  19.315  0.00  0.00    +0.000 C 
BRANCH  25  26
ATOM     26  O   UNL     1       1.206   9.190  20.603  0.00  0.00    +0.000 OA
ATOM     27  H   UNL     1       0.433   9.164  21.204  0.00  0.00    +0.000 HD
ENDBRANCH  25  26
BRANCH  25  28
ATOM     28  C   UNL     1       1.693   9.031  18.263  0.00  0.00    +0.000 C 
BRANCH  28  29
ATOM     29  O   UNL     1       2.089  10.020  17.308  0.00  0.00    +0.000 OA
ATOM     30  H   UNL     1       2.821  10.516  17.723  0.00  0.00    +0.000 HD
ENDBRANCH  28  29
ENDBRANCH  25  28
ENDBRANCH  24  25
ENDBRANCH   7  24
TORSDOF 6
ENDMDL
MODEL 6
REMARK VINA RESULT:      -6.6      7.693     10.094
REMARK  Name = 
REMARK  7 active torsions:
REMARK  status: ('A' for Active; 'I' for Inactive)
REMARK    1  A    between atoms: C_1  and  S_2
REMARK    2  A    between atoms: S_2  and  C_5
REMARK    3  A    between atoms: N_11  and  C_12
REMARK    4  A    between atoms: C_12  and  C_13
REMARK    5  A    between atoms: C_13  and  O_14
REMARK    6  A    between atoms: C_13  and  C_15
REMARK    7  A    between atoms: C_15  and  O_16
REMARK                            x       y       z     vdW  Elec       q    Type
REMARK                         _______ _______ _______ _____ _____    ______ ____
ROOT
ATOM      1  C   UNL     1       7.117  12.707  24.062  0.00  0.00    +0.000 A 
ATOM      2  C   UNL     1       7.579  11.673  23.253  0.00  0.00    +0.000 A 
ATOM      3  C   UNL     1       8.553  11.935  22.311  0.00  0.00    +0.000 A 
ATOM      4  C   UNL     1       8.847  13.255  21.977  0.00  0.00    +0.000 A 
ATOM      5  C   UNL     1       9.695  13.528  20.843  0.00  0.00    +0.000 A 
ATOM      6  C   UNL     1       9.557  14.619  20.087  0.00  0.00    +0.000 A 
ATOM      7  N   UNL     1       8.697  15.646  20.502  0.00  0.00    +0.000 N 
ATOM      8  C   UNL     1       8.083  15.603  21.809  0.00  0.00    +0.000 A 
ATOM      9  O   UNL     1       7.411  16.528  22.267  0.00  0.00    +0.000 OA
ATOM     10  C   UNL     1       8.175  14.309  22.588  0.00  0.00    +0.000 A 
ATOM     11  C   UNL     1       7.423  14.047  23.750  0.00  0.00    +0.000 A 
ATOM     12  C   UNL     1      10.397  14.407  18.880  0.00  0.00    +0.000 A 
ATOM     13  C   UNL     1      10.601  15.039  17.663  0.00  0.00    +0.000 A 
ATOM     14  C   UNL     1      11.421  14.425  16.680  0.00  0.00    +0.000 A 
ATOM     15  C   UNL     1      12.059  13.194  16.899  0.00  0.00    +0.000 A 
ATOM     16  C   UNL     1      11.898  12.562  18.115  0.00  0.00    +0.000 A 
ATOM     17  C   UNL     1      11.080  13.188  19.039  0.00  0.00    +0.000 A 
ATOM     18  C   UNL     1      10.716  12.619  20.308  0.00  0.00    +0.000 C 
ATOM     19  O   UNL     1      11.185  11.620  20.812  0.00  0.00    +0.000 OA
ENDROOT
BRANCH   1  21
ATOM     20  C   UNL     1       6.923  11.938  26.806  0.00  0.00    +0.000 C 
ATOM     21  S   UNL     1       5.962  12.243  25.335  0.00  0.00    +0.000 S 
ATOM     22  O   UNL     1       5.411  10.971  24.906  0.00  0.00    +0.000 OA
ATOM     23  O   UNL     1       5.111  13.386  25.593  0.00  0.00    +0.000 OA
ENDBRANCH   1  21
BRANCH   7  24
ATOM     24  C   UNL     1       8.466  16.881  19.726  0.00  0.00    +0.000 C 
BRANCH  24  25
ATOM     25  C   UNL     1       7.364  16.840  18.630  0.00  0.00    +0.000 C 
BRANCH  25  26
ATOM     26  O   UNL     1       6.310  17.788  18.846  0.00  0.00    +0.000 OA
ATOM     27  H   UNL     1       5.906  18.004  17.980  0.00  0.00    +0.000 HD
ENDBRANCH  25  26
BRANCH  25  28
ATOM     28  C   UNL     1       6.719  15.464  18.437  0.00  0.00    +0.000 C 
BRANCH  28  29
ATOM     29  O   UNL     1       7.193  14.852  17.233  0.00  0.00    +0.000 OA
ATOM     30  H   UNL     1       7.218  15.563  16.564  0.00  0.00    +0.000 HD
ENDBRANCH  28  29
ENDBRANCH  25  28
ENDBRANCH  24  25
ENDBRANCH   7  24
TORSDOF 6
ENDMDL
MODEL 7
REMARK VINA RESULT:      -6.4      4.770      7.995
REMARK  Name = 
REMARK  7 active torsions:
REMARK  status: ('A' for Active; 'I' for Inactive)
REMARK    1  A    between atoms: C_1  and  S_2
REMARK    2  A    between atoms: S_2  and  C_5
REMARK    3  A    between atoms: N_11  and  C_12
REMARK    4  A    between atoms: C_12  and  C_13
REMARK    5  A    between atoms: C_13  and  O_14
REMARK    6  A    between atoms: C_13  and  C_15
REMARK    7  A    between atoms: C_15  and  O_16
REMARK                            x       y       z     vdW  Elec       q    Type
REMARK                         _______ _______ _______ _____ _____    ______ ____
ROOT
ATOM      1  C   UNL     1      -2.731  14.866  23.101  0.00  0.00    +0.000 A 
ATOM      2  C   UNL     1      -3.581  15.184  22.046  0.00  0.00    +0.000 A 
ATOM      3  C   UNL     1      -3.814  14.248  21.060  0.00  0.00    +0.000 A 
ATOM      4  C   UNL     1      -2.988  13.130  20.966  0.00  0.00    +0.000 A 
ATOM      5  C   UNL     1      -3.084  12.271  19.812  0.00  0.00    +0.000 A 
ATOM      6  C   UNL     1      -2.036  11.609  19.317  0.00  0.00    +0.000 A 
ATOM      7  N   UNL     1      -0.834  11.575  20.039  0.00  0.00    +0.000 N 
ATOM      8  C   UNL     1      -0.769  12.114  21.378  0.00  0.00    +0.000 A 
ATOM      9  O   UNL     1       0.225  12.009  22.097  0.00  0.00    +0.000 OA
ATOM     10  C   UNL     1      -1.937  12.946  21.860  0.00  0.00    +0.000 A 
ATOM     11  C   UNL     1      -1.903  13.728  23.032  0.00  0.00    +0.000 A 
ATOM     12  C   UNL     1      -2.456  11.079  17.995  0.00  0.00    +0.000 A 
ATOM     13  C   UNL     1      -1.851  10.452  16.915  0.00  0.00    +0.000 A 
ATOM     14  C   UNL     1      -2.597  10.217  15.731  0.00  0.00    +0.000 A 
ATOM     15  C   UNL     1      -3.948  10.580  15.611  0.00  0.00    +0.000 A 
ATOM     16  C   UNL     1      -4.581  11.174  16.684  0.00  0.00    +0.000 A 
ATOM     17  C   UNL     1      -3.813  11.399  17.813  0.00  0.00    +0.000 A 
ATOM     18  C   UNL     1      -4.279  12.104  18.976  0.00  0.00    +0.000 C 
ATOM     19  O   UNL     1      -5.420  12.448  19.202  0.00  0.00    +0.000 OA
ENDROOT
BRANCH   1  21
ATOM     20  C   UNL     1      -1.591  15.365  25.673  0.00  0.00    +0.000 C 
ATOM     21  S   UNL     1      -2.600  16.087  24.391  0.00  0.00    +0.000 S 
ATOM     22  O   UNL     1      -3.942  16.225  24.925  0.00  0.00    +0.000 OA
ATOM     23  O   UNL     1      -1.882  17.222  23.851  0.00  0.00    +0.000 OA
ENDBRANCH   1  21
BRANCH   7  24
ATOM     24  C   UNL     1       0.382  10.884  19.567  0.00  0.00    +0.000 C 
BRANCH  24  25
ATOM     25  C   UNL     1       1.174  11.548  18.406  0.00  0.00    +0.000 C 
BRANCH  25  26
ATOM     26  O   UNL     1       1.918  10.610  17.616  0.00  0.00    +0.000 OA
ATOM     27  H   UNL     1       2.808  10.509  18.012  0.00  0.00    +0.000 HD
ENDBRANCH  25  26
BRANCH  25  28
ATOM     28  C   UNL     1       2.140  12.650  18.851  0.00  0.00    +0.000 C 
BRANCH  28  29
ATOM     29  O   UNL     1       3.112  12.907  17.833  0.00  0.00    +0.000 OA
ATOM     30  H   UNL     1       3.539  13.751  18.078  0.00  0.00    +0.000 HD
ENDBRANCH  28  29
ENDBRANCH  25  28
ENDBRANCH  24  25
ENDBRANCH   7  24
TORSDOF 6
ENDMDL
MODEL 8
REMARK VINA RESULT:      -6.4      1.179      1.427
REMARK  Name = 
REMARK  7 active torsions:
REMARK  status: ('A' for Active; 'I' for Inactive)
REMARK    1  A    between atoms: C_1  and  S_2
REMARK    2  A    between atoms: S_2  and  C_5
REMARK    3  A    between atoms: N_11  and  C_12
REMARK    4  A    between atoms: C_12  and  C_13
REMARK    5  A    between atoms: C_13  and  O_14
REMARK    6  A    between atoms: C_13  and  C_15
REMARK    7  A    between atoms: C_15  and  O_16
REMARK                            x       y       z     vdW  Elec       q    Type
REMARK                         _______ _______ _______ _____ _____    ______ ____
ROOT
ATOM      1  C   UNL     1       2.156   7.125  19.683  0.00  0.00    +0.000 A 
ATOM      2  C   UNL     1       1.884   7.349  21.029  0.00  0.00    +0.000 A 
ATOM      3  C   UNL     1       1.122   8.441  21.392  0.00  0.00    +0.000 A 
ATOM      4  C   UNL     1       0.887   9.453  20.464  0.00  0.00    +0.000 A 
ATOM      5  C   UNL     1       0.288  10.690  20.899  0.00  0.00    +0.000 A 
ATOM      6  C   UNL     1       0.565  11.864  20.329  0.00  0.00    +0.000 A 
ATOM      7  N   UNL     1       1.310  11.899  19.140  0.00  0.00    +0.000 N 
ATOM      8  C   UNL     1       1.641  10.675  18.449  0.00  0.00    +0.000 A 
ATOM      9  O   UNL     1       2.193  10.653  17.348  0.00  0.00    +0.000 OA
ATOM     10  C   UNL     1       1.406   9.369  19.175  0.00  0.00    +0.000 A 
ATOM     11  C   UNL     1       1.905   8.130  18.728  0.00  0.00    +0.000 A 
ATOM     12  C   UNL     1      -0.005  12.911  21.215  0.00  0.00    +0.000 A 
ATOM     13  C   UNL     1       0.039  14.293  21.310  0.00  0.00    +0.000 A 
ATOM     14  C   UNL     1      -0.553  14.941  22.426  0.00  0.00    +0.000 A 
ATOM     15  C   UNL     1      -1.208  14.230  23.444  0.00  0.00    +0.000 A 
ATOM     16  C   UNL     1      -1.294  12.856  23.355  0.00  0.00    +0.000 A 
ATOM     17  C   UNL     1      -0.691  12.264  22.259  0.00  0.00    +0.000 A 
ATOM     18  C   UNL     1      -0.589  10.844  22.066  0.00  0.00    +0.000 C 
ATOM     19  O   UNL     1      -1.140   9.985  22.722  0.00  0.00    +0.000 OA
ENDROOT
BRANCH   1  21
ATOM     20  C   UNL     1       2.141   4.837  17.972  0.00  0.00    +0.000 C 
ATOM     21  S   UNL     1       3.030   5.620  19.305  0.00  0.00    +0.000 S 
ATOM     22  O   UNL     1       2.874   4.782  20.479  0.00  0.00    +0.000 OA
ATOM     23  O   UNL     1       4.339   5.986  18.808  0.00  0.00    +0.000 OA
ENDBRANCH   1  21
BRANCH   7  24
ATOM     24  C   UNL     1       1.680  13.148  18.446  0.00  0.00    +0.000 C 
BRANCH  24  25
ATOM     25  C   UNL     1       3.044  13.794  18.819  0.00  0.00    +0.000 C 
BRANCH  25  26
ATOM     26  O   UNL     1       3.289  13.832  20.232  0.00  0.00    +0.000 OA
ATOM     27  H   UNL     1       3.028  14.714  20.568  0.00  0.00    +0.000 HD
ENDBRANCH  25  26
BRANCH  25  28
ATOM     28  C   UNL     1       3.238  15.213  18.276  0.00  0.00    +0.000 C 
BRANCH  28  29
ATOM     29  O   UNL     1       3.708  15.173  16.925  0.00  0.00    +0.000 OA
ATOM     30  H   UNL     1       3.164  15.820  16.433  0.00  0.00    +0.000 HD
ENDBRANCH  28  29
ENDBRANCH  25  28
ENDBRANCH  24  25
ENDBRANCH   7  24
TORSDOF 6
ENDMDL
MODEL 9
REMARK VINA RESULT:      -6.4      4.842      8.105
REMARK  Name = 
REMARK  7 active torsions:
REMARK  status: ('A' for Active; 'I' for Inactive)
REMARK    1  A    between atoms: C_1  and  S_2
REMARK    2  A    between atoms: S_2  and  C_5
REMARK    3  A    between atoms: N_11  and  C_12
REMARK    4  A    between atoms: C_12  and  C_13
REMARK    5  A    between atoms: C_13  and  O_14
REMARK    6  A    between atoms: C_13  and  C_15
REMARK    7  A    between atoms: C_15  and  O_16
REMARK                            x       y       z     vdW  Elec       q    Type
REMARK                         _______ _______ _______ _____ _____    ______ ____
ROOT
ATOM      1  C   UNL     1      -2.836  14.675  23.332  0.00  0.00    +0.000 A 
ATOM      2  C   UNL     1      -3.594  15.102  22.245  0.00  0.00    +0.000 A 
ATOM      3  C   UNL     1      -3.848  14.224  21.213  0.00  0.00    +0.000 A 
ATOM      4  C   UNL     1      -3.117  13.041  21.120  0.00  0.00    +0.000 A 
ATOM      5  C   UNL     1      -3.220  12.234  19.931  0.00  0.00    +0.000 A 
ATOM      6  C   UNL     1      -2.205  11.500  19.469  0.00  0.00    +0.000 A 
ATOM      7  N   UNL     1      -1.055  11.335  20.254  0.00  0.00    +0.000 N 
ATOM      8  C   UNL     1      -1.022  11.821  21.615  0.00  0.00    +0.000 A 
ATOM      9  O   UNL     1      -0.084  11.605  22.383  0.00  0.00    +0.000 OA
ATOM     10  C   UNL     1      -2.140  12.736  22.064  0.00  0.00    +0.000 A 
ATOM     11  C   UNL     1      -2.107  13.472  23.264  0.00  0.00    +0.000 A 
ATOM     12  C   UNL     1      -2.591  11.053  18.106  0.00  0.00    +0.000 A 
ATOM     13  C   UNL     1      -1.981  10.412  17.038  0.00  0.00    +0.000 A 
ATOM     14  C   UNL     1      -2.675  10.283  15.806  0.00  0.00    +0.000 A 
ATOM     15  C   UNL     1      -3.980  10.768  15.627  0.00  0.00    +0.000 A 
ATOM     16  C   UNL     1      -4.621  11.379  16.685  0.00  0.00    +0.000 A 
ATOM     17  C   UNL     1      -3.903  11.497  17.863  0.00  0.00    +0.000 A 
ATOM     18  C   UNL     1      -4.374  12.200  19.024  0.00  0.00    +0.000 C 
ATOM     19  O   UNL     1      -5.493  12.636  19.201  0.00  0.00    +0.000 OA
ENDROOT
BRANCH   1  21
ATOM     20  C   UNL     1      -1.916  17.297  23.993  0.00  0.00    +0.000 C 
ATOM     21  S   UNL     1      -2.677  15.835  24.674  0.00  0.00    +0.000 S 
ATOM     22  O   UNL     1      -1.722  15.236  25.587  0.00  0.00    +0.000 OA
ATOM     23  O   UNL     1      -4.012  16.193  25.106  0.00  0.00    +0.000 OA
ENDBRANCH   1  21
BRANCH   7  24
ATOM     24  C   UNL     1       0.123  10.557  19.824  0.00  0.00    +0.000 C 
BRANCH  24  25
ATOM     25  C   UNL     1       1.259  11.327  19.092  0.00  0.00    +0.000 C 
BRANCH  25  26
ATOM     26  O   UNL     1       0.775  12.276  18.131  0.00  0.00    +0.000 OA
ATOM     27  H   UNL     1      -0.060  12.659  18.468  0.00  0.00    +0.000 HD
ENDBRANCH  25  26
BRANCH  25  28
ATOM     28  C   UNL     1       2.276  10.426  18.385  0.00  0.00    +0.000 C 
BRANCH  28  29
ATOM     29  O   UNL     1       1.649   9.695  17.326  0.00  0.00    +0.000 OA
ATOM     30  H   UNL     1       2.267   8.974  17.097  0.00  0.00    +0.000 HD
ENDBRANCH  28  29
ENDBRANCH  25  28
ENDBRANCH  24  25
ENDBRANCH   7  24
TORSDOF 6
ENDMDL
