MODEL 1
REMARK VINA RESULT:      -8.2      0.000      0.000
REMARK  Name = 
REMARK  8 active torsions:
REMARK  status: ('A' for Active; 'I' for Inactive)
REMARK    1  A    between atoms: C_1  and  C_2
REMARK    2  A    between atoms: C_6  and  C_7
REMARK    3  A    between atoms: C_9  and  C_11
REMARK    4  A    between atoms: C_11  and  N_12
REMARK    5  A    between atoms: C_15  and  C_16
REMARK    6  A    between atoms: C_15  and  C_17
REMARK    7  A    between atoms: C_22  and  C_23
REMARK    8  A    between atoms: N_25  and  C_26
REMARK                            x       y       z     vdW  Elec       q    Type
REMARK                         _______ _______ _______ _____ _____    ______ ____
ROOT
ATOM      1  N   UNL     1       3.565   6.319  17.941  0.00  0.00    +0.000 N 
ATOM      2  C   UNL     1       2.931   5.081  17.895  0.00  0.00    +0.000 C 
ATOM      3  O   UNL     1       1.698   4.970  17.885  0.00  0.00    +0.000 OA
ATOM      4  C   UNL     1       3.854   3.847  18.001  0.00  0.00    +0.000 C 
ATOM      5  C   UNL     1       3.886   3.399  19.471  0.00  0.00    +0.000 C 
ATOM      6  C   UNL     1       3.237   2.711  17.163  0.00  0.00    +0.000 C 
ATOM      7  O   UNL     1       5.203   3.983  17.563  0.00  0.00    +0.000 OA
ATOM      8  C   UNL     1       5.737   5.236  17.666  0.00  0.00    +0.000 A 
ATOM      9  C   UNL     1       7.134   5.303  17.536  0.00  0.00    +0.000 A 
ATOM     10  C   UNL     1       7.807   6.530  17.598  0.00  0.00    +0.000 A 
ATOM     11  C   UNL     1       7.080   7.707  17.788  0.00  0.00    +0.000 A 
ATOM     12  C   UNL     1       5.672   7.631  17.882  0.00  0.00    +0.000 A 
ATOM     13  C   UNL     1       4.985   6.403  17.839  0.00  0.00    +0.000 A 
ENDROOT
BRANCH  11  14
ATOM     14  C   UNL     1       7.797   9.032  17.880  0.00  0.00    +0.000 C 
ATOM     15  O   UNL     1       7.514   9.969  17.148  0.00  0.00    +0.000 OA
ATOM     16  N   UNL     1       8.797   9.062  18.827  0.00  0.00    +0.000 N 
ATOM     17  H   UNL     1       9.106   8.156  19.166  0.00  0.00    +0.000 HD
BRANCH  16  18
ATOM     18  C   UNL     1       9.675  10.152  19.210  0.00  0.00    +0.000 C 
ATOM     19  C   UNL     1       9.188  11.082  20.325  0.00  0.00    +0.000 C 
ATOM     20  C   UNL     1      10.405  11.835  20.885  0.00  0.00    +0.000 C 
ATOM     21  C   UNL     1      11.186  12.585  19.798  0.00  0.00    +0.000 C 
ATOM     22  C   UNL     1      11.462  11.744  18.548  0.00  0.00    +0.000 C 
ATOM     23  C   UNL     1      10.218  10.996  18.054  0.00  0.00    +0.000 C 
ENDBRANCH  16  18
ENDBRANCH  11  14
BRANCH   1  24
ATOM     24  C   UNL     1       2.700   7.506  17.887  0.00  0.00    +0.000 C 
BRANCH  24  33
ATOM     25  C   UNL     1      -0.463   9.846  17.759  0.00  0.00    +0.000 C 
ATOM     26  C   UNL     1       1.010   9.899  18.185  0.00  0.00    +0.000 C 
ATOM     27  C   UNL     1       1.470  11.334  18.484  0.00  0.00    +0.000 C 
ATOM     28  C   UNL     1       0.867  11.876  19.774  0.00  0.00    +0.000 C 
ATOM     29  C   UNL     1       1.140  10.927  20.936  0.00  0.00    +0.000 C 
ATOM     30  C   UNL     1       0.690   9.485  20.630  0.00  0.00    +0.000 C 
ATOM     31  C   UNL     1       0.895   8.632  21.885  0.00  0.00    +0.000 C 
ATOM     32  N   UNL     1       1.287   9.018  19.346  0.00  0.00    +0.000 N 
ATOM     33  C   UNL     1       2.114   7.882  19.268  0.00  0.00    +0.000 C 
ATOM     34  O   UNL     1       2.370   7.173  20.243  0.00  0.00    +0.000 OA
ENDBRANCH  24  33
ENDBRANCH   1  24
TORSDOF 4
ENDMDL
MODEL 2
REMARK VINA RESULT:      -7.9      4.206      8.591
REMARK  Name = 
REMARK  8 active torsions:
REMARK  status: ('A' for Active; 'I' for Inactive)
REMARK    1  A    between atoms: C_1  and  C_2
REMARK    2  A    between atoms: C_6  and  C_7
REMARK    3  A    between atoms: C_9  and  C_11
REMARK    4  A    between atoms: C_11  and  N_12
REMARK    5  A    between atoms: C_15  and  C_16
REMARK    6  A    between atoms: C_15  and  C_17
REMARK    7  A    between atoms: C_22  and  C_23
REMARK    8  A    between atoms: N_25  and  C_26
REMARK                            x       y       z     vdW  Elec       q    Type
REMARK                         _______ _______ _______ _____ _____    ______ ____
ROOT
ATOM      1  N   UNL     1      -0.775  13.023  19.869  0.00  0.00    +0.000 N 
ATOM      2  C   UNL     1      -1.585  13.651  20.811  0.00  0.00    +0.000 C 
ATOM      3  O   UNL     1      -2.051  14.783  20.631  0.00  0.00    +0.000 OA
ATOM      4  C   UNL     1      -1.753  12.911  22.157  0.00  0.00    +0.000 C 
ATOM      5  C   UNL     1      -0.730  13.486  23.149  0.00  0.00    +0.000 C 
ATOM      6  C   UNL     1      -3.166  13.205  22.695  0.00  0.00    +0.000 C 
ATOM      7  O   UNL     1      -1.607  11.493  22.161  0.00  0.00    +0.000 OA
ATOM      8  C   UNL     1      -0.776  10.979  21.207  0.00  0.00    +0.000 A 
ATOM      9  C   UNL     1      -0.392   9.642  21.407  0.00  0.00    +0.000 A 
ATOM     10  C   UNL     1       0.439   8.985  20.490  0.00  0.00    +0.000 A 
ATOM     11  C   UNL     1       0.890   9.666  19.357  0.00  0.00    +0.000 A 
ATOM     12  C   UNL     1       0.469  10.998  19.149  0.00  0.00    +0.000 A 
ATOM     13  C   UNL     1      -0.353  11.676  20.071  0.00  0.00    +0.000 A 
ENDROOT
BRANCH  11  14
ATOM     14  C   UNL     1       1.805   8.975  18.376  0.00  0.00    +0.000 C 
ATOM     15  O   UNL     1       2.257   9.555  17.400  0.00  0.00    +0.000 OA
ATOM     16  N   UNL     1       2.045   7.651  18.671  0.00  0.00    +0.000 N 
ATOM     17  H   UNL     1       1.406   7.228  19.337  0.00  0.00    +0.000 HD
BRANCH  16  18
ATOM     18  C   UNL     1       2.878   6.685  17.978  0.00  0.00    +0.000 C 
ATOM     19  C   UNL     1       2.897   5.257  18.529  0.00  0.00    +0.000 C 
ATOM     20  C   UNL     1       3.428   4.326  17.427  0.00  0.00    +0.000 C 
ATOM     21  C   UNL     1       4.797   4.765  16.894  0.00  0.00    +0.000 C 
ATOM     22  C   UNL     1       4.884   6.262  16.577  0.00  0.00    +0.000 C 
ATOM     23  C   UNL     1       4.314   7.136  17.700  0.00  0.00    +0.000 C 
ENDBRANCH  16  18
ENDBRANCH  11  14
BRANCH   1  24
ATOM     24  C   UNL     1      -0.567  13.733  18.600  0.00  0.00    +0.000 C 
BRANCH  24  33
ATOM     25  C   UNL     1      -0.512  17.450  19.897  0.00  0.00    +0.000 C 
ATOM     26  C   UNL     1      -0.379  16.672  18.581  0.00  0.00    +0.000 C 
ATOM     27  C   UNL     1      -0.419  17.600  17.358  0.00  0.00    +0.000 C 
ATOM     28  C   UNL     1       0.847  18.438  17.228  0.00  0.00    +0.000 C 
ATOM     29  C   UNL     1       2.084  17.547  17.237  0.00  0.00    +0.000 C 
ATOM     30  C   UNL     1       2.118  16.606  18.457  0.00  0.00    +0.000 C 
ATOM     31  C   UNL     1       3.441  15.836  18.445  0.00  0.00    +0.000 C 
ATOM     32  N   UNL     1       0.845  15.834  18.550  0.00  0.00    +0.000 N 
ATOM     33  C   UNL     1       0.813  14.427  18.523  0.00  0.00    +0.000 C 
ATOM     34  O   UNL     1       1.831  13.736  18.462  0.00  0.00    +0.000 OA
ENDBRANCH  24  33
ENDBRANCH   1  24
TORSDOF 4
ENDMDL
MODEL 3
REMARK VINA RESULT:      -7.7      6.869     11.792
REMARK  Name = 
REMARK  8 active torsions:
REMARK  status: ('A' for Active; 'I' for Inactive)
REMARK    1  A    between atoms: C_1  and  C_2
REMARK    2  A    between atoms: C_6  and  C_7
REMARK    3  A    between atoms: C_9  and  C_11
REMARK    4  A    between atoms: C_11  and  N_12
REMARK    5  A    between atoms: C_15  and  C_16
REMARK    6  A    between atoms: C_15  and  C_17
REMARK    7  A    between atoms: C_22  and  C_23
REMARK    8  A    between atoms: N_25  and  C_26
REMARK                            x       y       z     vdW  Elec       q    Type
REMARK                         _______ _______ _______ _____ _____    ______ ____
ROOT
ATOM      1  N   UNL     1      -1.795  14.408  22.859  0.00  0.00    +0.000 N 
ATOM      2  C   UNL     1      -1.646  15.169  24.015  0.00  0.00    +0.000 C 
ATOM      3  O   UNL     1      -0.536  15.488  24.457  0.00  0.00    +0.000 OA
ATOM      4  C   UNL     1      -2.945  15.472  24.795  0.00  0.00    +0.000 C 
ATOM      5  C   UNL     1      -3.090  14.422  25.908  0.00  0.00    +0.000 C 
ATOM      6  C   UNL     1      -2.800  16.857  25.453  0.00  0.00    +0.000 C 
ATOM      7  O   UNL     1      -4.170  15.498  24.066  0.00  0.00    +0.000 OA
ATOM      8  C   UNL     1      -4.218  14.703  22.957  0.00  0.00    +0.000 A 
ATOM      9  C   UNL     1      -5.503  14.490  22.430  0.00  0.00    +0.000 A 
ATOM     10  C   UNL     1      -5.692  13.713  21.280  0.00  0.00    +0.000 A 
ATOM     11  C   UNL     1      -4.587  13.144  20.643  0.00  0.00    +0.000 A 
ATOM     12  C   UNL     1      -3.297  13.394  21.162  0.00  0.00    +0.000 A 
ATOM     13  C   UNL     1      -3.094  14.159  22.327  0.00  0.00    +0.000 A 
ENDROOT
BRANCH  11  14
ATOM     14  C   UNL     1      -4.782  12.285  19.417  0.00  0.00    +0.000 C 
ATOM     15  O   UNL     1      -5.871  11.809  19.132  0.00  0.00    +0.000 OA
ATOM     16  N   UNL     1      -3.630  12.075  18.692  0.00  0.00    +0.000 N 
ATOM     17  H   UNL     1      -2.763  12.292  19.175  0.00  0.00    +0.000 HD
BRANCH  16  18
ATOM     18  C   UNL     1      -3.434  11.330  17.461  0.00  0.00    +0.000 C 
ATOM     19  C   UNL     1      -4.513  11.470  16.383  0.00  0.00    +0.000 C 
ATOM     20  C   UNL     1      -3.912  11.014  15.044  0.00  0.00    +0.000 C 
ATOM     21  C   UNL     1      -3.332   9.596  15.111  0.00  0.00    +0.000 C 
ATOM     22  C   UNL     1      -2.447   9.349  16.337  0.00  0.00    +0.000 C 
ATOM     23  C   UNL     1      -3.088   9.850  17.637  0.00  0.00    +0.000 C 
ENDBRANCH  16  18
ENDBRANCH  11  14
BRANCH   1  24
ATOM     24  C   UNL     1      -0.566  14.072  22.128  0.00  0.00    +0.000 C 
BRANCH  24  33
ATOM     25  C   UNL     1       2.243  12.921  19.622  0.00  0.00    +0.000 C 
ATOM     26  C   UNL     1       0.730  12.773  19.824  0.00  0.00    +0.000 C 
ATOM     27  C   UNL     1       0.044  12.148  18.600  0.00  0.00    +0.000 C 
ATOM     28  C   UNL     1       0.374  10.668  18.447  0.00  0.00    +0.000 C 
ATOM     29  C   UNL     1       0.061   9.912  19.733  0.00  0.00    +0.000 C 
ATOM     30  C   UNL     1       0.738  10.547  20.964  0.00  0.00    +0.000 C 
ATOM     31  C   UNL     1       0.466   9.663  22.184  0.00  0.00    +0.000 C 
ATOM     32  N   UNL     1       0.404  11.998  21.047  0.00  0.00    +0.000 N 
ATOM     33  C   UNL     1      -0.245  12.559  22.163  0.00  0.00    +0.000 C 
ATOM     34  O   UNL     1      -0.545  11.904  23.162  0.00  0.00    +0.000 OA
ENDBRANCH  24  33
ENDBRANCH   1  24
TORSDOF 4
ENDMDL
MODEL 4
REMARK VINA RESULT:      -7.7      4.894      9.001
REMARK  Name = 
REMARK  8 active torsions:
REMARK  status: ('A' for Active; 'I' for Inactive)
REMARK    1  A    between atoms: C_1  and  C_2
REMARK    2  A    between atoms: C_6  and  C_7
REMARK    3  A    between atoms: C_9  and  C_11
REMARK    4  A    between atoms: C_11  and  N_12
REMARK    5  A    between atoms: C_15  and  C_16
REMARK    6  A    between atoms: C_15  and  C_17
REMARK    7  A    between atoms: C_22  and  C_23
REMARK    8  A    between atoms: N_25  and  C_26
REMARK                            x       y       z     vdW  Elec       q    Type
REMARK                         _______ _______ _______ _____ _____    ______ ____
ROOT
ATOM      1  N   UNL     1      -1.963  12.658  21.114  0.00  0.00    +0.000 N 
ATOM      2  C   UNL     1      -2.680  13.387  22.058  0.00  0.00    +0.000 C 
ATOM      3  O   UNL     1      -3.475  14.280  21.737  0.00  0.00    +0.000 OA
ATOM      4  C   UNL     1      -2.319  13.118  23.536  0.00  0.00    +0.000 C 
ATOM      5  C   UNL     1      -1.302  14.181  23.981  0.00  0.00    +0.000 C 
ATOM      6  C   UNL     1      -3.596  13.288  24.381  0.00  0.00    +0.000 C 
ATOM      7  O   UNL     1      -1.781  11.841  23.869  0.00  0.00    +0.000 OA
ATOM      8  C   UNL     1      -1.080  11.216  22.878  0.00  0.00    +0.000 A 
ATOM      9  C   UNL     1      -0.298  10.125  23.295  0.00  0.00    +0.000 A 
ATOM     10  C   UNL     1       0.451   9.381  22.376  0.00  0.00    +0.000 A 
ATOM     11  C   UNL     1       0.420   9.722  21.022  0.00  0.00    +0.000 A 
ATOM     12  C   UNL     1      -0.397  10.798  20.609  0.00  0.00    +0.000 A 
ATOM     13  C   UNL     1      -1.143  11.566  21.525  0.00  0.00    +0.000 A 
ENDROOT
BRANCH  11  14
ATOM     14  C   UNL     1       1.243   8.941  20.027  0.00  0.00    +0.000 C 
ATOM     15  O   UNL     1       1.526   9.397  18.929  0.00  0.00    +0.000 OA
ATOM     16  N   UNL     1       1.606   7.686  20.463  0.00  0.00    +0.000 N 
ATOM     17  H   UNL     1       1.088   7.334  21.262  0.00  0.00    +0.000 HD
BRANCH  16  18
ATOM     18  C   UNL     1       2.404   6.671  19.799  0.00  0.00    +0.000 C 
ATOM     19  C   UNL     1       2.386   6.662  18.268  0.00  0.00    +0.000 C 
ATOM     20  C   UNL     1       3.608   5.867  17.781  0.00  0.00    +0.000 C 
ATOM     21  C   UNL     1       3.667   4.453  18.374  0.00  0.00    +0.000 C 
ATOM     22  C   UNL     1       3.425   4.409  19.886  0.00  0.00    +0.000 C 
ATOM     23  C   UNL     1       2.210   5.243  20.313  0.00  0.00    +0.000 C 
ENDBRANCH  16  18
ENDBRANCH  11  14
BRANCH   1  24
ATOM     24  C   UNL     1      -2.261  12.933  19.702  0.00  0.00    +0.000 C 
BRANCH  24  33
ATOM     25  C   UNL     1      -1.680   9.647  17.612  0.00  0.00    +0.000 C 
ATOM     26  C   UNL     1      -2.182  11.083  17.412  0.00  0.00    +0.000 C 
ATOM     27  C   UNL     1      -2.342  11.434  15.925  0.00  0.00    +0.000 C 
ATOM     28  C   UNL     1      -3.523  10.714  15.285  0.00  0.00    +0.000 C 
ATOM     29  C   UNL     1      -4.801  10.968  16.080  0.00  0.00    +0.000 C 
ATOM     30  C   UNL     1      -4.636  10.628  17.574  0.00  0.00    +0.000 C 
ATOM     31  C   UNL     1      -5.990  10.801  18.267  0.00  0.00    +0.000 C 
ATOM     32  N   UNL     1      -3.451  11.337  18.138  0.00  0.00    +0.000 N 
ATOM     33  C   UNL     1      -3.553  12.235  19.217  0.00  0.00    +0.000 C 
ATOM     34  O   UNL     1      -4.615  12.468  19.795  0.00  0.00    +0.000 OA
ENDBRANCH  24  33
ENDBRANCH   1  24
TORSDOF 4
ENDMDL
MODEL 5
REMARK VINA RESULT:      -7.5      4.605      8.933
REMARK  Name = 
REMARK  8 active torsions:
REMARK  status: ('A' for Active; 'I' for Inactive)
REMARK    1  A    between atoms: C_1  and  C_2
REMARK    2  A    between atoms: C_6  and  C_7
REMARK    3  A    between atoms: C_9  and  C_11
REMARK    4  A    between atoms: C_11  and  N_12
REMARK    5  A    between atoms: C_15  and  C_16
REMARK    6  A    between atoms: C_15  and  C_17
REMARK    7  A    between atoms: C_22  and  C_23
REMARK    8  A    between atoms: N_25  and  C_26
REMARK                            x       y       z     vdW  Elec       q    Type
REMARK                         _______ _______ _______ _____ _____    ______ ____
ROOT
ATOM      1  N   UNL     1      -1.068  13.193  19.955  0.00  0.00    +0.000 N 
ATOM      2  C   UNL     1      -1.090  14.529  20.342  0.00  0.00    +0.000 C 
ATOM      3  O   UNL     1      -2.048  15.025  20.950  0.00  0.00    +0.000 OA
ATOM      4  C   UNL     1       0.086  15.397  19.841  0.00  0.00    +0.000 C 
ATOM      5  C   UNL     1      -0.360  16.110  18.554  0.00  0.00    +0.000 C 
ATOM      6  C   UNL     1       0.384  16.467  20.908  0.00  0.00    +0.000 C 
ATOM      7  O   UNL     1       1.324  14.746  19.565  0.00  0.00    +0.000 OA
ATOM      8  C   UNL     1       1.235  13.440  19.177  0.00  0.00    +0.000 A 
ATOM      9  C   UNL     1       2.404  12.903  18.612  0.00  0.00    +0.000 A 
ATOM     10  C   UNL     1       2.456  11.568  18.194  0.00  0.00    +0.000 A 
ATOM     11  C   UNL     1       1.331  10.753  18.343  0.00  0.00    +0.000 A 
ATOM     12  C   UNL     1       0.173  11.294  18.944  0.00  0.00    +0.000 A 
ATOM     13  C   UNL     1       0.101  12.640  19.354  0.00  0.00    +0.000 A 
ENDROOT
BRANCH  11  14
ATOM     14  C   UNL     1       1.369   9.320  17.873  0.00  0.00    +0.000 C 
ATOM     15  O   UNL     1       0.393   8.782  17.371  0.00  0.00    +0.000 OA
ATOM     16  N   UNL     1       2.575   8.691  18.091  0.00  0.00    +0.000 N 
ATOM     17  H   UNL     1       3.197   9.152  18.748  0.00  0.00    +0.000 HD
BRANCH  16  18
ATOM     18  C   UNL     1       2.987   7.339  17.759  0.00  0.00    +0.000 C 
ATOM     19  C   UNL     1       2.515   6.218  18.689  0.00  0.00    +0.000 C 
ATOM     20  C   UNL     1       2.642   4.885  17.934  0.00  0.00    +0.000 C 
ATOM     21  C   UNL     1       4.059   4.644  17.399  0.00  0.00    +0.000 C 
ATOM     22  C   UNL     1       4.661   5.856  16.681  0.00  0.00    +0.000 C 
ATOM     23  C   UNL     1       4.479   7.158  17.470  0.00  0.00    +0.000 C 
ENDBRANCH  16  18
ENDBRANCH  11  14
BRANCH   1  24
ATOM     24  C   UNL     1      -2.201  12.363  20.384  0.00  0.00    +0.000 C 
BRANCH  24  33
ATOM     25  C   UNL     1      -5.385  14.638  20.821  0.00  0.00    +0.000 C 
ATOM     26  C   UNL     1      -4.992  13.156  20.890  0.00  0.00    +0.000 C 
ATOM     27  C   UNL     1      -6.113  12.292  21.488  0.00  0.00    +0.000 C 
ATOM     28  C   UNL     1      -7.296  12.144  20.539  0.00  0.00    +0.000 C 
ATOM     29  C   UNL     1      -6.833  11.631  19.179  0.00  0.00    +0.000 C 
ATOM     30  C   UNL     1      -5.699  12.490  18.586  0.00  0.00    +0.000 C 
ATOM     31  C   UNL     1      -5.379  11.975  17.180  0.00  0.00    +0.000 C 
ATOM     32  N   UNL     1      -4.583  12.624  19.567  0.00  0.00    +0.000 N 
ATOM     33  C   UNL     1      -3.273  12.198  19.281  0.00  0.00    +0.000 C 
ATOM     34  O   UNL     1      -2.946  11.725  18.191  0.00  0.00    +0.000 OA
ENDBRANCH  24  33
ENDBRANCH   1  24
TORSDOF 4
ENDMDL
MODEL 6
REMARK VINA RESULT:      -7.4      4.585      9.036
REMARK  Name = 
REMARK  8 active torsions:
REMARK  status: ('A' for Active; 'I' for Inactive)
REMARK    1  A    between atoms: C_1  and  C_2
REMARK    2  A    between atoms: C_6  and  C_7
REMARK    3  A    between atoms: C_9  and  C_11
REMARK    4  A    between atoms: C_11  and  N_12
REMARK    5  A    between atoms: C_15  and  C_16
REMARK    6  A    between atoms: C_15  and  C_17
REMARK    7  A    between atoms: C_22  and  C_23
REMARK    8  A    between atoms: N_25  and  C_26
REMARK                            x       y       z     vdW  Elec       q    Type
REMARK                         _______ _______ _______ _____ _____    ______ ____
ROOT
ATOM      1  N   UNL     1      -1.157  13.105  20.583  0.00  0.00    +0.000 N 
ATOM      2  C   UNL     1      -1.960  13.871  21.423  0.00  0.00    +0.000 C 
ATOM      3  O   UNL     1      -2.443  14.954  21.068  0.00  0.00    +0.000 OA
ATOM      4  C   UNL     1      -2.096  13.362  22.875  0.00  0.00    +0.000 C 
ATOM      5  C   UNL     1      -1.063  14.103  23.740  0.00  0.00    +0.000 C 
ATOM      6  C   UNL     1      -3.503  13.726  23.383  0.00  0.00    +0.000 C 
ATOM      7  O   UNL     1      -1.931  11.966  23.110  0.00  0.00    +0.000 OA
ATOM      8  C   UNL     1      -1.109  11.310  22.239  0.00  0.00    +0.000 A 
ATOM      9  C   UNL     1      -0.704  10.028  22.648  0.00  0.00    +0.000 A 
ATOM     10  C   UNL     1       0.120   9.238  21.838  0.00  0.00    +0.000 A 
ATOM     11  C   UNL     1       0.544   9.727  20.599  0.00  0.00    +0.000 A 
ATOM     12  C   UNL     1       0.101  11.002  20.183  0.00  0.00    +0.000 A 
ATOM     13  C   UNL     1      -0.714  11.814  20.995  0.00  0.00    +0.000 A 
ENDROOT
BRANCH  11  14
ATOM     14  C   UNL     1       1.451   8.893  19.729  0.00  0.00    +0.000 C 
ATOM     15  O   UNL     1       1.922   9.329  18.688  0.00  0.00    +0.000 OA
ATOM     16  N   UNL     1       1.662   7.616  20.201  0.00  0.00    +0.000 N 
ATOM     17  H   UNL     1       1.009   7.299  20.911  0.00  0.00    +0.000 HD
BRANCH  16  18
ATOM     18  C   UNL     1       2.480   6.550  19.651  0.00  0.00    +0.000 C 
ATOM     19  C   UNL     1       2.539   6.433  18.125  0.00  0.00    +0.000 C 
ATOM     20  C   UNL     1       3.775   5.595  17.759  0.00  0.00    +0.000 C 
ATOM     21  C   UNL     1       3.787   4.227  18.452  0.00  0.00    +0.000 C 
ATOM     22  C   UNL     1       3.469   4.292  19.949  0.00  0.00    +0.000 C 
ATOM     23  C   UNL     1       2.244   5.163  20.254  0.00  0.00    +0.000 C 
ENDBRANCH  16  18
ENDBRANCH  11  14
BRANCH   1  24
ATOM     24  C   UNL     1      -0.979  13.598  19.210  0.00  0.00    +0.000 C 
BRANCH  24  33
ATOM     25  C   UNL     1      -0.420  17.313  20.387  0.00  0.00    +0.000 C 
ATOM     26  C   UNL     1      -0.518  16.504  19.087  0.00  0.00    +0.000 C 
ATOM     27  C   UNL     1      -0.614  17.411  17.851  0.00  0.00    +0.000 C 
ATOM     28  C   UNL     1       0.701  18.120  17.551  0.00  0.00    +0.000 C 
ATOM     29  C   UNL     1       1.841  17.113  17.441  0.00  0.00    +0.000 C 
ATOM     30  C   UNL     1       1.929  16.194  18.675  0.00  0.00    +0.000 C 
ATOM     31  C   UNL     1       3.163  15.298  18.532  0.00  0.00    +0.000 C 
ATOM     32  N   UNL     1       0.609  15.551  18.937  0.00  0.00    +0.000 N 
ATOM     33  C   UNL     1       0.441  14.153  18.954  0.00  0.00    +0.000 C 
ATOM     34  O   UNL     1       1.375  13.365  18.795  0.00  0.00    +0.000 OA
ENDBRANCH  24  33
ENDBRANCH   1  24
TORSDOF 4
ENDMDL
MODEL 7
REMARK VINA RESULT:      -7.4      4.483      9.068
REMARK  Name = 
REMARK  8 active torsions:
REMARK  status: ('A' for Active; 'I' for Inactive)
REMARK    1  A    between atoms: C_1  and  C_2
REMARK    2  A    between atoms: C_6  and  C_7
REMARK    3  A    between atoms: C_9  and  C_11
REMARK    4  A    between atoms: C_11  and  N_12
REMARK    5  A    between atoms: C_15  and  C_16
REMARK    6  A    between atoms: C_15  and  C_17
REMARK    7  A    between atoms: C_22  and  C_23
REMARK    8  A    between atoms: N_25  and  C_26
REMARK                            x       y       z     vdW  Elec       q    Type
REMARK                         _______ _______ _______ _____ _____    ______ ____
ROOT
ATOM      1  N   UNL     1      -1.297  13.033  20.777  0.00  0.00    +0.000 N 
ATOM      2  C   UNL     1      -2.074  13.882  21.560  0.00  0.00    +0.000 C 
ATOM      3  O   UNL     1      -2.558  14.931  21.116  0.00  0.00    +0.000 OA
ATOM      4  C   UNL     1      -2.178  13.513  23.056  0.00  0.00    +0.000 C 
ATOM      5  C   UNL     1      -1.120  14.323  23.824  0.00  0.00    +0.000 C 
ATOM      6  C   UNL     1      -3.570  13.936  23.561  0.00  0.00    +0.000 C 
ATOM      7  O   UNL     1      -2.016  12.144  23.418  0.00  0.00    +0.000 OA
ATOM      8  C   UNL     1      -1.221  11.401  22.593  0.00  0.00    +0.000 A 
ATOM      9  C   UNL     1      -0.814  10.160  23.112  0.00  0.00    +0.000 A 
ATOM     10  C   UNL     1      -0.015   9.290  22.360  0.00  0.00    +0.000 A 
ATOM     11  C   UNL     1       0.382   9.656  21.072  0.00  0.00    +0.000 A 
ATOM     12  C   UNL     1      -0.063  10.891  20.548  0.00  0.00    +0.000 A 
ATOM     13  C   UNL     1      -0.852  11.783  21.299  0.00  0.00    +0.000 A 
ENDROOT
BRANCH  11  14
ATOM     14  C   UNL     1       1.262   8.736  20.263  0.00  0.00    +0.000 C 
ATOM     15  O   UNL     1       1.779   9.098  19.216  0.00  0.00    +0.000 OA
ATOM     16  N   UNL     1       1.393   7.474  20.797  0.00  0.00    +0.000 N 
ATOM     17  H   UNL     1       0.709   7.225  21.505  0.00  0.00    +0.000 HD
BRANCH  16  18
ATOM     18  C   UNL     1       2.166   6.342  20.317  0.00  0.00    +0.000 C 
ATOM     19  C   UNL     1       2.563   6.346  18.838  0.00  0.00    +0.000 C 
ATOM     20  C   UNL     1       3.725   5.358  18.653  0.00  0.00    +0.000 C 
ATOM     21  C   UNL     1       3.390   3.951  19.165  0.00  0.00    +0.000 C 
ATOM     22  C   UNL     1       2.743   3.938  20.553  0.00  0.00    +0.000 C 
ATOM     23  C   UNL     1       1.610   4.964  20.685  0.00  0.00    +0.000 C 
ENDBRANCH  16  18
ENDBRANCH  11  14
BRANCH   1  24
ATOM     24  C   UNL     1      -1.149  13.393  19.361  0.00  0.00    +0.000 C 
BRANCH  24  33
ATOM     25  C   UNL     1       2.551  12.735  18.185  0.00  0.00    +0.000 C 
ATOM     26  C   UNL     1       1.792  13.243  19.419  0.00  0.00    +0.000 C 
ATOM     27  C   UNL     1       2.707  13.367  20.646  0.00  0.00    +0.000 C 
ATOM     28  C   UNL     1       3.688  14.526  20.519  0.00  0.00    +0.000 C 
ATOM     29  C   UNL     1       2.949  15.825  20.216  0.00  0.00    +0.000 C 
ATOM     30  C   UNL     1       2.020  15.697  18.993  0.00  0.00    +0.000 C 
ATOM     31  C   UNL     1       1.411  17.069  18.694  0.00  0.00    +0.000 C 
ATOM     32  N   UNL     1       1.104  14.531  19.159  0.00  0.00    +0.000 N 
ATOM     33  C   UNL     1      -0.297  14.668  19.153  0.00  0.00    +0.000 C 
ATOM     34  O   UNL     1      -0.864  15.746  18.971  0.00  0.00    +0.000 OA
ENDBRANCH  24  33
ENDBRANCH   1  24
TORSDOF 4
ENDMDL
MODEL 8
REMARK VINA RESULT:      -7.4      5.322      7.980
REMARK  Name = 
REMARK  8 active torsions:
REMARK  status: ('A' for Active; 'I' for Inactive)
REMARK    1  A    between atoms: C_1  and  C_2
REMARK    2  A    between atoms: C_6  and  C_7
REMARK    3  A    between atoms: C_9  and  C_11
REMARK    4  A    between atoms: C_11  and  N_12
REMARK    5  A    between atoms: C_15  and  C_16
REMARK    6  A    between atoms: C_15  and  C_17
REMARK    7  A    between atoms: C_22  and  C_23
REMARK    8  A    between atoms: N_25  and  C_26
REMARK                            x       y       z     vdW  Elec       q    Type
REMARK                         _______ _______ _______ _____ _____    ______ ____
ROOT
ATOM      1  N   UNL     1       2.580  14.948  19.209  0.00  0.00    +0.000 N 
ATOM      2  C   UNL     1       1.501  15.759  18.870  0.00  0.00    +0.000 C 
ATOM      3  O   UNL     1       0.379  15.298  18.626  0.00  0.00    +0.000 OA
ATOM      4  C   UNL     1       1.820  17.258  18.674  0.00  0.00    +0.000 C 
ATOM      5  C   UNL     1       2.047  17.507  17.174  0.00  0.00    +0.000 C 
ATOM      6  C   UNL     1       0.591  18.073  19.118  0.00  0.00    +0.000 C 
ATOM      7  O   UNL     1       2.937  17.799  19.373  0.00  0.00    +0.000 OA
ATOM      8  C   UNL     1       3.950  16.924  19.643  0.00  0.00    +0.000 A 
ATOM      9  C   UNL     1       5.161  17.514  20.042  0.00  0.00    +0.000 A 
ATOM     10  C   UNL     1       6.273  16.729  20.371  0.00  0.00    +0.000 A 
ATOM     11  C   UNL     1       6.179  15.337  20.307  0.00  0.00    +0.000 A 
ATOM     12  C   UNL     1       4.945  14.754  19.938  0.00  0.00    +0.000 A 
ATOM     13  C   UNL     1       3.825  15.531  19.589  0.00  0.00    +0.000 A 
ENDROOT
BRANCH  11  14
ATOM     14  C   UNL     1       7.378  14.483  20.637  0.00  0.00    +0.000 C 
ATOM     15  O   UNL     1       7.581  14.069  21.768  0.00  0.00    +0.000 OA
ATOM     16  N   UNL     1       8.212  14.252  19.565  0.00  0.00    +0.000 N 
ATOM     17  H   UNL     1       8.079  14.865  18.767  0.00  0.00    +0.000 HD
BRANCH  16  18
ATOM     18  C   UNL     1       9.433  13.470  19.495  0.00  0.00    +0.000 C 
ATOM     19  C   UNL     1       9.321  11.973  19.797  0.00  0.00    +0.000 C 
ATOM     20  C   UNL     1      10.566  11.276  19.225  0.00  0.00    +0.000 C 
ATOM     21  C   UNL     1      11.874  11.881  19.749  0.00  0.00    +0.000 C 
ATOM     22  C   UNL     1      11.907  13.412  19.699  0.00  0.00    +0.000 C 
ATOM     23  C   UNL     1      10.628  14.048  20.257  0.00  0.00    +0.000 C 
ENDBRANCH  16  18
ENDBRANCH  11  14
BRANCH   1  24
ATOM     24  C   UNL     1       2.306  13.512  19.355  0.00  0.00    +0.000 C 
BRANCH  24  33
ATOM     25  C   UNL     1       0.159  10.269  18.746  0.00  0.00    +0.000 C 
ATOM     26  C   UNL     1      -0.012  11.793  18.767  0.00  0.00    +0.000 C 
ATOM     27  C   UNL     1      -1.374  12.226  18.205  0.00  0.00    +0.000 C 
ATOM     28  C   UNL     1      -2.523  11.880  19.144  0.00  0.00    +0.000 C 
ATOM     29  C   UNL     1      -2.266  12.446  20.537  0.00  0.00    +0.000 C 
ATOM     30  C   UNL     1      -0.894  12.022  21.096  0.00  0.00    +0.000 C 
ATOM     31  C   UNL     1      -0.770  12.536  22.533  0.00  0.00    +0.000 C 
ATOM     32  N   UNL     1       0.187  12.359  20.123  0.00  0.00    +0.000 N 
ATOM     33  C   UNL     1       1.256  13.213  20.451  0.00  0.00    +0.000 C 
ATOM     34  O   UNL     1       1.399  13.708  21.570  0.00  0.00    +0.000 OA
ENDBRANCH  24  33
ENDBRANCH   1  24
TORSDOF 4
ENDMDL
MODEL 9
REMARK VINA RESULT:      -7.4      5.267      7.691
REMARK  Name = 
REMARK  8 active torsions:
REMARK  status: ('A' for Active; 'I' for Inactive)
REMARK    1  A    between atoms: C_1  and  C_2
REMARK    2  A    between atoms: C_6  and  C_7
REMARK    3  A    between atoms: C_9  and  C_11
REMARK    4  A    between atoms: C_11  and  N_12
REMARK    5  A    between atoms: C_15  and  C_16
REMARK    6  A    between atoms: C_15  and  C_17
REMARK    7  A    between atoms: C_22  and  C_23
REMARK    8  A    between atoms: N_25  and  C_26
REMARK                            x       y       z     vdW  Elec       q    Type
REMARK                         _______ _______ _______ _____ _____    ______ ____
ROOT
ATOM      1  N   UNL     1       2.447  14.866  18.455  0.00  0.00    +0.000 N 
ATOM      2  C   UNL     1       1.438  15.806  18.640  0.00  0.00    +0.000 C 
ATOM      3  O   UNL     1       0.247  15.486  18.738  0.00  0.00    +0.000 OA
ATOM      4  C   UNL     1       1.875  17.287  18.571  0.00  0.00    +0.000 C 
ATOM      5  C   UNL     1       1.624  17.794  17.142  0.00  0.00    +0.000 C 
ATOM      6  C   UNL     1       0.985  18.096  19.534  0.00  0.00    +0.000 C 
ATOM      7  O   UNL     1       3.224  17.600  18.908  0.00  0.00    +0.000 OA
ATOM      8  C   UNL     1       4.139  16.615  18.673  0.00  0.00    +0.000 A 
ATOM      9  C   UNL     1       5.482  17.026  18.706  0.00  0.00    +0.000 A 
ATOM     10  C   UNL     1       6.523  16.111  18.504  0.00  0.00    +0.000 A 
ATOM     11  C   UNL     1       6.224  14.767  18.270  0.00  0.00    +0.000 A 
ATOM     12  C   UNL     1       4.871  14.359  18.273  0.00  0.00    +0.000 A 
ATOM     13  C   UNL     1       3.815  15.271  18.458  0.00  0.00    +0.000 A 
ENDROOT
BRANCH  11  14
ATOM     14  C   UNL     1       7.337  13.777  18.027  0.00  0.00    +0.000 C 
ATOM     15  O   UNL     1       7.294  12.975  17.106  0.00  0.00    +0.000 OA
ATOM     16  N   UNL     1       8.361  13.850  18.945  0.00  0.00    +0.000 N 
ATOM     17  H   UNL     1       8.149  14.358  19.798  0.00  0.00    +0.000 HD
BRANCH  16  18
ATOM     18  C   UNL     1       9.592  13.083  19.021  0.00  0.00    +0.000 C 
ATOM     19  C   UNL     1      10.313  13.053  20.372  0.00  0.00    +0.000 C 
ATOM     20  C   UNL     1      11.279  11.858  20.371  0.00  0.00    +0.000 C 
ATOM     21  C   UNL     1      12.254  11.889  19.187  0.00  0.00    +0.000 C 
ATOM     22  C   UNL     1      11.582  12.180  17.842  0.00  0.00    +0.000 C 
ATOM     23  C   UNL     1      10.610  13.364  17.913  0.00  0.00    +0.000 C 
ENDBRANCH  16  18
ENDBRANCH  11  14
BRANCH   1  24
ATOM     24  C   UNL     1       2.044  13.454  18.471  0.00  0.00    +0.000 C 
BRANCH  24  33
ATOM     25  C   UNL     1      -0.159  10.206  18.156  0.00  0.00    +0.000 C 
ATOM     26  C   UNL     1      -0.333  11.723  18.308  0.00  0.00    +0.000 C 
ATOM     27  C   UNL     1      -1.790  12.158  18.091  0.00  0.00    +0.000 C 
ATOM     28  C   UNL     1      -2.697  11.734  19.240  0.00  0.00    +0.000 C 
ATOM     29  C   UNL     1      -2.140  12.222  20.573  0.00  0.00    +0.000 C 
ATOM     30  C   UNL     1      -0.673  11.796  20.784  0.00  0.00    +0.000 C 
ATOM     31  C   UNL     1      -0.236  12.227  22.187  0.00  0.00    +0.000 C 
ATOM     32  N   UNL     1       0.160  12.212  19.619  0.00  0.00    +0.000 N 
ATOM     33  C   UNL     1       1.269  13.068  19.753  0.00  0.00    +0.000 C 
ATOM     34  O   UNL     1       1.654  13.500  20.840  0.00  0.00    +0.000 OA
ENDBRANCH  24  33
ENDBRANCH   1  24
TORSDOF 4
ENDMDL
