MODEL 1
REMARK VINA RESULT:      -7.2      0.000      0.000
REMARK  Name = 
REMARK  11 active torsions:
REMARK  status: ('A' for Active; 'I' for Inactive)
REMARK    1  A    between atoms: C_1  and  C_2
REMARK    2  A    between atoms: C_7  and  C_8
REMARK    3  A    between atoms: C_12  and  C_13
REMARK    4  A    between atoms: C_13  and  C_14
REMARK    5  A    between atoms: C_13  and  C_15
REMARK    6  A    between atoms: C_20  and  C_21
REMARK    7  A    between atoms: C_21  and  C_22
REMARK    8  A    between atoms: C_22  and  C_23
REMARK    9  A    between atoms: C_27  and  C_28
REMARK   10  A    between atoms: C_28  and  C_29
REMARK   11  A    between atoms: C_28  and  C_30
REMARK                            x       y       z     vdW  Elec       q    Type
REMARK                         _______ _______ _______ _____ _____    ______ ____
ROOT
ATOM      1  C   UNL     1       0.344   9.659  21.661  0.00  0.00    +0.000 C 
ATOM      2  C   UNL     1      -0.292  10.139  20.394  0.00  0.00    +0.000 C 
ATOM      3  C   UNL     1      -0.555  11.422  20.119  0.00  0.00    +0.000 C 
ATOM      4  N   UNL     1      -0.356  12.460  21.010  0.00  0.00    +0.000 N 
ATOM      5  C   UNL     1      -1.370  12.706  21.924  0.00  0.00    +0.000 C 
ATOM      6  O   UNL     1      -2.212  11.861  22.251  0.00  0.00    +0.000 OA
ATOM      7  C   UNL     1      -1.389  14.118  22.556  0.00  0.00    +0.000 C 
ATOM      8  C   UNL     1      -1.317  15.237  21.513  0.00  0.00    +0.000 C 
ATOM      9  N   UNL     1      -2.600  14.137  23.399  0.00  0.00    +0.000 N 
ATOM     10  C   UNL     1      -3.740  14.752  22.918  0.00  0.00    +0.000 C 
ATOM     11  O   UNL     1      -3.827  15.980  22.887  0.00  0.00    +0.000 OA
ATOM     12  C   UNL     1      -4.864  13.820  22.383  0.00  0.00    +0.000 C 
ATOM     13  N   UNL     1      -5.790  14.701  21.653  0.00  0.00    +0.000 N 
ATOM     14  C   UNL     1      -6.717  14.333  20.723  0.00  0.00    +0.000 C 
ATOM     15  O   UNL     1      -7.910  14.512  20.961  0.00  0.00    +0.000 OA
ATOM     16  C   UNL     1      -6.236  13.919  19.350  0.00  0.00    +0.000 C 
ATOM     17  C   UNL     1      -5.864  12.450  19.159  0.00  0.00    +0.000 C 
ATOM     18  O   UNL     1      -5.197  12.367  17.870  0.00  0.00    +0.000 OA
ATOM     19  C   UNL     1      -4.469  11.239  17.648  0.00  0.00    +0.000 C 
ATOM     20  O   UNL     1      -4.820  10.107  17.962  0.00  0.00    +0.000 OA
ATOM     21  C   UNL     1      -3.027  11.564  17.230  0.00  0.00    +0.000 C 
ATOM     22  N   UNL     1      -2.247  11.195  18.417  0.00  0.00    +0.000 N 
ATOM     23  C   UNL     1      -1.137  11.884  18.815  0.00  0.00    +0.000 C 
ATOM     24  O   UNL     1      -0.720  12.902  18.281  0.00  0.00    +0.000 OA
ATOM     25  H   UNL     1      -0.074  13.305  20.517  0.00  0.00    +0.000 HD
ATOM     26  H   UNL     1      -2.768  13.204  23.765  0.00  0.00    +0.000 HD
ATOM     27  H   UNL     1      -6.177  15.395  22.283  0.00  0.00    +0.000 HD
ATOM     28  H   UNL     1      -2.613  10.451  19.007  0.00  0.00    +0.000 HD
ENDROOT
BRANCH  12  29
ATOM     29  C   UNL     1      -5.531  13.010  23.527  0.00  0.00    +0.000 C 
ATOM     30  C   UNL     1      -6.645  13.778  24.241  0.00  0.00    +0.000 C 
ATOM     31  C   UNL     1      -4.523  12.497  24.563  0.00  0.00    +0.000 C 
ENDBRANCH  12  29
BRANCH  21  32
ATOM     32  C   UNL     1      -2.562  10.731  16.016  0.00  0.00    +0.000 C 
ATOM     33  C   UNL     1      -2.084   9.341  16.435  0.00  0.00    +0.000 C 
ATOM     34  C   UNL     1      -3.670  10.580  14.963  0.00  0.00    +0.000 C 
ENDBRANCH  21  32
BRANCH  17  35
ATOM     35  C   UNL     1      -7.049  11.487  19.333  0.00  0.00    +0.000 C 
BRANCH  35  36
ATOM     36  C   UNL     1      -7.208  10.823  20.699  0.00  0.00    +0.000 C 
ATOM     37  C   UNL     1      -7.627   9.367  20.516  0.00  0.00    +0.000 C 
ENDBRANCH  35  36
ENDBRANCH  17  35
TORSDOF 4
ENDMDL
MODEL 2
REMARK VINA RESULT:      -7.0      1.951      5.430
REMARK  Name = 
REMARK  11 active torsions:
REMARK  status: ('A' for Active; 'I' for Inactive)
REMARK    1  A    between atoms: C_1  and  C_2
REMARK    2  A    between atoms: C_7  and  C_8
REMARK    3  A    between atoms: C_12  and  C_13
REMARK    4  A    between atoms: C_13  and  C_14
REMARK    5  A    between atoms: C_13  and  C_15
REMARK    6  A    between atoms: C_20  and  C_21
REMARK    7  A    between atoms: C_21  and  C_22
REMARK    8  A    between atoms: C_22  and  C_23
REMARK    9  A    between atoms: C_27  and  C_28
REMARK   10  A    between atoms: C_28  and  C_29
REMARK   11  A    between atoms: C_28  and  C_30
REMARK                            x       y       z     vdW  Elec       q    Type
REMARK                         _______ _______ _______ _____ _____    ______ ____
ROOT
ATOM      1  C   UNL     1      -7.475  14.506  16.503  0.00  0.00    +0.000 C 
ATOM      2  C   UNL     1      -6.525  13.381  16.768  0.00  0.00    +0.000 C 
ATOM      3  C   UNL     1      -6.545  12.617  17.867  0.00  0.00    +0.000 C 
ATOM      4  N   UNL     1      -7.392  12.828  18.939  0.00  0.00    +0.000 N 
ATOM      5  C   UNL     1      -6.982  13.752  19.890  0.00  0.00    +0.000 C 
ATOM      6  O   UNL     1      -6.159  14.646  19.661  0.00  0.00    +0.000 OA
ATOM      7  C   UNL     1      -7.637  13.626  21.286  0.00  0.00    +0.000 C 
ATOM      8  C   UNL     1      -7.571  12.204  21.849  0.00  0.00    +0.000 C 
ATOM      9  N   UNL     1      -6.963  14.648  22.111  0.00  0.00    +0.000 N 
ATOM     10  C   UNL     1      -5.954  14.256  22.969  0.00  0.00    +0.000 C 
ATOM     11  O   UNL     1      -6.215  13.676  24.024  0.00  0.00    +0.000 OA
ATOM     12  C   UNL     1      -4.496  14.539  22.509  0.00  0.00    +0.000 C 
ATOM     13  N   UNL     1      -3.639  13.755  23.414  0.00  0.00    +0.000 N 
ATOM     14  C   UNL     1      -2.342  13.389  23.209  0.00  0.00    +0.000 C 
ATOM     15  O   UNL     1      -1.470  13.822  23.961  0.00  0.00    +0.000 OA
ATOM     16  C   UNL     1      -2.050  12.300  22.201  0.00  0.00    +0.000 C 
ATOM     17  C   UNL     1      -1.870  12.730  20.747  0.00  0.00    +0.000 C 
ATOM     18  O   UNL     1      -1.868  11.506  19.962  0.00  0.00    +0.000 OA
ATOM     19  C   UNL     1      -2.078  11.655  18.626  0.00  0.00    +0.000 C 
ATOM     20  O   UNL     1      -1.589  12.545  17.936  0.00  0.00    +0.000 OA
ATOM     21  C   UNL     1      -3.229  10.770  18.126  0.00  0.00    +0.000 C 
ATOM     22  N   UNL     1      -4.301  11.737  17.864  0.00  0.00    +0.000 N 
ATOM     23  C   UNL     1      -5.620  11.455  18.082  0.00  0.00    +0.000 C 
ATOM     24  O   UNL     1      -6.039  10.418  18.575  0.00  0.00    +0.000 OA
ATOM     25  H   UNL     1      -7.663  11.942  19.361  0.00  0.00    +0.000 HD
ATOM     26  H   UNL     1      -6.710  15.438  21.524  0.00  0.00    +0.000 HD
ATOM     27  H   UNL     1      -3.773  14.063  24.371  0.00  0.00    +0.000 HD
ATOM     28  H   UNL     1      -4.028  12.679  17.596  0.00  0.00    +0.000 HD
ENDROOT
BRANCH  12  29
ATOM     29  C   UNL     1      -4.183  16.059  22.500  0.00  0.00    +0.000 C 
ATOM     30  C   UNL     1      -3.471  16.523  21.227  0.00  0.00    +0.000 C 
ATOM     31  C   UNL     1      -3.378  16.512  23.724  0.00  0.00    +0.000 C 
ENDBRANCH  12  29
BRANCH  21  32
ATOM     32  C   UNL     1      -2.873  10.014  16.828  0.00  0.00    +0.000 C 
ATOM     33  C   UNL     1      -3.196  10.844  15.585  0.00  0.00    +0.000 C 
ATOM     34  C   UNL     1      -1.392   9.610  16.786  0.00  0.00    +0.000 C 
ENDBRANCH  21  32
BRANCH  17  35
ATOM     35  C   UNL     1      -0.654  13.641  20.520  0.00  0.00    +0.000 C 
BRANCH  35  36
ATOM     36  C   UNL     1      -0.937  15.088  20.124  0.00  0.00    +0.000 C 
ATOM     37  C   UNL     1      -0.046  15.482  18.949  0.00  0.00    +0.000 C 
ENDBRANCH  35  36
ENDBRANCH  17  35
TORSDOF 4
ENDMDL
MODEL 3
REMARK VINA RESULT:      -7.0      1.992      5.512
REMARK  Name = 
REMARK  11 active torsions:
REMARK  status: ('A' for Active; 'I' for Inactive)
REMARK    1  A    between atoms: C_1  and  C_2
REMARK    2  A    between atoms: C_7  and  C_8
REMARK    3  A    between atoms: C_12  and  C_13
REMARK    4  A    between atoms: C_13  and  C_14
REMARK    5  A    between atoms: C_13  and  C_15
REMARK    6  A    between atoms: C_20  and  C_21
REMARK    7  A    between atoms: C_21  and  C_22
REMARK    8  A    between atoms: C_22  and  C_23
REMARK    9  A    between atoms: C_27  and  C_28
REMARK   10  A    between atoms: C_28  and  C_29
REMARK   11  A    between atoms: C_28  and  C_30
REMARK                            x       y       z     vdW  Elec       q    Type
REMARK                         _______ _______ _______ _____ _____    ______ ____
ROOT
ATOM      1  C   UNL     1      -7.426  14.558  16.577  0.00  0.00    +0.000 C 
ATOM      2  C   UNL     1      -6.377  13.540  16.898  0.00  0.00    +0.000 C 
ATOM      3  C   UNL     1      -6.406  12.735  17.968  0.00  0.00    +0.000 C 
ATOM      4  N   UNL     1      -7.365  12.804  18.961  0.00  0.00    +0.000 N 
ATOM      5  C   UNL     1      -7.155  13.730  19.972  0.00  0.00    +0.000 C 
ATOM      6  O   UNL     1      -6.427  14.722  19.848  0.00  0.00    +0.000 OA
ATOM      7  C   UNL     1      -7.914  13.474  21.296  0.00  0.00    +0.000 C 
ATOM      8  C   UNL     1      -7.732  12.047  21.821  0.00  0.00    +0.000 C 
ATOM      9  N   UNL     1      -7.443  14.532  22.210  0.00  0.00    +0.000 N 
ATOM     10  C   UNL     1      -6.477  14.225  23.148  0.00  0.00    +0.000 C 
ATOM     11  O   UNL     1      -6.762  13.578  24.157  0.00  0.00    +0.000 OA
ATOM     12  C   UNL     1      -5.027  14.693  22.836  0.00  0.00    +0.000 C 
ATOM     13  N   UNL     1      -4.169  13.977  23.795  0.00  0.00    +0.000 N 
ATOM     14  C   UNL     1      -2.824  13.771  23.704  0.00  0.00    +0.000 C 
ATOM     15  O   UNL     1      -2.081  14.271  24.547  0.00  0.00    +0.000 OA
ATOM     16  C   UNL     1      -2.315  12.764  22.696  0.00  0.00    +0.000 C 
ATOM     17  C   UNL     1      -2.057  13.270  21.279  0.00  0.00    +0.000 C 
ATOM     18  O   UNL     1      -1.839  12.087  20.461  0.00  0.00    +0.000 OA
ATOM     19  C   UNL     1      -1.944  12.265  19.116  0.00  0.00    +0.000 C 
ATOM     20  O   UNL     1      -1.503  13.231  18.503  0.00  0.00    +0.000 OA
ATOM     21  C   UNL     1      -2.932  11.274  18.485  0.00  0.00    +0.000 C 
ATOM     22  N   UNL     1      -4.083  12.121  18.151  0.00  0.00    +0.000 N 
ATOM     23  C   UNL     1      -5.373  11.680  18.234  0.00  0.00    +0.000 C 
ATOM     24  O   UNL     1      -5.709  10.583  18.655  0.00  0.00    +0.000 OA
ATOM     25  H   UNL     1      -7.566  11.877  19.328  0.00  0.00    +0.000 HD
ATOM     26  H   UNL     1      -7.234  15.370  21.674  0.00  0.00    +0.000 HD
ATOM     27  H   UNL     1      -4.424  14.228  24.744  0.00  0.00    +0.000 HD
ATOM     28  H   UNL     1      -3.900  13.098  17.937  0.00  0.00    +0.000 HD
ENDROOT
BRANCH  12  29
ATOM     29  C   UNL     1      -4.896  16.238  22.902  0.00  0.00    +0.000 C 
ATOM     30  C   UNL     1      -3.705  16.778  22.107  0.00  0.00    +0.000 C 
ATOM     31  C   UNL     1      -4.833  16.773  24.337  0.00  0.00    +0.000 C 
ENDBRANCH  12  29
BRANCH  21  32
ATOM     32  C   UNL     1      -2.372  10.617  17.204  0.00  0.00    +0.000 C 
ATOM     33  C   UNL     1      -1.047   9.903  17.469  0.00  0.00    +0.000 C 
ATOM     34  C   UNL     1      -3.363   9.617  16.590  0.00  0.00    +0.000 C 
ENDBRANCH  21  32
BRANCH  17  35
ATOM     35  C   UNL     1      -0.942  14.324  21.194  0.00  0.00    +0.000 C 
BRANCH  35  36
ATOM     36  C   UNL     1       0.449  13.899  21.658  0.00  0.00    +0.000 C 
ATOM     37  C   UNL     1       1.263  15.133  22.037  0.00  0.00    +0.000 C 
ENDBRANCH  35  36
ENDBRANCH  17  35
TORSDOF 4
ENDMDL
MODEL 4
REMARK VINA RESULT:      -6.9      1.052      1.300
REMARK  Name = 
REMARK  11 active torsions:
REMARK  status: ('A' for Active; 'I' for Inactive)
REMARK    1  A    between atoms: C_1  and  C_2
REMARK    2  A    between atoms: C_7  and  C_8
REMARK    3  A    between atoms: C_12  and  C_13
REMARK    4  A    between atoms: C_13  and  C_14
REMARK    5  A    between atoms: C_13  and  C_15
REMARK    6  A    between atoms: C_20  and  C_21
REMARK    7  A    between atoms: C_21  and  C_22
REMARK    8  A    between atoms: C_22  and  C_23
REMARK    9  A    between atoms: C_27  and  C_28
REMARK   10  A    between atoms: C_28  and  C_29
REMARK   11  A    between atoms: C_28  and  C_30
REMARK                            x       y       z     vdW  Elec       q    Type
REMARK                         _______ _______ _______ _____ _____    ______ ____
ROOT
ATOM      1  C   UNL     1      -0.015  10.363  21.723  0.00  0.00    +0.000 C 
ATOM      2  C   UNL     1      -0.726  10.539  20.418  0.00  0.00    +0.000 C 
ATOM      3  C   UNL     1      -0.919  11.717  19.813  0.00  0.00    +0.000 C 
ATOM      4  N   UNL     1      -0.563  12.934  20.363  0.00  0.00    +0.000 N 
ATOM      5  C   UNL     1      -1.468  13.516  21.239  0.00  0.00    +0.000 C 
ATOM      6  O   UNL     1      -2.336  12.878  21.845  0.00  0.00    +0.000 OA
ATOM      7  C   UNL     1      -1.324  15.042  21.450  0.00  0.00    +0.000 C 
ATOM      8  C   UNL     1      -1.265  15.823  20.134  0.00  0.00    +0.000 C 
ATOM      9  N   UNL     1      -2.448  15.407  22.334  0.00  0.00    +0.000 N 
ATOM     10  C   UNL     1      -3.578  15.975  21.778  0.00  0.00    +0.000 C 
ATOM     11  O   UNL     1      -3.577  17.151  21.411  0.00  0.00    +0.000 OA
ATOM     12  C   UNL     1      -4.813  15.045  21.602  0.00  0.00    +0.000 C 
ATOM     13  N   UNL     1      -5.734  15.779  20.719  0.00  0.00    +0.000 N 
ATOM     14  C   UNL     1      -6.767  15.263  19.994  0.00  0.00    +0.000 C 
ATOM     15  O   UNL     1      -7.917  15.614  20.253  0.00  0.00    +0.000 OA
ATOM     16  C   UNL     1      -6.446  14.445  18.762  0.00  0.00    +0.000 C 
ATOM     17  C   UNL     1      -6.203  12.952  18.965  0.00  0.00    +0.000 C 
ATOM     18  O   UNL     1      -5.664  12.456  17.709  0.00  0.00    +0.000 OA
ATOM     19  C   UNL     1      -5.045  11.246  17.762  0.00  0.00    +0.000 C 
ATOM     20  O   UNL     1      -5.449  10.281  18.404  0.00  0.00    +0.000 OA
ATOM     21  C   UNL     1      -3.627  11.303  17.174  0.00  0.00    +0.000 C 
ATOM     22  N   UNL     1      -2.771  11.199  18.362  0.00  0.00    +0.000 N 
ATOM     23  C   UNL     1      -1.581  11.859  18.475  0.00  0.00    +0.000 C 
ATOM     24  O   UNL     1      -1.141  12.648  17.651  0.00  0.00    +0.000 OA
ATOM     25  H   UNL     1      -0.265  13.582  19.636  0.00  0.00    +0.000 HD
ATOM     26  H   UNL     1      -2.650  14.630  22.957  0.00  0.00    +0.000 HD
ATOM     27  H   UNL     1      -6.010  16.652  21.154  0.00  0.00    +0.000 HD
ATOM     28  H   UNL     1      -3.136  10.683  19.158  0.00  0.00    +0.000 HD
ENDROOT
BRANCH  12  29
ATOM     29  C   UNL     1      -5.430  14.646  22.969  0.00  0.00    +0.000 C 
ATOM     30  C   UNL     1      -5.156  15.666  24.077  0.00  0.00    +0.000 C 
ATOM     31  C   UNL     1      -4.992  13.255  23.441  0.00  0.00    +0.000 C 
ENDBRANCH  12  29
BRANCH  21  32
ATOM     32  C   UNL     1      -3.338  10.131  16.212  0.00  0.00    +0.000 C 
ATOM     33  C   UNL     1      -3.253  10.600  14.760  0.00  0.00    +0.000 C 
ATOM     34  C   UNL     1      -2.040   9.395  16.575  0.00  0.00    +0.000 C 
ENDBRANCH  21  32
BRANCH  17  35
ATOM     35  C   UNL     1      -7.434  12.191  19.481  0.00  0.00    +0.000 C 
BRANCH  35  36
ATOM     36  C   UNL     1      -7.369  11.652  20.907  0.00  0.00    +0.000 C 
ATOM     37  C   UNL     1      -7.903  10.222  20.940  0.00  0.00    +0.000 C 
ENDBRANCH  35  36
ENDBRANCH  17  35
TORSDOF 4
ENDMDL
MODEL 5
REMARK VINA RESULT:      -6.8      9.771     12.222
REMARK  Name = 
REMARK  11 active torsions:
REMARK  status: ('A' for Active; 'I' for Inactive)
REMARK    1  A    between atoms: C_1  and  C_2
REMARK    2  A    between atoms: C_7  and  C_8
REMARK    3  A    between atoms: C_12  and  C_13
REMARK    4  A    between atoms: C_13  and  C_14
REMARK    5  A    between atoms: C_13  and  C_15
REMARK    6  A    between atoms: C_20  and  C_21
REMARK    7  A    between atoms: C_21  and  C_22
REMARK    8  A    between atoms: C_22  and  C_23
REMARK    9  A    between atoms: C_27  and  C_28
REMARK   10  A    between atoms: C_28  and  C_29
REMARK   11  A    between atoms: C_28  and  C_30
REMARK                            x       y       z     vdW  Elec       q    Type
REMARK                         _______ _______ _______ _____ _____    ______ ____
ROOT
ATOM      1  C   UNL     1      10.436  17.204  17.593  0.00  0.00    +0.000 C 
ATOM      2  C   UNL     1      10.091  15.787  17.931  0.00  0.00    +0.000 C 
ATOM      3  C   UNL     1       8.844  15.303  17.981  0.00  0.00    +0.000 C 
ATOM      4  N   UNL     1       7.709  16.073  17.813  0.00  0.00    +0.000 N 
ATOM      5  C   UNL     1       7.230  16.737  18.933  0.00  0.00    +0.000 C 
ATOM      6  O   UNL     1       7.929  17.004  19.918  0.00  0.00    +0.000 OA
ATOM      7  C   UNL     1       5.744  17.165  18.885  0.00  0.00    +0.000 C 
ATOM      8  C   UNL     1       4.807  16.020  18.492  0.00  0.00    +0.000 C 
ATOM      9  N   UNL     1       5.479  17.752  20.213  0.00  0.00    +0.000 N 
ATOM     10  C   UNL     1       4.834  16.986  21.165  0.00  0.00    +0.000 C 
ATOM     11  O   UNL     1       3.622  16.781  21.091  0.00  0.00    +0.000 OA
ATOM     12  C   UNL     1       5.720  16.372  22.286  0.00  0.00    +0.000 C 
ATOM     13  N   UNL     1       4.871  15.370  22.952  0.00  0.00    +0.000 N 
ATOM     14  C   UNL     1       5.281  14.336  23.740  0.00  0.00    +0.000 C 
ATOM     15  O   UNL     1       4.952  14.317  24.925  0.00  0.00    +0.000 OA
ATOM     16  C   UNL     1       5.943  13.145  23.082  0.00  0.00    +0.000 C 
ATOM     17  C   UNL     1       7.453  13.222  22.869  0.00  0.00    +0.000 C 
ATOM     18  O   UNL     1       7.795  12.105  22.002  0.00  0.00    +0.000 OA
ATOM     19  C   UNL     1       9.010  12.175  21.392  0.00  0.00    +0.000 C 
ATOM     20  O   UNL     1      10.042  12.560  21.932  0.00  0.00    +0.000 OA
ATOM     21  C   UNL     1       8.896  12.001  19.871  0.00  0.00    +0.000 C 
ATOM     22  N   UNL     1       9.157  13.353  19.363  0.00  0.00    +0.000 N 
ATOM     23  C   UNL     1       8.529  13.863  18.262  0.00  0.00    +0.000 C 
ATOM     24  O   UNL     1       7.650  13.292  17.635  0.00  0.00    +0.000 OA
ATOM     25  H   UNL     1       6.980  15.538  17.346  0.00  0.00    +0.000 HD
ATOM     26  H   UNL     1       6.325  18.197  20.558  0.00  0.00    +0.000 HD
ATOM     27  H   UNL     1       4.056  15.819  23.354  0.00  0.00    +0.000 HD
ATOM     28  H   UNL     1       9.764  13.953  19.917  0.00  0.00    +0.000 HD
ENDROOT
BRANCH  12  29
ATOM     29  C   UNL     1       6.278  17.462  23.238  0.00  0.00    +0.000 C 
ATOM     30  C   UNL     1       7.568  17.043  23.948  0.00  0.00    +0.000 C 
ATOM     31  C   UNL     1       5.254  17.928  24.280  0.00  0.00    +0.000 C 
ENDBRANCH  12  29
BRANCH  21  32
ATOM     32  C   UNL     1       9.943  11.017  19.308  0.00  0.00    +0.000 C 
ATOM     33  C   UNL     1       9.340  10.098  18.245  0.00  0.00    +0.000 C 
ATOM     34  C   UNL     1      11.154  11.746  18.707  0.00  0.00    +0.000 C 
ENDBRANCH  21  32
BRANCH  17  35
ATOM     35  C   UNL     1       8.257  13.289  24.177  0.00  0.00    +0.000 C 
BRANCH  35  36
ATOM     36  C   UNL     1       8.199  12.066  25.089  0.00  0.00    +0.000 C 
ATOM     37  C   UNL     1       7.510  12.436  26.399  0.00  0.00    +0.000 C 
ENDBRANCH  35  36
ENDBRANCH  17  35
TORSDOF 4
ENDMDL
MODEL 6
REMARK VINA RESULT:      -6.8      1.528      1.950
REMARK  Name = 
REMARK  11 active torsions:
REMARK  status: ('A' for Active; 'I' for Inactive)
REMARK    1  A    between atoms: C_1  and  C_2
REMARK    2  A    between atoms: C_7  and  C_8
REMARK    3  A    between atoms: C_12  and  C_13
REMARK    4  A    between atoms: C_13  and  C_14
REMARK    5  A    between atoms: C_13  and  C_15
REMARK    6  A    between atoms: C_20  and  C_21
REMARK    7  A    between atoms: C_21  and  C_22
REMARK    8  A    between atoms: C_22  and  C_23
REMARK    9  A    between atoms: C_27  and  C_28
REMARK   10  A    between atoms: C_28  and  C_29
REMARK   11  A    between atoms: C_28  and  C_30
REMARK                            x       y       z     vdW  Elec       q    Type
REMARK                         _______ _______ _______ _____ _____    ______ ____
ROOT
ATOM      1  C   UNL     1       0.211   9.374  21.554  0.00  0.00    +0.000 C 
ATOM      2  C   UNL     1      -0.630   9.905  20.436  0.00  0.00    +0.000 C 
ATOM      3  C   UNL     1      -0.631  11.181  20.031  0.00  0.00    +0.000 C 
ATOM      4  N   UNL     1       0.080  12.190  20.653  0.00  0.00    +0.000 N 
ATOM      5  C   UNL     1      -0.519  12.797  21.748  0.00  0.00    +0.000 C 
ATOM      6  O   UNL     1      -1.410  12.263  22.420  0.00  0.00    +0.000 OA
ATOM      7  C   UNL     1       0.009  14.203  22.118  0.00  0.00    +0.000 C 
ATOM      8  C   UNL     1       0.047  15.159  20.923  0.00  0.00    +0.000 C 
ATOM      9  N   UNL     1      -0.850  14.645  23.234  0.00  0.00    +0.000 N 
ATOM     10  C   UNL     1      -1.887  15.520  22.974  0.00  0.00    +0.000 C 
ATOM     11  O   UNL     1      -1.666  16.713  22.763  0.00  0.00    +0.000 OA
ATOM     12  C   UNL     1      -3.317  14.910  22.915  0.00  0.00    +0.000 C 
ATOM     13  N   UNL     1      -4.164  15.956  22.317  0.00  0.00    +0.000 N 
ATOM     14  C   UNL     1      -5.388  15.793  21.738  0.00  0.00    +0.000 C 
ATOM     15  O   UNL     1      -6.370  16.329  22.248  0.00  0.00    +0.000 OA
ATOM     16  C   UNL     1      -5.459  15.139  20.375  0.00  0.00    +0.000 C 
ATOM     17  C   UNL     1      -5.545  13.615  20.341  0.00  0.00    +0.000 C 
ATOM     18  O   UNL     1      -5.336  13.231  18.954  0.00  0.00    +0.000 OA
ATOM     19  C   UNL     1      -5.017  11.925  18.739  0.00  0.00    +0.000 C 
ATOM     20  O   UNL     1      -5.532  10.975  19.319  0.00  0.00    +0.000 OA
ATOM     21  C   UNL     1      -3.732  11.781  17.910  0.00  0.00    +0.000 C 
ATOM     22  N   UNL     1      -2.753  11.307  18.895  0.00  0.00    +0.000 N 
ATOM     23  C   UNL     1      -1.439  11.676  18.867  0.00  0.00    +0.000 C 
ATOM     24  O   UNL     1      -0.957  12.479  18.081  0.00  0.00    +0.000 OA
ATOM     25  H   UNL     1       0.406  12.871  19.971  0.00  0.00    +0.000 HD
ATOM     26  H   UNL     1      -1.131  13.836  23.781  0.00  0.00    +0.000 HD
ATOM     27  H   UNL     1      -4.158  16.784  22.902  0.00  0.00    +0.000 HD
ATOM     28  H   UNL     1      -3.102  10.755  19.675  0.00  0.00    +0.000 HD
ENDROOT
BRANCH  12  29
ATOM     29  C   UNL     1      -3.794  14.431  24.312  0.00  0.00    +0.000 C 
ATOM     30  C   UNL     1      -2.952  14.988  25.462  0.00  0.00    +0.000 C 
ATOM     31  C   UNL     1      -3.865  12.904  24.428  0.00  0.00    +0.000 C 
ENDBRANCH  12  29
BRANCH  21  32
ATOM     32  C   UNL     1      -3.877  10.748  16.772  0.00  0.00    +0.000 C 
ATOM     33  C   UNL     1      -3.135  11.190  15.511  0.00  0.00    +0.000 C 
ATOM     34  C   UNL     1      -3.368   9.359  17.188  0.00  0.00    +0.000 C 
ENDBRANCH  21  32
BRANCH  17  35
ATOM     35  C   UNL     1      -6.827  13.055  20.977  0.00  0.00    +0.000 C 
BRANCH  35  36
ATOM     36  C   UNL     1      -6.700  12.448  22.372  0.00  0.00    +0.000 C 
ATOM     37  C   UNL     1      -7.634  13.177  23.335  0.00  0.00    +0.000 C 
ENDBRANCH  35  36
ENDBRANCH  17  35
TORSDOF 4
ENDMDL
MODEL 7
REMARK VINA RESULT:      -6.4      2.183      3.753
REMARK  Name = 
REMARK  11 active torsions:
REMARK  status: ('A' for Active; 'I' for Inactive)
REMARK    1  A    between atoms: C_1  and  C_2
REMARK    2  A    between atoms: C_7  and  C_8
REMARK    3  A    between atoms: C_12  and  C_13
REMARK    4  A    between atoms: C_13  and  C_14
REMARK    5  A    between atoms: C_13  and  C_15
REMARK    6  A    between atoms: C_20  and  C_21
REMARK    7  A    between atoms: C_21  and  C_22
REMARK    8  A    between atoms: C_22  and  C_23
REMARK    9  A    between atoms: C_27  and  C_28
REMARK   10  A    between atoms: C_28  and  C_29
REMARK   11  A    between atoms: C_28  and  C_30
REMARK                            x       y       z     vdW  Elec       q    Type
REMARK                         _______ _______ _______ _____ _____    ______ ____
ROOT
ATOM      1  C   UNL     1       0.665   9.504  21.053  0.00  0.00    +0.000 C 
ATOM      2  C   UNL     1      -0.500  10.085  20.315  0.00  0.00    +0.000 C 
ATOM      3  C   UNL     1      -0.499  11.286  19.725  0.00  0.00    +0.000 C 
ATOM      4  N   UNL     1       0.551  12.182  19.798  0.00  0.00    +0.000 N 
ATOM      5  C   UNL     1       0.596  13.006  20.914  0.00  0.00    +0.000 C 
ATOM      6  O   UNL     1       0.031  12.739  21.982  0.00  0.00    +0.000 OA
ATOM      7  C   UNL     1       1.428  14.302  20.769  0.00  0.00    +0.000 C 
ATOM      8  C   UNL     1       1.067  15.105  19.516  0.00  0.00    +0.000 C 
ATOM      9  N   UNL     1       1.229  15.021  22.042  0.00  0.00    +0.000 N 
ATOM     10  C   UNL     1       0.322  16.062  22.087  0.00  0.00    +0.000 C 
ATOM     11  O   UNL     1       0.594  17.156  21.592  0.00  0.00    +0.000 OA
ATOM     12  C   UNL     1      -1.055  15.760  22.744  0.00  0.00    +0.000 C 
ATOM     13  N   UNL     1      -1.921  16.893  22.378  0.00  0.00    +0.000 N 
ATOM     14  C   UNL     1      -3.284  16.931  22.405  0.00  0.00    +0.000 C 
ATOM     15  O   UNL     1      -3.848  17.707  23.173  0.00  0.00    +0.000 OA
ATOM     16  C   UNL     1      -4.047  16.174  21.340  0.00  0.00    +0.000 C 
ATOM     17  C   UNL     1      -4.356  14.705  21.620  0.00  0.00    +0.000 C 
ATOM     18  O   UNL     1      -4.844  14.150  20.368  0.00  0.00    +0.000 OA
ATOM     19  C   UNL     1      -4.844  12.792  20.278  0.00  0.00    +0.000 C 
ATOM     20  O   UNL     1      -5.178  12.032  21.181  0.00  0.00    +0.000 OA
ATOM     21  C   UNL     1      -4.098  12.302  19.028  0.00  0.00    +0.000 C 
ATOM     22  N   UNL     1      -2.862  11.736  19.580  0.00  0.00    +0.000 N 
ATOM     23  C   UNL     1      -1.660  11.820  18.938  0.00  0.00    +0.000 C 
ATOM     24  O   UNL     1      -1.469  12.423  17.892  0.00  0.00    +0.000 OA
ATOM     25  H   UNL     1       0.633  12.709  18.932  0.00  0.00    +0.000 HD
ATOM     26  H   UNL     1       1.109  14.347  22.793  0.00  0.00    +0.000 HD
ATOM     27  H   UNL     1      -1.537  17.756  22.747  0.00  0.00    +0.000 HD
ATOM     28  H   UNL     1      -2.902  11.349  20.520  0.00  0.00    +0.000 HD
ENDROOT
BRANCH  12  29
ATOM     29  C   UNL     1      -0.924  15.531  24.273  0.00  0.00    +0.000 C 
ATOM     30  C   UNL     1      -2.143  14.841  24.889  0.00  0.00    +0.000 C 
ATOM     31  C   UNL     1      -0.626  16.821  25.047  0.00  0.00    +0.000 C 
ENDBRANCH  12  29
BRANCH  21  32
ATOM     32  C   UNL     1      -4.880  11.214  18.263  0.00  0.00    +0.000 C 
ATOM     33  C   UNL     1      -6.386  11.473  18.294  0.00  0.00    +0.000 C 
ATOM     34  C   UNL     1      -4.425  11.099  16.800  0.00  0.00    +0.000 C 
ENDBRANCH  21  32
BRANCH  17  35
ATOM     35  C   UNL     1      -5.286  14.490  22.824  0.00  0.00    +0.000 C 
BRANCH  35  36
ATOM     36  C   UNL     1      -6.665  15.141  22.759  0.00  0.00    +0.000 C 
ATOM     37  C   UNL     1      -7.560  14.558  23.849  0.00  0.00    +0.000 C 
ENDBRANCH  35  36
ENDBRANCH  17  35
TORSDOF 4
ENDMDL
MODEL 8
REMARK VINA RESULT:      -6.4      3.690      8.211
REMARK  Name = 
REMARK  11 active torsions:
REMARK  status: ('A' for Active; 'I' for Inactive)
REMARK    1  A    between atoms: C_1  and  C_2
REMARK    2  A    between atoms: C_7  and  C_8
REMARK    3  A    between atoms: C_12  and  C_13
REMARK    4  A    between atoms: C_13  and  C_14
REMARK    5  A    between atoms: C_13  and  C_15
REMARK    6  A    between atoms: C_20  and  C_21
REMARK    7  A    between atoms: C_21  and  C_22
REMARK    8  A    between atoms: C_22  and  C_23
REMARK    9  A    between atoms: C_27  and  C_28
REMARK   10  A    between atoms: C_28  and  C_29
REMARK   11  A    between atoms: C_28  and  C_30
REMARK                            x       y       z     vdW  Elec       q    Type
REMARK                         _______ _______ _______ _____ _____    ______ ____
ROOT
ATOM      1  C   UNL     1      -0.195   9.468  22.910  0.00  0.00    +0.000 C 
ATOM      2  C   UNL     1      -0.953  10.753  23.032  0.00  0.00    +0.000 C 
ATOM      3  C   UNL     1      -1.173  11.600  22.019  0.00  0.00    +0.000 C 
ATOM      4  N   UNL     1      -0.650  11.440  20.750  0.00  0.00    +0.000 N 
ATOM      5  C   UNL     1       0.638  11.910  20.538  0.00  0.00    +0.000 C 
ATOM      6  O   UNL     1       1.458  12.085  21.447  0.00  0.00    +0.000 OA
ATOM      7  C   UNL     1       1.024  12.192  19.066  0.00  0.00    +0.000 C 
ATOM      8  C   UNL     1       0.000  13.067  18.339  0.00  0.00    +0.000 C 
ATOM      9  N   UNL     1       2.384  12.761  19.137  0.00  0.00    +0.000 N 
ATOM     10  C   UNL     1       2.542  14.130  19.042  0.00  0.00    +0.000 C 
ATOM     11  O   UNL     1       2.434  14.702  17.957  0.00  0.00    +0.000 OA
ATOM     12  C   UNL     1       2.808  14.896  20.369  0.00  0.00    +0.000 C 
ATOM     13  N   UNL     1       2.613  16.320  20.046  0.00  0.00    +0.000 N 
ATOM     14  C   UNL     1       2.385  17.340  20.921  0.00  0.00    +0.000 C 
ATOM     15  O   UNL     1       3.215  18.241  21.023  0.00  0.00    +0.000 OA
ATOM     16  C   UNL     1       1.024  17.437  21.576  0.00  0.00    +0.000 C 
ATOM     17  C   UNL     1       0.818  16.648  22.867  0.00  0.00    +0.000 C 
ATOM     18  O   UNL     1      -0.610  16.691  23.142  0.00  0.00    +0.000 OA
ATOM     19  C   UNL     1      -1.073  15.771  24.031  0.00  0.00    +0.000 C 
ATOM     20  O   UNL     1      -0.500  15.451  25.068  0.00  0.00    +0.000 OA
ATOM     21  C   UNL     1      -2.241  14.958  23.454  0.00  0.00    +0.000 C 
ATOM     22  N   UNL     1      -1.641  13.640  23.214  0.00  0.00    +0.000 N 
ATOM     23  C   UNL     1      -1.988  12.852  22.154  0.00  0.00    +0.000 C 
ATOM     24  O   UNL     1      -2.767  13.178  21.269  0.00  0.00    +0.000 OA
ATOM     25  H   UNL     1      -1.302  11.784  20.049  0.00  0.00    +0.000 HD
ATOM     26  H   UNL     1       2.878  12.351  19.925  0.00  0.00    +0.000 HD
ATOM     27  H   UNL     1       3.275  16.607  19.333  0.00  0.00    +0.000 HD
ATOM     28  H   UNL     1      -0.873  13.358  23.818  0.00  0.00    +0.000 HD
ENDROOT
BRANCH  12  29
ATOM     29  C   UNL     1       4.208  14.565  20.951  0.00  0.00    +0.000 C 
ATOM     30  C   UNL     1       4.307  14.802  22.459  0.00  0.00    +0.000 C 
ATOM     31  C   UNL     1       5.343  15.316  20.244  0.00  0.00    +0.000 C 
ENDBRANCH  12  29
BRANCH  21  32
ATOM     32  C   UNL     1      -3.416  14.827  24.446  0.00  0.00    +0.000 C 
ATOM     33  C   UNL     1      -3.825  16.185  25.019  0.00  0.00    +0.000 C 
ATOM     34  C   UNL     1      -4.645  14.170  23.800  0.00  0.00    +0.000 C 
ENDBRANCH  21  32
BRANCH  17  35
ATOM     35  C   UNL     1       1.710  17.119  24.026  0.00  0.00    +0.000 C 
BRANCH  35  36
ATOM     36  C   UNL     1       1.566  18.574  24.464  0.00  0.00    +0.000 C 
ATOM     37  C   UNL     1       0.983  18.630  25.874  0.00  0.00    +0.000 C 
ENDBRANCH  35  36
ENDBRANCH  17  35
TORSDOF 4
ENDMDL
MODEL 9
REMARK VINA RESULT:      -6.3      1.868      5.429
REMARK  Name = 
REMARK  11 active torsions:
REMARK  status: ('A' for Active; 'I' for Inactive)
REMARK    1  A    between atoms: C_1  and  C_2
REMARK    2  A    between atoms: C_7  and  C_8
REMARK    3  A    between atoms: C_12  and  C_13
REMARK    4  A    between atoms: C_13  and  C_14
REMARK    5  A    between atoms: C_13  and  C_15
REMARK    6  A    between atoms: C_20  and  C_21
REMARK    7  A    between atoms: C_21  and  C_22
REMARK    8  A    between atoms: C_22  and  C_23
REMARK    9  A    between atoms: C_27  and  C_28
REMARK   10  A    between atoms: C_28  and  C_29
REMARK   11  A    between atoms: C_28  and  C_30
REMARK                            x       y       z     vdW  Elec       q    Type
REMARK                         _______ _______ _______ _____ _____    ______ ____
ROOT
ATOM      1  C   UNL     1      -7.342  14.834  16.714  0.00  0.00    +0.000 C 
ATOM      2  C   UNL     1      -6.373  13.692  16.723  0.00  0.00    +0.000 C 
ATOM      3  C   UNL     1      -6.377  12.704  17.625  0.00  0.00    +0.000 C 
ATOM      4  N   UNL     1      -7.222  12.659  18.718  0.00  0.00    +0.000 N 
ATOM      5  C   UNL     1      -6.821  13.355  19.849  0.00  0.00    +0.000 C 
ATOM      6  O   UNL     1      -6.013  14.291  19.823  0.00  0.00    +0.000 OA
ATOM      7  C   UNL     1      -7.467  12.913  21.184  0.00  0.00    +0.000 C 
ATOM      8  C   UNL     1      -7.378  11.402  21.417  0.00  0.00    +0.000 C 
ATOM      9  N   UNL     1      -6.805  13.737  22.214  0.00  0.00    +0.000 N 
ATOM     10  C   UNL     1      -5.786  13.179  22.962  0.00  0.00    +0.000 C 
ATOM     11  O   UNL     1      -6.033  12.377  23.863  0.00  0.00    +0.000 OA
ATOM     12  C   UNL     1      -4.334  13.581  22.574  0.00  0.00    +0.000 C 
ATOM     13  N   UNL     1      -3.462  12.628  23.282  0.00  0.00    +0.000 N 
ATOM     14  C   UNL     1      -2.160  12.337  22.999  0.00  0.00    +0.000 C 
ATOM     15  O   UNL     1      -1.292  12.606  23.827  0.00  0.00    +0.000 OA
ATOM     16  C   UNL     1      -1.857  11.503  21.774  0.00  0.00    +0.000 C 
ATOM     17  C   UNL     1      -1.691  12.248  20.452  0.00  0.00    +0.000 C 
ATOM     18  O   UNL     1      -1.675  11.228  19.414  0.00  0.00    +0.000 OA
ATOM     19  C   UNL     1      -1.893  11.667  18.145  0.00  0.00    +0.000 C 
ATOM     20  O   UNL     1      -1.421  12.694  17.669  0.00  0.00    +0.000 OA
ATOM     21  C   UNL     1      -3.033  10.897  17.463  0.00  0.00    +0.000 C 
ATOM     22  N   UNL     1      -4.121  11.881  17.423  0.00  0.00    +0.000 N 
ATOM     23  C   UNL     1      -5.434  11.538  17.575  0.00  0.00    +0.000 C 
ATOM     24  O   UNL     1      -5.835  10.411  17.826  0.00  0.00    +0.000 OA
ATOM     25  H   UNL     1      -7.478  11.697  18.933  0.00  0.00    +0.000 HD
ATOM     26  H   UNL     1      -6.567  14.641  21.817  0.00  0.00    +0.000 HD
ATOM     27  H   UNL     1      -3.596  12.714  24.283  0.00  0.00    +0.000 HD
ATOM     28  H   UNL     1      -3.863  12.863  17.370  0.00  0.00    +0.000 HD
ENDROOT
BRANCH  12  29
ATOM     29  C   UNL     1      -4.044  15.069  22.902  0.00  0.00    +0.000 C 
ATOM     30  C   UNL     1      -5.167  15.745  23.691  0.00  0.00    +0.000 C 
ATOM     31  C   UNL     1      -3.724  15.905  21.657  0.00  0.00    +0.000 C 
ENDBRANCH  12  29
BRANCH  21  32
ATOM     32  C   UNL     1      -2.672  10.453  16.029  0.00  0.00    +0.000 C 
ATOM     33  C   UNL     1      -2.364   8.957  15.962  0.00  0.00    +0.000 C 
ATOM     34  C   UNL     1      -3.790  10.777  15.027  0.00  0.00    +0.000 C 
ENDBRANCH  21  32
BRANCH  17  35
ATOM     35  C   UNL     1      -0.489  13.205  20.430  0.00  0.00    +0.000 C 
BRANCH  35  36
ATOM     36  C   UNL     1       0.872  12.616  20.790  0.00  0.00    +0.000 C 
ATOM     37  C   UNL     1       1.980  13.514  20.244  0.00  0.00    +0.000 C 
ENDBRANCH  35  36
ENDBRANCH  17  35
TORSDOF 4
ENDMDL
