MODEL 1
REMARK VINA RESULT:      -8.5      0.000      0.000
REMARK  Name = 
REMARK  7 active torsions:
REMARK  status: ('A' for Active; 'I' for Inactive)
REMARK    1  A    between atoms: C_1  and  C_2
REMARK    2  A    between atoms: C_7  and  C_8
REMARK    3  A    between atoms: C_9  and  C_10
REMARK    4  A    between atoms: C_10  and  N_11
REMARK    5  A    between atoms: N_11  and  C_12
REMARK    6  A    between atoms: N_11  and  C_13
REMARK    7  A    between atoms: C_13  and  C_14
REMARK                            x       y       z     vdW  Elec       q    Type
REMARK                         _______ _______ _______ _____ _____    ______ ____
ROOT
ATOM      1  N   UNL     1       1.923   2.447  19.713  0.00  0.00    +0.000 NA
ATOM      2  C   UNL     1       0.869   2.605  18.682  0.00  0.00    +0.000 C 
ENDROOT
BRANCH   1   3
ATOM      3  C   UNL     1       1.874   3.545  20.708  0.00  0.00    +0.000 C 
BRANCH   3   5
ATOM      4  C   UNL     1       2.212   6.052  20.410  0.00  0.00    +0.000 C 
ATOM      5  C   UNL     1       1.608   4.874  20.060  0.00  0.00    +0.000 C 
BRANCH   4  12
ATOM      6  C   UNL     1       0.694   8.487  21.745  0.00  0.00    +0.000 C 
ATOM      7  C   UNL     1       1.229   8.483  20.328  0.00  0.00    +0.000 A 
ATOM      8  C   UNL     1       1.019   9.655  19.576  0.00  0.00    +0.000 A 
ATOM      9  C   UNL     1       1.490   9.771  18.274  0.00  0.00    +0.000 A 
ATOM     10  C   UNL     1       2.169   8.717  17.687  0.00  0.00    +0.000 A 
ATOM     11  C   UNL     1       2.378   7.546  18.393  0.00  0.00    +0.000 A 
ATOM     12  C   UNL     1       1.927   7.375  19.720  0.00  0.00    +0.000 A 
ENDBRANCH   4  12
ENDBRANCH   3   5
ENDBRANCH   1   3
BRANCH   1  13
ATOM     13  C   UNL     1       3.277   2.208  19.193  0.00  0.00    +0.000 C 
BRANCH  13  14
ATOM     14  C   UNL     1       3.922   3.470  18.629  0.00  0.00    +0.000 A 
ATOM     15  C   UNL     1       3.609   4.071  17.385  0.00  0.00    +0.000 A 
ATOM     16  C   UNL     1       4.422   5.147  16.905  0.00  0.00    +0.000 A 
ATOM     17  C   UNL     1       5.543   5.579  17.678  0.00  0.00    +0.000 A 
ATOM     18  C   UNL     1       5.703   5.044  18.946  0.00  0.00    +0.000 A 
ATOM     19  C   UNL     1       4.921   4.031  19.411  0.00  0.00    +0.000 A 
ATOM     20  O   UNL     1       6.688   5.456  19.779  0.00  0.00    +0.000 OA
ATOM     21  C   UNL     1       7.937   5.733  19.285  0.00  0.00    +0.000 C 
ATOM     22  C   UNL     1       7.835   6.737  18.132  0.00  0.00    +0.000 C 
ATOM     23  C   UNL     1       6.600   6.566  17.178  0.00  0.00    +0.000 C 
ENDBRANCH  13  14
ENDBRANCH   1  13
TORSDOF 5
ENDMDL
MODEL 2
REMARK VINA RESULT:      -8.3      2.130      4.458
REMARK  Name = 
REMARK  7 active torsions:
REMARK  status: ('A' for Active; 'I' for Inactive)
REMARK    1  A    between atoms: C_1  and  C_2
REMARK    2  A    between atoms: C_7  and  C_8
REMARK    3  A    between atoms: C_9  and  C_10
REMARK    4  A    between atoms: C_10  and  N_11
REMARK    5  A    between atoms: N_11  and  C_12
REMARK    6  A    between atoms: N_11  and  C_13
REMARK    7  A    between atoms: C_13  and  C_14
REMARK                            x       y       z     vdW  Elec       q    Type
REMARK                         _______ _______ _______ _____ _____    ______ ____
ROOT
ATOM      1  N   UNL     1       5.523   5.075  15.793  0.00  0.00    +0.000 NA
ATOM      2  C   UNL     1       6.548   4.880  14.740  0.00  0.00    +0.000 C 
ENDROOT
BRANCH   1   3
ATOM      3  C   UNL     1       5.301   6.514  16.072  0.00  0.00    +0.000 C 
BRANCH   3   5
ATOM      4  C   UNL     1       3.355   7.520  17.371  0.00  0.00    +0.000 C 
ATOM      5  C   UNL     1       4.466   6.722  17.302  0.00  0.00    +0.000 C 
BRANCH   4  12
ATOM      6  C   UNL     1       1.690  10.113  18.087  0.00  0.00    +0.000 C 
ATOM      7  C   UNL     1       1.771   8.879  18.960  0.00  0.00    +0.000 A 
ATOM      8  C   UNL     1       1.049   8.918  20.169  0.00  0.00    +0.000 A 
ATOM      9  C   UNL     1       1.032   7.832  21.035  0.00  0.00    +0.000 A 
ATOM     10  C   UNL     1       1.745   6.687  20.723  0.00  0.00    +0.000 A 
ATOM     11  C   UNL     1       2.478   6.622  19.551  0.00  0.00    +0.000 A 
ATOM     12  C   UNL     1       2.526   7.692  18.632  0.00  0.00    +0.000 A 
ENDBRANCH   4  12
ENDBRANCH   3   5
ENDBRANCH   1   3
BRANCH   1  13
ATOM     13  C   UNL     1       5.720   4.280  17.014  0.00  0.00    +0.000 C 
BRANCH  13  14
ATOM     14  C   UNL     1       4.414   3.711  17.562  0.00  0.00    +0.000 A 
ATOM     15  C   UNL     1       3.213   3.550  16.829  0.00  0.00    +0.000 A 
ATOM     16  C   UNL     1       2.018   3.174  17.521  0.00  0.00    +0.000 A 
ATOM     17  C   UNL     1       2.054   2.990  18.937  0.00  0.00    +0.000 A 
ATOM     18  C   UNL     1       3.289   3.024  19.565  0.00  0.00    +0.000 A 
ATOM     19  C   UNL     1       4.430   3.366  18.905  0.00  0.00    +0.000 A 
ATOM     20  O   UNL     1       3.428   2.778  20.889  0.00  0.00    +0.000 OA
ATOM     21  C   UNL     1       2.497   3.251  21.778  0.00  0.00    +0.000 C 
ATOM     22  C   UNL     1       1.093   2.808  21.354  0.00  0.00    +0.000 C 
ATOM     23  C   UNL     1       0.812   2.797  19.810  0.00  0.00    +0.000 C 
ENDBRANCH  13  14
ENDBRANCH   1  13
TORSDOF 5
ENDMDL
MODEL 3
REMARK VINA RESULT:      -8.2      0.703      1.593
REMARK  Name = 
REMARK  7 active torsions:
REMARK  status: ('A' for Active; 'I' for Inactive)
REMARK    1  A    between atoms: C_1  and  C_2
REMARK    2  A    between atoms: C_7  and  C_8
REMARK    3  A    between atoms: C_9  and  C_10
REMARK    4  A    between atoms: C_10  and  N_11
REMARK    5  A    between atoms: N_11  and  C_12
REMARK    6  A    between atoms: N_11  and  C_13
REMARK    7  A    between atoms: C_13  and  C_14
REMARK                            x       y       z     vdW  Elec       q    Type
REMARK                         _______ _______ _______ _____ _____    ______ ____
ROOT
ATOM      1  N   UNL     1       1.776   2.233  19.763  0.00  0.00    +0.000 NA
ATOM      2  C   UNL     1       1.027   2.751  18.594  0.00  0.00    +0.000 C 
ENDROOT
BRANCH   1   3
ATOM      3  C   UNL     1       1.577   3.090  20.955  0.00  0.00    +0.000 C 
BRANCH   3   5
ATOM      4  C   UNL     1       2.119   5.565  20.697  0.00  0.00    +0.000 C 
ATOM      5  C   UNL     1       1.257   4.508  20.576  0.00  0.00    +0.000 C 
BRANCH   4  12
ATOM      6  C   UNL     1       2.760   6.835  17.870  0.00  0.00    +0.000 C 
ATOM      7  C   UNL     1       2.063   7.564  18.999  0.00  0.00    +0.000 A 
ATOM      8  C   UNL     1       1.688   8.898  18.746  0.00  0.00    +0.000 A 
ATOM      9  C   UNL     1       1.020   9.654  19.700  0.00  0.00    +0.000 A 
ATOM     10  C   UNL     1       0.722   9.102  20.935  0.00  0.00    +0.000 A 
ATOM     11  C   UNL     1       1.089   7.800  21.221  0.00  0.00    +0.000 A 
ATOM     12  C   UNL     1       1.763   6.984  20.287  0.00  0.00    +0.000 A 
ENDBRANCH   4  12
ENDBRANCH   3   5
ENDBRANCH   1   3
BRANCH   1  13
ATOM     13  C   UNL     1       3.192   1.923  19.513  0.00  0.00    +0.000 C 
BRANCH  13  14
ATOM     14  C   UNL     1       3.894   3.004  18.696  0.00  0.00    +0.000 A 
ATOM     15  C   UNL     1       3.827   3.147  17.288  0.00  0.00    +0.000 A 
ATOM     16  C   UNL     1       4.683   4.095  16.641  0.00  0.00    +0.000 A 
ATOM     17  C   UNL     1       5.601   4.861  17.424  0.00  0.00    +0.000 A 
ATOM     18  C   UNL     1       5.511   4.771  18.803  0.00  0.00    +0.000 A 
ATOM     19  C   UNL     1       4.686   3.882  19.421  0.00  0.00    +0.000 A 
ATOM     20  O   UNL     1       6.283   5.523  19.623  0.00  0.00    +0.000 OA
ATOM     21  C   UNL     1       7.597   5.757  19.307  0.00  0.00    +0.000 C 
ATOM     22  C   UNL     1       7.703   6.331  17.891  0.00  0.00    +0.000 C 
ATOM     23  C   UNL     1       6.703   5.743  16.833  0.00  0.00    +0.000 C 
ENDBRANCH  13  14
ENDBRANCH   1  13
TORSDOF 5
ENDMDL
MODEL 4
REMARK VINA RESULT:      -8.0      1.157      1.924
REMARK  Name = 
REMARK  7 active torsions:
REMARK  status: ('A' for Active; 'I' for Inactive)
REMARK    1  A    between atoms: C_1  and  C_2
REMARK    2  A    between atoms: C_7  and  C_8
REMARK    3  A    between atoms: C_9  and  C_10
REMARK    4  A    between atoms: C_10  and  N_11
REMARK    5  A    between atoms: N_11  and  C_12
REMARK    6  A    between atoms: N_11  and  C_13
REMARK    7  A    between atoms: C_13  and  C_14
REMARK                            x       y       z     vdW  Elec       q    Type
REMARK                         _______ _______ _______ _____ _____    ______ ____
ROOT
ATOM      1  N   UNL     1       1.749   2.882  20.654  0.00  0.00    +0.000 NA
ATOM      2  C   UNL     1       0.606   3.205  19.768  0.00  0.00    +0.000 C 
ENDROOT
BRANCH   1   3
ATOM      3  C   UNL     1       2.178   4.065  21.436  0.00  0.00    +0.000 C 
BRANCH   3   5
ATOM      4  C   UNL     1       2.556   6.330  20.333  0.00  0.00    +0.000 C 
ATOM      5  C   UNL     1       1.724   5.349  20.801  0.00  0.00    +0.000 C 
BRANCH   4  12
ATOM      6  C   UNL     1       3.403   7.330  17.453  0.00  0.00    +0.000 C 
ATOM      7  C   UNL     1       2.450   8.067  18.370  0.00  0.00    +0.000 A 
ATOM      8  C   UNL     1       1.923   9.279  17.884  0.00  0.00    +0.000 A 
ATOM      9  C   UNL     1       1.020  10.025  18.629  0.00  0.00    +0.000 A 
ATOM     10  C   UNL     1       0.631   9.588  19.884  0.00  0.00    +0.000 A 
ATOM     11  C   UNL     1       1.142   8.410  20.399  0.00  0.00    +0.000 A 
ATOM     12  C   UNL     1       2.057   7.609  19.683  0.00  0.00    +0.000 A 
ENDBRANCH   4  12
ENDBRANCH   3   5
ENDBRANCH   1   3
BRANCH   1  13
ATOM     13  C   UNL     1       2.871   2.191  20.001  0.00  0.00    +0.000 C 
BRANCH  13  14
ATOM     14  C   UNL     1       3.460   2.991  18.844  0.00  0.00    +0.000 A 
ATOM     15  C   UNL     1       2.891   3.115  17.552  0.00  0.00    +0.000 A 
ATOM     16  C   UNL     1       3.647   3.747  16.514  0.00  0.00    +0.000 A 
ATOM     17  C   UNL     1       4.965   4.220  16.793  0.00  0.00    +0.000 A 
ATOM     18  C   UNL     1       5.400   4.194  18.108  0.00  0.00    +0.000 A 
ATOM     19  C   UNL     1       4.676   3.608  19.101  0.00  0.00    +0.000 A 
ATOM     20  O   UNL     1       6.601   4.698  18.477  0.00  0.00    +0.000 OA
ATOM     21  C   UNL     1       7.699   4.520  17.673  0.00  0.00    +0.000 C 
ATOM     22  C   UNL     1       7.393   5.002  16.252  0.00  0.00    +0.000 C 
ATOM     23  C   UNL     1       5.942   4.717  15.725  0.00  0.00    +0.000 C 
ENDBRANCH  13  14
ENDBRANCH   1  13
TORSDOF 5
ENDMDL
MODEL 5
REMARK VINA RESULT:      -7.9      2.101      4.287
REMARK  Name = 
REMARK  7 active torsions:
REMARK  status: ('A' for Active; 'I' for Inactive)
REMARK    1  A    between atoms: C_1  and  C_2
REMARK    2  A    between atoms: C_7  and  C_8
REMARK    3  A    between atoms: C_9  and  C_10
REMARK    4  A    between atoms: C_10  and  N_11
REMARK    5  A    between atoms: N_11  and  C_12
REMARK    6  A    between atoms: N_11  and  C_13
REMARK    7  A    between atoms: C_13  and  C_14
REMARK                            x       y       z     vdW  Elec       q    Type
REMARK                         _______ _______ _______ _____ _____    ______ ____
ROOT
ATOM      1  N   UNL     1       5.211   4.939  15.777  0.00  0.00    +0.000 NA
ATOM      2  C   UNL     1       5.868   4.923  14.449  0.00  0.00    +0.000 C 
ENDROOT
BRANCH   1   3
ATOM      3  C   UNL     1       5.728   6.042  16.622  0.00  0.00    +0.000 C 
BRANCH   3   5
ATOM      4  C   UNL     1       3.790   6.746  18.117  0.00  0.00    +0.000 C 
ATOM      5  C   UNL     1       4.632   6.970  17.061  0.00  0.00    +0.000 C 
BRANCH   4  12
ATOM      6  C   UNL     1       2.132   6.531  20.804  0.00  0.00    +0.000 C 
ATOM      7  C   UNL     1       1.942   7.615  19.764  0.00  0.00    +0.000 A 
ATOM      8  C   UNL     1       0.951   8.578  20.037  0.00  0.00    +0.000 A 
ATOM      9  C   UNL     1       0.709   9.632  19.165  0.00  0.00    +0.000 A 
ATOM     10  C   UNL     1       1.440   9.743  17.994  0.00  0.00    +0.000 A 
ATOM     11  C   UNL     1       2.410   8.805  17.689  0.00  0.00    +0.000 A 
ATOM     12  C   UNL     1       2.702   7.718  18.541  0.00  0.00    +0.000 A 
ENDBRANCH   4  12
ENDBRANCH   3   5
ENDBRANCH   1   3
BRANCH   1  13
ATOM     13  C   UNL     1       5.183   3.647  16.479  0.00  0.00    +0.000 C 
BRANCH  13  14
ATOM     14  C   UNL     1       3.885   3.425  17.250  0.00  0.00    +0.000 A 
ATOM     15  C   UNL     1       2.593   3.812  16.818  0.00  0.00    +0.000 A 
ATOM     16  C   UNL     1       1.491   3.703  17.726  0.00  0.00    +0.000 A 
ATOM     17  C   UNL     1       1.720   3.227  19.053  0.00  0.00    +0.000 A 
ATOM     18  C   UNL     1       2.977   2.734  19.359  0.00  0.00    +0.000 A 
ATOM     19  C   UNL     1       4.024   2.822  18.491  0.00  0.00    +0.000 A 
ATOM     20  O   UNL     1       3.260   2.187  20.565  0.00  0.00    +0.000 OA
ATOM     21  C   UNL     1       2.741   2.738  21.709  0.00  0.00    +0.000 C 
ATOM     22  C   UNL     1       1.219   2.866  21.586  0.00  0.00    +0.000 C 
ATOM     23  C   UNL     1       0.674   3.265  20.170  0.00  0.00    +0.000 C 
ENDBRANCH  13  14
ENDBRANCH   1  13
TORSDOF 5
ENDMDL
MODEL 6
REMARK VINA RESULT:      -7.9      1.870      4.236
REMARK  Name = 
REMARK  7 active torsions:
REMARK  status: ('A' for Active; 'I' for Inactive)
REMARK    1  A    between atoms: C_1  and  C_2
REMARK    2  A    between atoms: C_7  and  C_8
REMARK    3  A    between atoms: C_9  and  C_10
REMARK    4  A    between atoms: C_10  and  N_11
REMARK    5  A    between atoms: N_11  and  C_12
REMARK    6  A    between atoms: N_11  and  C_13
REMARK    7  A    between atoms: C_13  and  C_14
REMARK                            x       y       z     vdW  Elec       q    Type
REMARK                         _______ _______ _______ _____ _____    ______ ____
ROOT
ATOM      1  N   UNL     1       6.031   5.578  17.050  0.00  0.00    +0.000 NA
ATOM      2  C   UNL     1       6.280   6.015  18.444  0.00  0.00    +0.000 C 
ENDROOT
BRANCH   1   3
ATOM      3  C   UNL     1       5.005   6.424  16.394  0.00  0.00    +0.000 C 
BRANCH   3   5
ATOM      4  C   UNL     1       2.891   7.493  17.330  0.00  0.00    +0.000 C 
ATOM      5  C   UNL     1       4.235   7.242  17.391  0.00  0.00    +0.000 C 
BRANCH   4  12
ATOM      6  C   UNL     1       2.234   6.511  20.265  0.00  0.00    +0.000 C 
ATOM      7  C   UNL     1       1.840   7.861  19.705  0.00  0.00    +0.000 A 
ATOM      8  C   UNL     1       1.131   8.717  20.571  0.00  0.00    +0.000 A 
ATOM      9  C   UNL     1       0.742   9.988  20.171  0.00  0.00    +0.000 A 
ATOM     10  C   UNL     1       1.038  10.433  18.893  0.00  0.00    +0.000 A 
ATOM     11  C   UNL     1       1.720   9.612  18.012  0.00  0.00    +0.000 A 
ATOM     12  C   UNL     1       2.145   8.314  18.367  0.00  0.00    +0.000 A 
ENDBRANCH   4  12
ENDBRANCH   3   5
ENDBRANCH   1   3
BRANCH   1  13
ATOM     13  C   UNL     1       5.778   4.140  16.880  0.00  0.00    +0.000 C 
BRANCH  13  14
ATOM     14  C   UNL     1       4.423   3.712  17.436  0.00  0.00    +0.000 A 
ATOM     15  C   UNL     1       3.182   3.824  16.762  0.00  0.00    +0.000 A 
ATOM     16  C   UNL     1       1.972   3.551  17.477  0.00  0.00    +0.000 A 
ATOM     17  C   UNL     1       2.038   3.193  18.858  0.00  0.00    +0.000 A 
ATOM     18  C   UNL     1       3.287   2.964  19.411  0.00  0.00    +0.000 A 
ATOM     19  C   UNL     1       4.440   3.207  18.728  0.00  0.00    +0.000 A 
ATOM     20  O   UNL     1       3.440   2.540  20.688  0.00  0.00    +0.000 OA
ATOM     21  C   UNL     1       2.632   3.036  21.679  0.00  0.00    +0.000 C 
ATOM     22  C   UNL     1       1.160   2.865  21.291  0.00  0.00    +0.000 C 
ATOM     23  C   UNL     1       0.818   3.085  19.775  0.00  0.00    +0.000 C 
ENDBRANCH  13  14
ENDBRANCH   1  13
TORSDOF 5
ENDMDL
MODEL 7
REMARK VINA RESULT:      -7.7      3.604      6.585
REMARK  Name = 
REMARK  7 active torsions:
REMARK  status: ('A' for Active; 'I' for Inactive)
REMARK    1  A    between atoms: C_1  and  C_2
REMARK    2  A    between atoms: C_7  and  C_8
REMARK    3  A    between atoms: C_9  and  C_10
REMARK    4  A    between atoms: C_10  and  N_11
REMARK    5  A    between atoms: N_11  and  C_12
REMARK    6  A    between atoms: N_11  and  C_13
REMARK    7  A    between atoms: C_13  and  C_14
REMARK                            x       y       z     vdW  Elec       q    Type
REMARK                         _______ _______ _______ _____ _____    ______ ____
ROOT
ATOM      1  N   UNL     1       7.639   5.723  18.013  0.00  0.00    +0.000 NA
ATOM      2  C   UNL     1       7.617   5.791  19.493  0.00  0.00    +0.000 C 
ENDROOT
BRANCH   1   3
ATOM      3  C   UNL     1       7.337   7.042  17.407  0.00  0.00    +0.000 C 
BRANCH   3   5
ATOM      4  C   UNL     1       8.032   9.472  17.723  0.00  0.00    +0.000 C 
ATOM      5  C   UNL     1       8.078   8.155  18.092  0.00  0.00    +0.000 C 
BRANCH   4  12
ATOM      6  C   UNL     1       7.830  12.553  17.030  0.00  0.00    +0.000 C 
ATOM      7  C   UNL     1       8.696  11.977  18.130  0.00  0.00    +0.000 A 
ATOM      8  C   UNL     1       9.455  12.899  18.878  0.00  0.00    +0.000 A 
ATOM      9  C   UNL     1      10.264  12.485  19.927  0.00  0.00    +0.000 A 
ATOM     10  C   UNL     1      10.347  11.140  20.248  0.00  0.00    +0.000 A 
ATOM     11  C   UNL     1       9.627  10.207  19.524  0.00  0.00    +0.000 A 
ATOM     12  C   UNL     1       8.784  10.572  18.452  0.00  0.00    +0.000 A 
ENDBRANCH   4  12
ENDBRANCH   3   5
ENDBRANCH   1   3
BRANCH   1  13
ATOM     13  C   UNL     1       6.851   4.631  17.424  0.00  0.00    +0.000 C 
BRANCH  13  14
ATOM     14  C   UNL     1       5.379   4.687  17.821  0.00  0.00    +0.000 A 
ATOM     15  C   UNL     1       4.473   5.724  17.485  0.00  0.00    +0.000 A 
ATOM     16  C   UNL     1       3.172   5.733  18.081  0.00  0.00    +0.000 A 
ATOM     17  C   UNL     1       2.819   4.712  19.016  0.00  0.00    +0.000 A 
ATOM     18  C   UNL     1       3.699   3.656  19.187  0.00  0.00    +0.000 A 
ATOM     19  C   UNL     1       4.932   3.636  18.609  0.00  0.00    +0.000 A 
ATOM     20  O   UNL     1       3.411   2.604  19.989  0.00  0.00    +0.000 OA
ATOM     21  C   UNL     1       2.767   2.805  21.183  0.00  0.00    +0.000 C 
ATOM     22  C   UNL     1       1.479   3.603  20.957  0.00  0.00    +0.000 C 
ATOM     23  C   UNL     1       1.550   4.732  19.870  0.00  0.00    +0.000 C 
ENDBRANCH  13  14
ENDBRANCH   1  13
TORSDOF 5
ENDMDL
MODEL 8
REMARK VINA RESULT:      -7.7      3.888      7.154
REMARK  Name = 
REMARK  7 active torsions:
REMARK  status: ('A' for Active; 'I' for Inactive)
REMARK    1  A    between atoms: C_1  and  C_2
REMARK    2  A    between atoms: C_7  and  C_8
REMARK    3  A    between atoms: C_9  and  C_10
REMARK    4  A    between atoms: C_10  and  N_11
REMARK    5  A    between atoms: N_11  and  C_12
REMARK    6  A    between atoms: N_11  and  C_13
REMARK    7  A    between atoms: C_13  and  C_14
REMARK                            x       y       z     vdW  Elec       q    Type
REMARK                         _______ _______ _______ _____ _____    ______ ____
ROOT
ATOM      1  N   UNL     1       7.728   6.370  17.475  0.00  0.00    +0.000 NA
ATOM      2  C   UNL     1       7.604   5.960  18.893  0.00  0.00    +0.000 C 
ENDROOT
BRANCH   1   3
ATOM      3  C   UNL     1       7.481   7.822  17.309  0.00  0.00    +0.000 C 
BRANCH   3   5
ATOM      4  C   UNL     1       8.458  10.013  18.166  0.00  0.00    +0.000 C 
ATOM      5  C   UNL     1       8.384   8.646  18.182  0.00  0.00    +0.000 C 
BRANCH   4  12
ATOM      6  C   UNL     1      11.039  11.571  17.203  0.00  0.00    +0.000 C 
ATOM      7  C   UNL     1      10.556  11.517  18.637  0.00  0.00    +0.000 A 
ATOM      8  C   UNL     1      11.329  12.214  19.586  0.00  0.00    +0.000 A 
ATOM      9  C   UNL     1      10.965  12.253  20.926  0.00  0.00    +0.000 A 
ATOM     10  C   UNL     1       9.830  11.587  21.354  0.00  0.00    +0.000 A 
ATOM     11  C   UNL     1       9.056  10.880  20.451  0.00  0.00    +0.000 A 
ATOM     12  C   UNL     1       9.375  10.811  19.078  0.00  0.00    +0.000 A 
ENDBRANCH   4  12
ENDBRANCH   3   5
ENDBRANCH   1   3
BRANCH   1  13
ATOM     13  C   UNL     1       6.972   5.550  16.517  0.00  0.00    +0.000 C 
BRANCH  13  14
ATOM     14  C   UNL     1       5.511   5.373  16.920  0.00  0.00    +0.000 A 
ATOM     15  C   UNL     1       4.620   6.417  17.270  0.00  0.00    +0.000 A 
ATOM     16  C   UNL     1       3.332   6.087  17.803  0.00  0.00    +0.000 A 
ATOM     17  C   UNL     1       2.980   4.716  17.990  0.00  0.00    +0.000 A 
ATOM     18  C   UNL     1       3.841   3.750  17.494  0.00  0.00    +0.000 A 
ATOM     19  C   UNL     1       5.060   4.062  16.972  0.00  0.00    +0.000 A 
ATOM     20  O   UNL     1       3.549   2.429  17.552  0.00  0.00    +0.000 OA
ATOM     21  C   UNL     1       2.937   1.909  18.665  0.00  0.00    +0.000 C 
ATOM     22  C   UNL     1       1.661   2.696  18.979  0.00  0.00    +0.000 C 
ATOM     23  C   UNL     1       1.731   4.245  18.739  0.00  0.00    +0.000 C 
ENDBRANCH  13  14
ENDBRANCH   1  13
TORSDOF 5
ENDMDL
MODEL 9
REMARK VINA RESULT:      -7.5      1.046      1.124
REMARK  Name = 
REMARK  7 active torsions:
REMARK  status: ('A' for Active; 'I' for Inactive)
REMARK    1  A    between atoms: C_1  and  C_2
REMARK    2  A    between atoms: C_7  and  C_8
REMARK    3  A    between atoms: C_9  and  C_10
REMARK    4  A    between atoms: C_10  and  N_11
REMARK    5  A    between atoms: N_11  and  C_12
REMARK    6  A    between atoms: N_11  and  C_13
REMARK    7  A    between atoms: C_13  and  C_14
REMARK                            x       y       z     vdW  Elec       q    Type
REMARK                         _______ _______ _______ _____ _____    ______ ____
ROOT
ATOM      1  N   UNL     1       1.767   2.865  20.698  0.00  0.00    +0.000 NA
ATOM      2  C   UNL     1       0.505   3.013  19.935  0.00  0.00    +0.000 C 
ENDROOT
BRANCH   1   3
ATOM      3  C   UNL     1       2.154   4.137  21.353  0.00  0.00    +0.000 C 
BRANCH   3   5
ATOM      4  C   UNL     1       2.297   6.591  20.684  0.00  0.00    +0.000 C 
ATOM      5  C   UNL     1       1.791   5.330  20.516  0.00  0.00    +0.000 C 
BRANCH   4  12
ATOM      6  C   UNL     1       0.456   8.995  21.601  0.00  0.00    +0.000 C 
ATOM      7  C   UNL     1       1.070   8.863  20.223  0.00  0.00    +0.000 A 
ATOM      8  C   UNL     1       0.783   9.894  19.307  0.00  0.00    +0.000 A 
ATOM      9  C   UNL     1       1.314   9.888  18.024  0.00  0.00    +0.000 A 
ATOM     10  C   UNL     1       2.133   8.848  17.619  0.00  0.00    +0.000 A 
ATOM     11  C   UNL     1       2.423   7.812  18.489  0.00  0.00    +0.000 A 
ATOM     12  C   UNL     1       1.916   7.769  19.805  0.00  0.00    +0.000 A 
ENDBRANCH   4  12
ENDBRANCH   3   5
ENDBRANCH   1   3
BRANCH   1  13
ATOM     13  C   UNL     1       2.876   2.241  19.961  0.00  0.00    +0.000 C 
BRANCH  13  14
ATOM     14  C   UNL     1       3.451   3.154  18.883  0.00  0.00    +0.000 A 
ATOM     15  C   UNL     1       2.822   3.480  17.656  0.00  0.00    +0.000 A 
ATOM     16  C   UNL     1       3.559   4.201  16.663  0.00  0.00    +0.000 A 
ATOM     17  C   UNL     1       4.918   4.559  16.919  0.00  0.00    +0.000 A 
ATOM     18  C   UNL     1       5.421   4.335  18.190  0.00  0.00    +0.000 A 
ATOM     19  C   UNL     1       4.715   3.663  19.142  0.00  0.00    +0.000 A 
ATOM     20  O   UNL     1       6.669   4.718  18.547  0.00  0.00    +0.000 OA
ATOM     21  C   UNL     1       7.708   4.587  17.660  0.00  0.00    +0.000 C 
ATOM     22  C   UNL     1       7.357   5.270  16.335  0.00  0.00    +0.000 C 
ATOM     23  C   UNL     1       5.865   5.138  15.866  0.00  0.00    +0.000 C 
ENDBRANCH  13  14
ENDBRANCH   1  13
TORSDOF 5
ENDMDL
