MODEL 1
REMARK VINA RESULT:      -7.2      0.000      0.000
REMARK  Name = 
REMARK  5 active torsions:
REMARK  status: ('A' for Active; 'I' for Inactive)
REMARK    1  A    between atoms: C_1  and  C_2
REMARK    2  A    between atoms: C_5  and  C_6
REMARK    3  A    between atoms: N_11  and  C_12
REMARK    4  A    between atoms: N_20  and  C_21
REMARK    5  A    between atoms: C_21  and  C_22
REMARK                            x       y       z     vdW  Elec       q    Type
REMARK                         _______ _______ _______ _____ _____    ______ ____
ROOT
ATOM      1  C   UNL     1       0.241   9.560  20.233  0.00  0.00    +0.000 C 
ATOM      2  C   UNL     1       1.373   8.573  20.650  0.00  0.00    +0.000 C 
ATOM      3  N   UNL     1       1.855   7.647  19.570  0.00  0.00    +0.000 N 
ATOM      4  C   UNL     1       2.028   6.311  19.907  0.00  0.00    +0.000 C 
ATOM      5  O   UNL     1       1.761   5.871  21.028  0.00  0.00    +0.000 OA
ATOM      6  N   UNL     1       2.554   5.503  18.934  0.00  0.00    +0.000 N 
ATOM      7  C   UNL     1       2.565   8.252  18.450  0.00  0.00    +0.000 C 
ATOM      8  C   UNL     1       1.658   8.874  17.392  0.00  0.00    +0.000 C 
ATOM      9  C   UNL     1       0.481   9.753  17.838  0.00  0.00    +0.000 C 
ATOM     10  N   UNL     1       0.566  10.507  19.098  0.00  0.00    +0.000 NA
ATOM     11  H   UNL     1       2.390   5.769  17.979  0.00  0.00    +0.000 HD
ENDROOT
BRANCH   1  16
ATOM     12  C   UNL     1      -1.935  12.876  23.381  0.00  0.00    +0.000 C 
ATOM     13  C   UNL     1      -1.349  11.652  22.782  0.00  0.00    +0.000 A 
ATOM     14  N   UNL     1      -0.885  10.678  23.571  0.00  0.00    +0.000 NA
ATOM     15  N   UNL     1      -0.292   9.868  22.689  0.00  0.00    +0.000 N 
ATOM     16  C   UNL     1      -0.481  10.271  21.390  0.00  0.00    +0.000 A 
ATOM     17  N   UNL     1      -1.126  11.435  21.431  0.00  0.00    +0.000 NA
ATOM     18  H   UNL     1       0.280   9.107  23.021  0.00  0.00    +0.000 HD
ENDBRANCH   1  16
BRANCH   6  19
ATOM     19  C   UNL     1       2.752   4.085  19.185  0.00  0.00    +0.000 C 
ATOM     20  C   UNL     1       1.505   3.250  18.916  0.00  0.00    +0.000 C 
ATOM     21  C   UNL     1       2.048   1.832  18.793  0.00  0.00    +0.000 C 
ATOM     22  C   UNL     1       3.466   1.978  18.239  0.00  0.00    +0.000 C 
ATOM     23  C   UNL     1       3.777   3.472  18.238  0.00  0.00    +0.000 C 
ENDBRANCH   6  19
BRANCH  10  24
ATOM     24  C   UNL     1       1.824  11.279  19.213  0.00  0.00    +0.000 C 
BRANCH  24  25
ATOM     25  C   UNL     1       1.749  12.765  18.855  0.00  0.00    +0.000 A 
ATOM     26  C   UNL     1       0.627  13.526  19.188  0.00  0.00    +0.000 A 
ATOM     27  C   UNL     1       0.623  14.916  19.032  0.00  0.00    +0.000 A 
ATOM     28  C   UNL     1       1.763  15.582  18.557  0.00  0.00    +0.000 A 
ATOM     29  C   UNL     1       2.878  14.838  18.184  0.00  0.00    +0.000 A 
ATOM     30  C   UNL     1       2.868  13.443  18.312  0.00  0.00    +0.000 A 
ENDBRANCH  24  25
ENDBRANCH  10  24
TORSDOF 4
ENDMDL
MODEL 2
REMARK VINA RESULT:      -6.6      2.075      4.698
REMARK  Name = 
REMARK  5 active torsions:
REMARK  status: ('A' for Active; 'I' for Inactive)
REMARK    1  A    between atoms: C_1  and  C_2
REMARK    2  A    between atoms: C_5  and  C_6
REMARK    3  A    between atoms: N_11  and  C_12
REMARK    4  A    between atoms: N_20  and  C_21
REMARK    5  A    between atoms: C_21  and  C_22
REMARK                            x       y       z     vdW  Elec       q    Type
REMARK                         _______ _______ _______ _____ _____    ______ ____
ROOT
ATOM      1  C   UNL     1       1.297  11.702  20.248  0.00  0.00    +0.000 C 
ATOM      2  C   UNL     1       0.909  10.625  19.190  0.00  0.00    +0.000 C 
ATOM      3  N   UNL     1       1.280   9.212  19.537  0.00  0.00    +0.000 N 
ATOM      4  C   UNL     1       1.866   8.444  18.540  0.00  0.00    +0.000 C 
ATOM      5  O   UNL     1       2.122   8.895  17.420  0.00  0.00    +0.000 OA
ATOM      6  N   UNL     1       2.114   7.133  18.849  0.00  0.00    +0.000 N 
ATOM      7  C   UNL     1       0.580   8.602  20.660  0.00  0.00    +0.000 C 
ATOM      8  C   UNL     1       1.128   8.991  22.030  0.00  0.00    +0.000 C 
ATOM      9  C   UNL     1       1.450  10.465  22.316  0.00  0.00    +0.000 C 
ATOM     10  N   UNL     1       0.700  11.525  21.628  0.00  0.00    +0.000 NA
ATOM     11  H   UNL     1       2.268   6.912  19.817  0.00  0.00    +0.000 HD
ENDROOT
BRANCH   1  16
ATOM     12  C   UNL     1      -0.105  16.266  18.563  0.00  0.00    +0.000 C 
ATOM     13  C   UNL     1       0.683  15.085  18.991  0.00  0.00    +0.000 A 
ATOM     14  N   UNL     1       1.939  14.927  18.561  0.00  0.00    +0.000 NA
ATOM     15  N   UNL     1       2.227  13.698  18.999  0.00  0.00    +0.000 N 
ATOM     16  C   UNL     1       1.225  13.161  19.769  0.00  0.00    +0.000 A 
ATOM     17  N   UNL     1       0.209  14.022  19.746  0.00  0.00    +0.000 NA
ATOM     18  H   UNL     1       3.075  13.248  18.691  0.00  0.00    +0.000 HD
ENDBRANCH   1  16
BRANCH   6  19
ATOM     19  C   UNL     1       2.745   6.255  17.878  0.00  0.00    +0.000 C 
ATOM     20  C   UNL     1       4.225   6.018  18.159  0.00  0.00    +0.000 C 
ATOM     21  C   UNL     1       4.544   4.771  17.345  0.00  0.00    +0.000 C 
ATOM     22  C   UNL     1       3.247   3.962  17.299  0.00  0.00    +0.000 C 
ATOM     23  C   UNL     1       2.166   4.846  17.916  0.00  0.00    +0.000 C 
ENDBRANCH   6  19
BRANCH  10  24
ATOM     24  C   UNL     1      -0.765  11.323  21.700  0.00  0.00    +0.000 C 
BRANCH  24  25
ATOM     25  C   UNL     1      -1.525  12.183  22.712  0.00  0.00    +0.000 A 
ATOM     26  C   UNL     1      -1.056  13.449  23.071  0.00  0.00    +0.000 A 
ATOM     27  C   UNL     1      -1.832  14.314  23.849  0.00  0.00    +0.000 A 
ATOM     28  C   UNL     1      -3.116  13.936  24.267  0.00  0.00    +0.000 A 
ATOM     29  C   UNL     1      -3.587  12.664  23.952  0.00  0.00    +0.000 A 
ATOM     30  C   UNL     1      -2.794  11.788  23.199  0.00  0.00    +0.000 A 
ENDBRANCH  24  25
ENDBRANCH  10  24
TORSDOF 4
ENDMDL
MODEL 3
REMARK VINA RESULT:      -6.5      2.015      4.429
REMARK  Name = 
REMARK  5 active torsions:
REMARK  status: ('A' for Active; 'I' for Inactive)
REMARK    1  A    between atoms: C_1  and  C_2
REMARK    2  A    between atoms: C_5  and  C_6
REMARK    3  A    between atoms: N_11  and  C_12
REMARK    4  A    between atoms: N_20  and  C_21
REMARK    5  A    between atoms: C_21  and  C_22
REMARK                            x       y       z     vdW  Elec       q    Type
REMARK                         _______ _______ _______ _____ _____    ______ ____
ROOT
ATOM      1  C   UNL     1       1.114  11.343  20.031  0.00  0.00    +0.000 C 
ATOM      2  C   UNL     1       0.903  10.154  19.047  0.00  0.00    +0.000 C 
ATOM      3  N   UNL     1       1.477   8.838  19.487  0.00  0.00    +0.000 N 
ATOM      4  C   UNL     1       2.181   8.102  18.544  0.00  0.00    +0.000 C 
ATOM      5  O   UNL     1       2.379   8.511  17.398  0.00  0.00    +0.000 OA
ATOM      6  N   UNL     1       2.618   6.866  18.940  0.00  0.00    +0.000 N 
ATOM      7  C   UNL     1       0.862   8.206  20.648  0.00  0.00    +0.000 C 
ATOM      8  C   UNL     1       1.332   8.761  21.990  0.00  0.00    +0.000 C 
ATOM      9  C   UNL     1       1.428  10.282  22.177  0.00  0.00    +0.000 C 
ATOM     10  N   UNL     1       0.535  11.171  21.419  0.00  0.00    +0.000 NA
ATOM     11  H   UNL     1       2.792   6.734  19.921  0.00  0.00    +0.000 HD
ENDROOT
BRANCH   1  16
ATOM     12  C   UNL     1       0.112  16.251  19.289  0.00  0.00    +0.000 C 
ATOM     13  C   UNL     1       0.339  14.798  19.099  0.00  0.00    +0.000 A 
ATOM     14  N   UNL     1      -0.179  14.173  18.036  0.00  0.00    +0.000 NA
ATOM     15  N   UNL     1       0.081  12.893  18.316  0.00  0.00    +0.000 N 
ATOM     16  C   UNL     1       0.831  12.741  19.456  0.00  0.00    +0.000 A 
ATOM     17  N   UNL     1       0.977  13.951  19.993  0.00  0.00    +0.000 NA
ATOM     18  H   UNL     1      -0.330  12.168  17.748  0.00  0.00    +0.000 HD
ENDBRANCH   1  16
BRANCH   6  19
ATOM     19  C   UNL     1       3.383   6.030  18.031  0.00  0.00    +0.000 C 
ATOM     20  C   UNL     1       4.686   5.521  18.638  0.00  0.00    +0.000 C 
ATOM     21  C   UNL     1       5.065   4.354  17.736  0.00  0.00    +0.000 C 
ATOM     22  C   UNL     1       3.744   3.780  17.223  0.00  0.00    +0.000 C 
ATOM     23  C   UNL     1       2.650   4.740  17.681  0.00  0.00    +0.000 C 
ENDBRANCH   6  19
BRANCH  10  24
ATOM     24  C   UNL     1      -0.884  10.757  21.503  0.00  0.00    +0.000 C 
BRANCH  24  25
ATOM     25  C   UNL     1      -1.885  11.833  21.931  0.00  0.00    +0.000 A 
ATOM     26  C   UNL     1      -2.449  12.700  20.993  0.00  0.00    +0.000 A 
ATOM     27  C   UNL     1      -3.495  13.561  21.341  0.00  0.00    +0.000 A 
ATOM     28  C   UNL     1      -4.022  13.552  22.640  0.00  0.00    +0.000 A 
ATOM     29  C   UNL     1      -3.449  12.721  23.599  0.00  0.00    +0.000 A 
ATOM     30  C   UNL     1      -2.379  11.884  23.257  0.00  0.00    +0.000 A 
ENDBRANCH  24  25
ENDBRANCH  10  24
TORSDOF 4
ENDMDL
MODEL 4
REMARK VINA RESULT:      -6.5      8.200     11.261
REMARK  Name = 
REMARK  5 active torsions:
REMARK  status: ('A' for Active; 'I' for Inactive)
REMARK    1  A    between atoms: C_1  and  C_2
REMARK    2  A    between atoms: C_5  and  C_6
REMARK    3  A    between atoms: N_11  and  C_12
REMARK    4  A    between atoms: N_20  and  C_21
REMARK    5  A    between atoms: C_21  and  C_22
REMARK                            x       y       z     vdW  Elec       q    Type
REMARK                         _______ _______ _______ _____ _____    ______ ____
ROOT
ATOM      1  C   UNL     1       7.494  14.836  19.463  0.00  0.00    +0.000 C 
ATOM      2  C   UNL     1       6.585  15.499  18.384  0.00  0.00    +0.000 C 
ATOM      3  N   UNL     1       5.414  16.278  18.913  0.00  0.00    +0.000 N 
ATOM      4  C   UNL     1       4.187  16.084  18.293  0.00  0.00    +0.000 C 
ATOM      5  O   UNL     1       4.031  15.277  17.373  0.00  0.00    +0.000 OA
ATOM      6  N   UNL     1       3.154  16.869  18.730  0.00  0.00    +0.000 N 
ATOM      7  C   UNL     1       5.713  17.498  19.653  0.00  0.00    +0.000 C 
ATOM      8  C   UNL     1       6.108  17.270  21.109  0.00  0.00    +0.000 C 
ATOM      9  C   UNL     1       7.115  16.160  21.446  0.00  0.00    +0.000 C 
ATOM     10  N   UNL     1       8.136  15.775  20.461  0.00  0.00    +0.000 NA
ATOM     11  H   UNL     1       3.198  17.196  19.680  0.00  0.00    +0.000 HD
ENDROOT
BRANCH   1  16
ATOM     12  C   UNL     1      11.352  11.639  18.739  0.00  0.00    +0.000 C 
ATOM     13  C   UNL     1      10.133  12.465  18.563  0.00  0.00    +0.000 A 
ATOM     14  N   UNL     1       9.720  12.794  17.334  0.00  0.00    +0.000 NA
ATOM     15  N   UNL     1       8.740  13.663  17.598  0.00  0.00    +0.000 N 
ATOM     16  C   UNL     1       8.483  13.781  18.941  0.00  0.00    +0.000 A 
ATOM     17  N   UNL     1       9.392  13.047  19.580  0.00  0.00    +0.000 NA
ATOM     18  H   UNL     1       8.333  14.195  16.844  0.00  0.00    +0.000 HD
ENDBRANCH   1  16
BRANCH   6  19
ATOM     19  C   UNL     1       1.827  16.724  18.158  0.00  0.00    +0.000 C 
ATOM     20  C   UNL     1       0.726  16.644  19.211  0.00  0.00    +0.000 C 
ATOM     21  C   UNL     1      -0.540  16.956  18.424  0.00  0.00    +0.000 C 
ATOM     22  C   UNL     1      -0.107  17.891  17.294  0.00  0.00    +0.000 C 
ATOM     23  C   UNL     1       1.418  17.942  17.337  0.00  0.00    +0.000 C 
ENDBRANCH   6  19
BRANCH  10  24
ATOM     24  C   UNL     1       8.862  16.941  19.909  0.00  0.00    +0.000 C 
BRANCH  24  25
ATOM     25  C   UNL     1      10.122  16.639  19.095  0.00  0.00    +0.000 A 
ATOM     26  C   UNL     1      11.224  16.018  19.685  0.00  0.00    +0.000 A 
ATOM     27  C   UNL     1      12.304  15.574  18.914  0.00  0.00    +0.000 A 
ATOM     28  C   UNL     1      12.290  15.722  17.520  0.00  0.00    +0.000 A 
ATOM     29  C   UNL     1      11.218  16.373  16.916  0.00  0.00    +0.000 A 
ATOM     30  C   UNL     1      10.153  16.845  17.695  0.00  0.00    +0.000 A 
ENDBRANCH  24  25
ENDBRANCH  10  24
TORSDOF 4
ENDMDL
MODEL 5
REMARK VINA RESULT:      -6.5      2.093      4.615
REMARK  Name = 
REMARK  5 active torsions:
REMARK  status: ('A' for Active; 'I' for Inactive)
REMARK    1  A    between atoms: C_1  and  C_2
REMARK    2  A    between atoms: C_5  and  C_6
REMARK    3  A    between atoms: N_11  and  C_12
REMARK    4  A    between atoms: N_20  and  C_21
REMARK    5  A    between atoms: C_21  and  C_22
REMARK                            x       y       z     vdW  Elec       q    Type
REMARK                         _______ _______ _______ _____ _____    ______ ____
ROOT
ATOM      1  C   UNL     1       1.450  11.585  19.992  0.00  0.00    +0.000 C 
ATOM      2  C   UNL     1       1.226  10.509  18.888  0.00  0.00    +0.000 C 
ATOM      3  N   UNL     1       1.424   9.084  19.320  0.00  0.00    +0.000 N 
ATOM      4  C   UNL     1       2.157   8.258  18.479  0.00  0.00    +0.000 C 
ATOM      5  O   UNL     1       2.670   8.666  17.434  0.00  0.00    +0.000 OA
ATOM      6  N   UNL     1       2.249   6.942  18.847  0.00  0.00    +0.000 N 
ATOM      7  C   UNL     1       0.465   8.545  20.276  0.00  0.00    +0.000 C 
ATOM      8  C   UNL     1       0.736   8.933  21.727  0.00  0.00    +0.000 C 
ATOM      9  C   UNL     1       1.085  10.391  22.059  0.00  0.00    +0.000 C 
ATOM     10  N   UNL     1       0.566  11.478  21.216  0.00  0.00    +0.000 NA
ATOM     11  H   UNL     1       2.181   6.736  19.828  0.00  0.00    +0.000 HD
ENDROOT
BRANCH   1  16
ATOM     12  C   UNL     1       2.839  15.937  17.808  0.00  0.00    +0.000 C 
ATOM     13  C   UNL     1       2.167  14.912  18.643  0.00  0.00    +0.000 A 
ATOM     14  N   UNL     1       1.531  15.272  19.762  0.00  0.00    +0.000 NA
ATOM     15  N   UNL     1       1.233  14.088  20.303  0.00  0.00    +0.000 N 
ATOM     16  C   UNL     1       1.575  13.034  19.493  0.00  0.00    +0.000 A 
ATOM     17  N   UNL     1       2.209  13.541  18.437  0.00  0.00    +0.000 NA
ATOM     18  H   UNL     1       0.871  14.049  21.244  0.00  0.00    +0.000 HD
ENDBRANCH   1  16
BRANCH   6  19
ATOM     19  C   UNL     1       3.012   6.005  18.041  0.00  0.00    +0.000 C 
ATOM     20  C   UNL     1       4.270   5.501  18.741  0.00  0.00    +0.000 C 
ATOM     21  C   UNL     1       4.635   4.249  17.954  0.00  0.00    +0.000 C 
ATOM     22  C   UNL     1       3.312   3.683  17.438  0.00  0.00    +0.000 C 
ATOM     23  C   UNL     1       2.241   4.719  17.770  0.00  0.00    +0.000 C 
ENDBRANCH   6  19
BRANCH  10  24
ATOM     24  C   UNL     1      -0.891  11.366  20.979  0.00  0.00    +0.000 C 
BRANCH  24  25
ATOM     25  C   UNL     1      -1.793  12.266  21.826  0.00  0.00    +0.000 A 
ATOM     26  C   UNL     1      -2.282  13.472  21.319  0.00  0.00    +0.000 A 
ATOM     27  C   UNL     1      -3.248  14.210  22.011  0.00  0.00    +0.000 A 
ATOM     28  C   UNL     1      -3.768  13.738  23.224  0.00  0.00    +0.000 A 
ATOM     29  C   UNL     1      -3.267  12.558  23.766  0.00  0.00    +0.000 A 
ATOM     30  C   UNL     1      -2.276  11.838  23.086  0.00  0.00    +0.000 A 
ENDBRANCH  24  25
ENDBRANCH  10  24
TORSDOF 4
ENDMDL
MODEL 6
REMARK VINA RESULT:      -6.5      3.517      8.790
REMARK  Name = 
REMARK  5 active torsions:
REMARK  status: ('A' for Active; 'I' for Inactive)
REMARK    1  A    between atoms: C_1  and  C_2
REMARK    2  A    between atoms: C_5  and  C_6
REMARK    3  A    between atoms: N_11  and  C_12
REMARK    4  A    between atoms: N_20  and  C_21
REMARK    5  A    between atoms: C_21  and  C_22
REMARK                            x       y       z     vdW  Elec       q    Type
REMARK                         _______ _______ _______ _____ _____    ______ ____
ROOT
ATOM      1  C   UNL     1      -1.759  11.203  19.237  0.00  0.00    +0.000 C 
ATOM      2  C   UNL     1      -1.366  12.685  19.517  0.00  0.00    +0.000 C 
ATOM      3  N   UNL     1      -1.006  13.002  20.941  0.00  0.00    +0.000 N 
ATOM      4  C   UNL     1      -1.544  14.158  21.492  0.00  0.00    +0.000 C 
ATOM      5  O   UNL     1      -2.322  14.886  20.872  0.00  0.00    +0.000 OA
ATOM      6  N   UNL     1      -1.133  14.476  22.759  0.00  0.00    +0.000 N 
ATOM      7  C   UNL     1       0.216  12.403  21.462  0.00  0.00    +0.000 C 
ATOM      8  C   UNL     1       0.064  10.954  21.915  0.00  0.00    +0.000 C 
ATOM      9  C   UNL     1      -0.695   9.965  21.017  0.00  0.00    +0.000 C 
ATOM     10  N   UNL     1      -0.709  10.162  19.560  0.00  0.00    +0.000 NA
ATOM     11  H   UNL     1      -0.846  13.716  23.351  0.00  0.00    +0.000 HD
ENDROOT
BRANCH   1  16
ATOM     12  C   UNL     1      -2.894   9.997  14.453  0.00  0.00    +0.000 C 
ATOM     13  C   UNL     1      -2.944  10.507  15.844  0.00  0.00    +0.000 A 
ATOM     14  N   UNL     1      -3.802  11.480  16.170  0.00  0.00    +0.000 NA
ATOM     15  N   UNL     1      -3.421  11.776  17.416  0.00  0.00    +0.000 N 
ATOM     16  C   UNL     1      -2.437  10.941  17.883  0.00  0.00    +0.000 A 
ATOM     17  N   UNL     1      -2.091  10.142  16.875  0.00  0.00    +0.000 NA
ATOM     18  H   UNL     1      -3.806  12.590  17.871  0.00  0.00    +0.000 HD
ENDBRANCH   1  16
BRANCH   6  19
ATOM     19  C   UNL     1      -1.656  15.654  23.428  0.00  0.00    +0.000 C 
ATOM     20  C   UNL     1      -2.053  15.392  24.877  0.00  0.00    +0.000 C 
ATOM     21  C   UNL     1      -2.122  16.789  25.482  0.00  0.00    +0.000 C 
ATOM     22  C   UNL     1      -1.100  17.626  24.712  0.00  0.00    +0.000 C 
ATOM     23  C   UNL     1      -0.609  16.753  23.560  0.00  0.00    +0.000 C 
ENDBRANCH   6  19
BRANCH  10  24
ATOM     24  C   UNL     1       0.645  10.387  19.004  0.00  0.00    +0.000 C 
BRANCH  24  25
ATOM     25  C   UNL     1       1.557   9.161  18.910  0.00  0.00    +0.000 A 
ATOM     26  C   UNL     1       1.610   8.226  19.946  0.00  0.00    +0.000 A 
ATOM     27  C   UNL     1       2.295   7.016  19.794  0.00  0.00    +0.000 A 
ATOM     28  C   UNL     1       2.926   6.703  18.581  0.00  0.00    +0.000 A 
ATOM     29  C   UNL     1       2.916   7.638  17.550  0.00  0.00    +0.000 A 
ATOM     30  C   UNL     1       2.257   8.862  17.716  0.00  0.00    +0.000 A 
ENDBRANCH  24  25
ENDBRANCH  10  24
TORSDOF 4
ENDMDL
MODEL 7
REMARK VINA RESULT:      -6.5      2.051      4.719
REMARK  Name = 
REMARK  5 active torsions:
REMARK  status: ('A' for Active; 'I' for Inactive)
REMARK    1  A    between atoms: C_1  and  C_2
REMARK    2  A    between atoms: C_5  and  C_6
REMARK    3  A    between atoms: N_11  and  C_12
REMARK    4  A    between atoms: N_20  and  C_21
REMARK    5  A    between atoms: C_21  and  C_22
REMARK                            x       y       z     vdW  Elec       q    Type
REMARK                         _______ _______ _______ _____ _____    ______ ____
ROOT
ATOM      1  C   UNL     1       1.087  11.273  20.747  0.00  0.00    +0.000 C 
ATOM      2  C   UNL     1       0.969   9.997  19.860  0.00  0.00    +0.000 C 
ATOM      3  N   UNL     1       0.893   8.695  20.605  0.00  0.00    +0.000 N 
ATOM      4  C   UNL     1       1.679   7.648  20.141  0.00  0.00    +0.000 C 
ATOM      5  O   UNL     1       2.448   7.771  19.185  0.00  0.00    +0.000 OA
ATOM      6  N   UNL     1       1.527   6.445  20.778  0.00  0.00    +0.000 N 
ATOM      7  C   UNL     1      -0.306   8.457  21.399  0.00  0.00    +0.000 C 
ATOM      8  C   UNL     1      -0.302   9.138  22.764  0.00  0.00    +0.000 C 
ATOM      9  C   UNL     1       0.147  10.603  22.869  0.00  0.00    +0.000 C 
ATOM     10  N   UNL     1      -0.043  11.510  21.727  0.00  0.00    +0.000 NA
ATOM     11  H   UNL     1       1.227   6.469  21.737  0.00  0.00    +0.000 HD
ENDROOT
BRANCH   1  16
ATOM     12  C   UNL     1       3.340  14.839  17.946  0.00  0.00    +0.000 C 
ATOM     13  C   UNL     1       2.454  14.117  18.891  0.00  0.00    +0.000 A 
ATOM     14  N   UNL     1       1.837  14.784  19.872  0.00  0.00    +0.000 NA
ATOM     15  N   UNL     1       1.306  13.790  20.589  0.00  0.00    +0.000 N 
ATOM     16  C   UNL     1       1.493  12.559  20.010  0.00  0.00    +0.000 A 
ATOM     17  N   UNL     1       2.260  12.744  18.937  0.00  0.00    +0.000 NA
ATOM     18  H   UNL     1       0.895  13.991  21.488  0.00  0.00    +0.000 HD
ENDBRANCH   1  16
BRANCH   6  19
ATOM     19  C   UNL     1       2.321   5.296  20.378  0.00  0.00    +0.000 C 
ATOM     20  C   UNL     1       2.301   4.169  21.405  0.00  0.00    +0.000 C 
ATOM     21  C   UNL     1       2.779   2.959  20.612  0.00  0.00    +0.000 C 
ATOM     22  C   UNL     1       2.322   3.200  19.173  0.00  0.00    +0.000 C 
ATOM     23  C   UNL     1       1.767   4.621  19.128  0.00  0.00    +0.000 C 
ENDBRANCH   6  19
BRANCH  10  24
ATOM     24  C   UNL     1      -1.419  11.459  21.183  0.00  0.00    +0.000 C 
BRANCH  24  25
ATOM     25  C   UNL     1      -2.470  12.307  21.902  0.00  0.00    +0.000 A 
ATOM     26  C   UNL     1      -3.243  13.235  21.201  0.00  0.00    +0.000 A 
ATOM     27  C   UNL     1      -4.325  13.881  21.807  0.00  0.00    +0.000 A 
ATOM     28  C   UNL     1      -4.675  13.590  23.133  0.00  0.00    +0.000 A 
ATOM     29  C   UNL     1      -3.894  12.696  23.861  0.00  0.00    +0.000 A 
ATOM     30  C   UNL     1      -2.792  12.075  23.261  0.00  0.00    +0.000 A 
ENDBRANCH  24  25
ENDBRANCH  10  24
TORSDOF 4
ENDMDL
MODEL 8
REMARK VINA RESULT:      -6.4      3.432      8.653
REMARK  Name = 
REMARK  5 active torsions:
REMARK  status: ('A' for Active; 'I' for Inactive)
REMARK    1  A    between atoms: C_1  and  C_2
REMARK    2  A    between atoms: C_5  and  C_6
REMARK    3  A    between atoms: N_11  and  C_12
REMARK    4  A    between atoms: N_20  and  C_21
REMARK    5  A    between atoms: C_21  and  C_22
REMARK                            x       y       z     vdW  Elec       q    Type
REMARK                         _______ _______ _______ _____ _____    ______ ____
ROOT
ATOM      1  C   UNL     1      -1.490  11.067  19.150  0.00  0.00    +0.000 C 
ATOM      2  C   UNL     1      -0.975  12.515  19.405  0.00  0.00    +0.000 C 
ATOM      3  N   UNL     1      -0.538  12.809  20.811  0.00  0.00    +0.000 N 
ATOM      4  C   UNL     1      -0.965  14.004  21.375  0.00  0.00    +0.000 C 
ATOM      5  O   UNL     1      -1.709  14.787  20.781  0.00  0.00    +0.000 OA
ATOM      6  N   UNL     1      -0.481  14.295  22.623  0.00  0.00    +0.000 N 
ATOM      7  C   UNL     1       0.656  12.122  21.289  0.00  0.00    +0.000 C 
ATOM      8  C   UNL     1       0.412  10.689  21.757  0.00  0.00    +0.000 C 
ATOM      9  C   UNL     1      -0.453   9.758  20.895  0.00  0.00    +0.000 C 
ATOM     10  N   UNL     1      -0.509   9.950  19.438  0.00  0.00    +0.000 NA
ATOM     11  H   UNL     1      -0.229  13.518  23.209  0.00  0.00    +0.000 HD
ENDROOT
BRANCH   1  16
ATOM     12  C   UNL     1      -2.890   9.962  14.411  0.00  0.00    +0.000 C 
ATOM     13  C   UNL     1      -2.854  10.462  15.807  0.00  0.00    +0.000 A 
ATOM     14  N   UNL     1      -3.645  11.475  16.175  0.00  0.00    +0.000 NA
ATOM     15  N   UNL     1      -3.196  11.740  17.406  0.00  0.00    +0.000 N 
ATOM     16  C   UNL     1      -2.238  10.851  17.824  0.00  0.00    +0.000 A 
ATOM     17  N   UNL     1      -1.978  10.044  16.798  0.00  0.00    +0.000 NA
ATOM     18  H   UNL     1      -3.518  12.569  17.882  0.00  0.00    +0.000 HD
ENDBRANCH   1  16
BRANCH   6  19
ATOM     19  C   UNL     1      -0.888  15.512  23.304  0.00  0.00    +0.000 C 
ATOM     20  C   UNL     1      -1.299  15.277  24.754  0.00  0.00    +0.000 C 
ATOM     21  C   UNL     1      -1.233  16.668  25.370  0.00  0.00    +0.000 C 
ATOM     22  C   UNL     1      -0.141  17.412  24.600  0.00  0.00    +0.000 C 
ATOM     23  C   UNL     1       0.259  16.507  23.438  0.00  0.00    +0.000 C 
ENDBRANCH   6  19
BRANCH  10  24
ATOM     24  C   UNL     1       0.835  10.069  18.829  0.00  0.00    +0.000 C 
BRANCH  24  25
ATOM     25  C   UNL     1       1.632   8.773  18.673  0.00  0.00    +0.000 A 
ATOM     26  C   UNL     1       2.472   8.576  17.575  0.00  0.00    +0.000 A 
ATOM     27  C   UNL     1       3.340   7.481  17.515  0.00  0.00    +0.000 A 
ATOM     28  C   UNL     1       3.404   6.565  18.575  0.00  0.00    +0.000 A 
ATOM     29  C   UNL     1       2.548   6.722  19.661  0.00  0.00    +0.000 A 
ATOM     30  C   UNL     1       1.657   7.802  19.704  0.00  0.00    +0.000 A 
ENDBRANCH  24  25
ENDBRANCH  10  24
TORSDOF 4
ENDMDL
MODEL 9
REMARK VINA RESULT:      -6.4      2.002      4.521
REMARK  Name = 
REMARK  5 active torsions:
REMARK  status: ('A' for Active; 'I' for Inactive)
REMARK    1  A    between atoms: C_1  and  C_2
REMARK    2  A    between atoms: C_5  and  C_6
REMARK    3  A    between atoms: N_11  and  C_12
REMARK    4  A    between atoms: N_20  and  C_21
REMARK    5  A    between atoms: C_21  and  C_22
REMARK                            x       y       z     vdW  Elec       q    Type
REMARK                         _______ _______ _______ _____ _____    ______ ____
ROOT
ATOM      1  C   UNL     1       1.320  11.653  19.967  0.00  0.00    +0.000 C 
ATOM      2  C   UNL     1       0.956  10.480  19.008  0.00  0.00    +0.000 C 
ATOM      3  N   UNL     1       1.396   9.116  19.456  0.00  0.00    +0.000 N 
ATOM      4  C   UNL     1       1.993   8.296  18.508  0.00  0.00    +0.000 C 
ATOM      5  O   UNL     1       2.203   8.666  17.350  0.00  0.00    +0.000 OA
ATOM      6  N   UNL     1       2.305   7.025  18.913  0.00  0.00    +0.000 N 
ATOM      7  C   UNL     1       0.749   8.570  20.641  0.00  0.00    +0.000 C 
ATOM      8  C   UNL     1       1.310   9.089  21.962  0.00  0.00    +0.000 C 
ATOM      9  C   UNL     1       1.574  10.594  22.122  0.00  0.00    +0.000 C 
ATOM     10  N   UNL     1       0.762  11.563  21.371  0.00  0.00    +0.000 NA
ATOM     11  H   UNL     1       2.490   6.889  19.891  0.00  0.00    +0.000 HD
ENDROOT
BRANCH   1  16
ATOM     12  C   UNL     1       1.636  16.584  18.862  0.00  0.00    +0.000 C 
ATOM     13  C   UNL     1       1.226  15.161  18.922  0.00  0.00    +0.000 A 
ATOM     14  N   UNL     1      -0.019  14.808  18.584  0.00  0.00    +0.000 NA
ATOM     15  N   UNL     1      -0.046  13.520  18.938  0.00  0.00    +0.000 N 
ATOM     16  C   UNL     1       1.173  13.065  19.376  0.00  0.00    +0.000 A 
ATOM     17  N   UNL     1       1.994  14.113  19.407  0.00  0.00    +0.000 NA
ATOM     18  H   UNL     1      -0.923  13.023  18.931  0.00  0.00    +0.000 HD
ENDBRANCH   1  16
BRANCH   6  19
ATOM     19  C   UNL     1       2.951   6.099  17.999  0.00  0.00    +0.000 C 
ATOM     20  C   UNL     1       4.256   5.530  18.547  0.00  0.00    +0.000 C 
ATOM     21  C   UNL     1       4.497   4.301  17.680  0.00  0.00    +0.000 C 
ATOM     22  C   UNL     1       3.110   3.796  17.280  0.00  0.00    +0.000 C 
ATOM     23  C   UNL     1       2.114   4.849  17.759  0.00  0.00    +0.000 C 
ENDBRANCH   6  19
BRANCH  10  24
ATOM     24  C   UNL     1      -0.690  11.306  21.498  0.00  0.00    +0.000 C 
BRANCH  24  25
ATOM     25  C   UNL     1      -1.491  12.305  22.335  0.00  0.00    +0.000 A 
ATOM     26  C   UNL     1      -2.782  12.001  22.773  0.00  0.00    +0.000 A 
ATOM     27  C   UNL     1      -3.449  12.823  23.686  0.00  0.00    +0.000 A 
ATOM     28  C   UNL     1      -2.822  13.965  24.205  0.00  0.00    +0.000 A 
ATOM     29  C   UNL     1      -1.550  14.306  23.754  0.00  0.00    +0.000 A 
ATOM     30  C   UNL     1      -0.897  13.498  22.814  0.00  0.00    +0.000 A 
ENDBRANCH  24  25
ENDBRANCH  10  24
TORSDOF 4
ENDMDL
