MODEL 1
REMARK VINA RESULT:      -8.0      0.000      0.000
REMARK  Name = 
REMARK  9 active torsions:
REMARK  status: ('A' for Active; 'I' for Inactive)
REMARK    1  A    between atoms: C_1  and  C_2
REMARK    2  A    between atoms: C_2  and  C_3
REMARK    3  A    between atoms: C_3  and  N_4
REMARK    4  A    between atoms: N_4  and  C_5
REMARK    5  A    between atoms: C_5  and  C_6
REMARK    6  A    between atoms: C_7  and  C_8
REMARK    7  A    between atoms: C_8  and  O_9
REMARK    8  A    between atoms: C_8  and  C_10
REMARK    9  A    between atoms: C_8  and  C_16
REMARK                            x       y       z     vdW  Elec       q    Type
REMARK                         _______ _______ _______ _____ _____    ______ ____
ROOT
ATOM      1  C   UNL     1       2.936   5.633  18.307  0.00  0.00    +0.000 C 
ENDROOT
BRANCH   1   2
ATOM      2  C   UNL     1       4.170   5.495  17.404  0.00  0.00    +0.000 A 
ATOM      3  C   UNL     1       4.317   4.394  16.535  0.00  0.00    +0.000 A 
ATOM      4  C   UNL     1       5.489   4.208  15.797  0.00  0.00    +0.000 A 
ATOM      5  C   UNL     1       6.533   5.125  15.895  0.00  0.00    +0.000 A 
ATOM      6  C   UNL     1       6.392   6.246  16.703  0.00  0.00    +0.000 A 
ATOM      7  C   UNL     1       5.220   6.437  17.439  0.00  0.00    +0.000 A 
ENDBRANCH   1   2
BRANCH   1   8
ATOM      8  C   UNL     1       3.155   5.140  19.792  0.00  0.00    +0.000 C 
ATOM      9  C   UNL     1       1.868   5.171  20.658  0.00  0.00    +0.000 C 
ATOM     10  C   UNL     1       0.858   4.076  20.319  0.00  0.00    +0.000 C 
ATOM     11  C   UNL     1       1.480   2.683  20.245  0.00  0.00    +0.000 C 
ATOM     12  C   UNL     1       2.810   2.630  19.493  0.00  0.00    +0.000 C 
ATOM     13  C   UNL     1       3.760   3.733  19.943  0.00  0.00    +0.000 C 
ENDBRANCH   1   8
BRANCH   1  15
ATOM     14  C   UNL     1       2.120   8.196  18.303  0.00  0.00    +0.000 C 
ATOM     15  C   UNL     1       2.520   7.065  18.362  0.00  0.00    +0.000 C 
BRANCH  14  16
ATOM     16  C   UNL     1       1.549   9.532  18.143  0.00  0.00    +0.000 C 
BRANCH  16  17
ATOM     17  N   UNL     1       0.754   9.964  19.399  0.00  0.00    +0.000 N 
ATOM     18  C   UNL     1      -0.775   9.859  19.171  0.00  0.00    +0.000 C 
ATOM     19  C   UNL     1      -1.277  10.857  18.136  0.00  0.00    +0.000 C 
ATOM     20  C   UNL     1      -0.931  12.281  18.541  0.00  0.00    +0.000 C 
ATOM     21  C   UNL     1       0.566  12.428  18.761  0.00  0.00    +0.000 C 
ATOM     22  C   UNL     1       1.105  11.417  19.770  0.00  0.00    +0.000 C 
BRANCH  17  23
ATOM     23  C   UNL     1       1.082   9.026  20.602  0.00  0.00    +0.000 C 
BRANCH  23  25
ATOM     24  C   UNL     1      -0.033   9.459  22.819  0.00  0.00    +0.000 C 
ATOM     25  C   UNL     1      -0.122   8.713  21.493  0.00  0.00    +0.000 C 
ENDBRANCH  23  25
ENDBRANCH  17  23
ENDBRANCH  16  17
ENDBRANCH  14  16
ENDBRANCH   1  15
BRANCH   1  26
ATOM     26  O   UNL     1       1.832   4.955  17.717  0.00  0.00    +0.000 OA
ATOM     27  H   UNL     1       2.098   4.699  16.818  0.00  0.00    +0.000 HD
ENDBRANCH   1  26
TORSDOF 8
ENDMDL
MODEL 2
REMARK VINA RESULT:      -8.0      1.108      3.726
REMARK  Name = 
REMARK  9 active torsions:
REMARK  status: ('A' for Active; 'I' for Inactive)
REMARK    1  A    between atoms: C_1  and  C_2
REMARK    2  A    between atoms: C_2  and  C_3
REMARK    3  A    between atoms: C_3  and  N_4
REMARK    4  A    between atoms: N_4  and  C_5
REMARK    5  A    between atoms: C_5  and  C_6
REMARK    6  A    between atoms: C_7  and  C_8
REMARK    7  A    between atoms: C_8  and  O_9
REMARK    8  A    between atoms: C_8  and  C_10
REMARK    9  A    between atoms: C_8  and  C_16
REMARK                            x       y       z     vdW  Elec       q    Type
REMARK                         _______ _______ _______ _____ _____    ______ ____
ROOT
ATOM      1  C   UNL     1       3.456   5.869  18.586  0.00  0.00    +0.000 C 
ENDROOT
BRANCH   1   2
ATOM      2  C   UNL     1       2.427   4.821  19.032  0.00  0.00    +0.000 A 
ATOM      3  C   UNL     1       2.109   4.646  20.395  0.00  0.00    +0.000 A 
ATOM      4  C   UNL     1       1.259   3.618  20.812  0.00  0.00    +0.000 A 
ATOM      5  C   UNL     1       0.692   2.755  19.878  0.00  0.00    +0.000 A 
ATOM      6  C   UNL     1       0.945   2.939  18.525  0.00  0.00    +0.000 A 
ATOM      7  C   UNL     1       1.792   3.969  18.104  0.00  0.00    +0.000 A 
ENDBRANCH   1   2
BRANCH   1   8
ATOM      8  C   UNL     1       4.125   5.573  17.186  0.00  0.00    +0.000 C 
ATOM      9  C   UNL     1       4.894   6.782  16.590  0.00  0.00    +0.000 C 
ATOM     10  C   UNL     1       6.218   7.088  17.289  0.00  0.00    +0.000 C 
ATOM     11  C   UNL     1       7.106   5.858  17.464  0.00  0.00    +0.000 C 
ATOM     12  C   UNL     1       6.363   4.612  17.944  0.00  0.00    +0.000 C 
ATOM     13  C   UNL     1       5.086   4.372  17.149  0.00  0.00    +0.000 C 
ENDBRANCH   1   8
BRANCH   1  15
ATOM     14  C   UNL     1       2.197   8.234  18.344  0.00  0.00    +0.000 C 
ATOM     15  C   UNL     1       2.798   7.205  18.500  0.00  0.00    +0.000 C 
BRANCH  14  16
ATOM     16  C   UNL     1       1.379   9.416  18.084  0.00  0.00    +0.000 C 
BRANCH  16  17
ATOM     17  N   UNL     1       0.704   9.936  19.376  0.00  0.00    +0.000 N 
ATOM     18  C   UNL     1      -0.838   9.975  19.239  0.00  0.00    +0.000 C 
ATOM     19  C   UNL     1      -1.305  11.005  18.219  0.00  0.00    +0.000 C 
ATOM     20  C   UNL     1      -0.801  12.394  18.581  0.00  0.00    +0.000 C 
ATOM     21  C   UNL     1       0.713  12.400  18.711  0.00  0.00    +0.000 C 
ATOM     22  C   UNL     1       1.213  11.352  19.703  0.00  0.00    +0.000 C 
BRANCH  17  23
ATOM     23  C   UNL     1       1.013   8.983  20.573  0.00  0.00    +0.000 C 
BRANCH  23  25
ATOM     24  C   UNL     1       0.012   9.468  22.833  0.00  0.00    +0.000 C 
ATOM     25  C   UNL     1      -0.179   8.748  21.504  0.00  0.00    +0.000 C 
ENDBRANCH  23  25
ENDBRANCH  17  23
ENDBRANCH  16  17
ENDBRANCH  14  16
ENDBRANCH   1  15
BRANCH   1  26
ATOM     26  O   UNL     1       4.455   6.018  19.591  0.00  0.00    +0.000 OA
ATOM     27  H   UNL     1       5.291   5.696  19.217  0.00  0.00    +0.000 HD
ENDBRANCH   1  26
TORSDOF 8
ENDMDL
MODEL 3
REMARK VINA RESULT:      -7.8      2.230      6.912
REMARK  Name = 
REMARK  9 active torsions:
REMARK  status: ('A' for Active; 'I' for Inactive)
REMARK    1  A    between atoms: C_1  and  C_2
REMARK    2  A    between atoms: C_2  and  C_3
REMARK    3  A    between atoms: C_3  and  N_4
REMARK    4  A    between atoms: N_4  and  C_5
REMARK    5  A    between atoms: C_5  and  C_6
REMARK    6  A    between atoms: C_7  and  C_8
REMARK    7  A    between atoms: C_8  and  O_9
REMARK    8  A    between atoms: C_8  and  C_10
REMARK    9  A    between atoms: C_8  and  C_16
REMARK                            x       y       z     vdW  Elec       q    Type
REMARK                         _______ _______ _______ _____ _____    ______ ____
ROOT
ATOM      1  C   UNL     1       2.666   6.202  19.153  0.00  0.00    +0.000 C 
ENDROOT
BRANCH   1   2
ATOM      2  C   UNL     1       2.046   7.584  19.403  0.00  0.00    +0.000 A 
ATOM      3  C   UNL     1       1.561   7.944  20.677  0.00  0.00    +0.000 A 
ATOM      4  C   UNL     1       0.894   9.156  20.879  0.00  0.00    +0.000 A 
ATOM      5  C   UNL     1       0.715  10.043  19.821  0.00  0.00    +0.000 A 
ATOM      6  C   UNL     1       1.230   9.736  18.568  0.00  0.00    +0.000 A 
ATOM      7  C   UNL     1       1.901   8.526  18.363  0.00  0.00    +0.000 A 
ENDBRANCH   1   2
BRANCH   1   8
ATOM      8  C   UNL     1       1.614   5.047  18.916  0.00  0.00    +0.000 C 
ATOM      9  C   UNL     1       2.128   3.912  17.990  0.00  0.00    +0.000 C 
ATOM     10  C   UNL     1       3.164   2.995  18.638  0.00  0.00    +0.000 C 
ATOM     11  C   UNL     1       2.739   2.482  20.012  0.00  0.00    +0.000 C 
ATOM     12  C   UNL     1       2.124   3.549  20.917  0.00  0.00    +0.000 C 
ATOM     13  C   UNL     1       1.070   4.372  20.187  0.00  0.00    +0.000 C 
ENDBRANCH   1   8
BRANCH   1  15
ATOM     14  C   UNL     1       4.347   6.266  17.054  0.00  0.00    +0.000 C 
ATOM     15  C   UNL     1       3.549   6.265  17.951  0.00  0.00    +0.000 C 
BRANCH  14  16
ATOM     16  C   UNL     1       5.393   6.191  16.036  0.00  0.00    +0.000 C 
BRANCH  16  17
ATOM     17  N   UNL     1       6.135   4.833  16.082  0.00  0.00    +0.000 N 
ATOM     18  C   UNL     1       7.506   4.906  15.364  0.00  0.00    +0.000 C 
ATOM     19  C   UNL     1       7.364   5.123  13.864  0.00  0.00    +0.000 C 
ATOM     20  C   UNL     1       6.529   4.020  13.232  0.00  0.00    +0.000 C 
ATOM     21  C   UNL     1       5.168   3.925  13.902  0.00  0.00    +0.000 C 
ATOM     22  C   UNL     1       5.278   3.742  15.414  0.00  0.00    +0.000 C 
BRANCH  17  23
ATOM     23  C   UNL     1       6.436   4.427  17.559  0.00  0.00    +0.000 C 
BRANCH  23  25
ATOM     24  C   UNL     1       7.765   6.051  18.953  0.00  0.00    +0.000 C 
ATOM     25  C   UNL     1       7.831   4.830  18.044  0.00  0.00    +0.000 C 
ENDBRANCH  23  25
ENDBRANCH  17  23
ENDBRANCH  16  17
ENDBRANCH  14  16
ENDBRANCH   1  15
BRANCH   1  26
ATOM     26  O   UNL     1       3.538   5.866  20.228  0.00  0.00    +0.000 OA
ATOM     27  H   UNL     1       4.081   5.116  19.936  0.00  0.00    +0.000 HD
ENDBRANCH   1  26
TORSDOF 8
ENDMDL
MODEL 4
REMARK VINA RESULT:      -7.7      2.250      6.420
REMARK  Name = 
REMARK  9 active torsions:
REMARK  status: ('A' for Active; 'I' for Inactive)
REMARK    1  A    between atoms: C_1  and  C_2
REMARK    2  A    between atoms: C_2  and  C_3
REMARK    3  A    between atoms: C_3  and  N_4
REMARK    4  A    between atoms: N_4  and  C_5
REMARK    5  A    between atoms: C_5  and  C_6
REMARK    6  A    between atoms: C_7  and  C_8
REMARK    7  A    between atoms: C_8  and  O_9
REMARK    8  A    between atoms: C_8  and  C_10
REMARK    9  A    between atoms: C_8  and  C_16
REMARK                            x       y       z     vdW  Elec       q    Type
REMARK                         _______ _______ _______ _____ _____    ______ ____
ROOT
ATOM      1  C   UNL     1       2.493   5.785  19.883  0.00  0.00    +0.000 C 
ENDROOT
BRANCH   1   2
ATOM      2  C   UNL     1       2.091   7.238  19.589  0.00  0.00    +0.000 A 
ATOM      3  C   UNL     1       1.451   8.029  20.565  0.00  0.00    +0.000 A 
ATOM      4  C   UNL     1       0.984   9.311  20.263  0.00  0.00    +0.000 A 
ATOM      5  C   UNL     1       1.163   9.840  18.988  0.00  0.00    +0.000 A 
ATOM      6  C   UNL     1       1.839   9.104  18.024  0.00  0.00    +0.000 A 
ATOM      7  C   UNL     1       2.311   7.822  18.323  0.00  0.00    +0.000 A 
ENDBRANCH   1   2
BRANCH   1   8
ATOM      8  C   UNL     1       1.627   4.703  19.125  0.00  0.00    +0.000 C 
ATOM      9  C   UNL     1       2.471   3.618  18.404  0.00  0.00    +0.000 C 
ATOM     10  C   UNL     1       3.126   2.607  19.344  0.00  0.00    +0.000 C 
ATOM     11  C   UNL     1       2.155   2.012  20.361  0.00  0.00    +0.000 C 
ATOM     12  C   UNL     1       1.226   3.037  21.014  0.00  0.00    +0.000 C 
ATOM     13  C   UNL     1       0.589   3.961  19.985  0.00  0.00    +0.000 C 
ENDBRANCH   1   8
BRANCH   1  15
ATOM     14  C   UNL     1       5.034   5.298  19.148  0.00  0.00    +0.000 C 
ATOM     15  C   UNL     1       3.919   5.577  19.497  0.00  0.00    +0.000 C 
BRANCH  14  16
ATOM     16  C   UNL     1       6.339   4.855  18.662  0.00  0.00    +0.000 C 
BRANCH  16  17
ATOM     17  N   UNL     1       6.887   5.799  17.565  0.00  0.00    +0.000 N 
ATOM     18  C   UNL     1       5.748   6.578  16.861  0.00  0.00    +0.000 C 
ATOM     19  C   UNL     1       4.838   5.666  16.049  0.00  0.00    +0.000 C 
ATOM     20  C   UNL     1       5.631   4.894  15.007  0.00  0.00    +0.000 C 
ATOM     21  C   UNL     1       6.753   4.104  15.662  0.00  0.00    +0.000 C 
ATOM     22  C   UNL     1       7.663   4.988  16.512  0.00  0.00    +0.000 C 
BRANCH  17  23
ATOM     23  C   UNL     1       7.829   6.874  18.192  0.00  0.00    +0.000 C 
BRANCH  23  25
ATOM     24  C   UNL     1       8.552   9.285  18.306  0.00  0.00    +0.000 C 
ATOM     25  C   UNL     1       7.656   8.275  17.600  0.00  0.00    +0.000 C 
ENDBRANCH  23  25
ENDBRANCH  17  23
ENDBRANCH  16  17
ENDBRANCH  14  16
ENDBRANCH   1  15
BRANCH   1  26
ATOM     26  O   UNL     1       2.458   5.554  21.288  0.00  0.00    +0.000 OA
ATOM     27  H   UNL     1       3.366   5.360  21.571  0.00  0.00    +0.000 HD
ENDBRANCH   1  26
TORSDOF 8
ENDMDL
MODEL 5
REMARK VINA RESULT:      -7.6      0.789      2.100
REMARK  Name = 
REMARK  9 active torsions:
REMARK  status: ('A' for Active; 'I' for Inactive)
REMARK    1  A    between atoms: C_1  and  C_2
REMARK    2  A    between atoms: C_2  and  C_3
REMARK    3  A    between atoms: C_3  and  N_4
REMARK    4  A    between atoms: N_4  and  C_5
REMARK    5  A    between atoms: C_5  and  C_6
REMARK    6  A    between atoms: C_7  and  C_8
REMARK    7  A    between atoms: C_8  and  O_9
REMARK    8  A    between atoms: C_8  and  C_10
REMARK    9  A    between atoms: C_8  and  C_16
REMARK                            x       y       z     vdW  Elec       q    Type
REMARK                         _______ _______ _______ _____ _____    ______ ____
ROOT
ATOM      1  C   UNL     1       2.827   5.659  18.274  0.00  0.00    +0.000 C 
ENDROOT
BRANCH   1   2
ATOM      2  C   UNL     1       4.083   5.520  17.400  0.00  0.00    +0.000 A 
ATOM      3  C   UNL     1       4.260   4.409  16.550  0.00  0.00    +0.000 A 
ATOM      4  C   UNL     1       5.451   4.225  15.842  0.00  0.00    +0.000 A 
ATOM      5  C   UNL     1       6.482   5.155  15.949  0.00  0.00    +0.000 A 
ATOM      6  C   UNL     1       6.312   6.286  16.737  0.00  0.00    +0.000 A 
ATOM      7  C   UNL     1       5.121   6.475  17.444  0.00  0.00    +0.000 A 
ENDBRANCH   1   2
BRANCH   1   8
ATOM      8  C   UNL     1       3.042   5.274  19.791  0.00  0.00    +0.000 C 
ATOM      9  C   UNL     1       1.726   5.198  20.610  0.00  0.00    +0.000 C 
ATOM     10  C   UNL     1       0.865   3.975  20.301  0.00  0.00    +0.000 C 
ATOM     11  C   UNL     1       1.648   2.664  20.328  0.00  0.00    +0.000 C 
ATOM     12  C   UNL     1       3.004   2.729  19.626  0.00  0.00    +0.000 C 
ATOM     13  C   UNL     1       3.800   3.960  20.043  0.00  0.00    +0.000 C 
ENDBRANCH   1   8
BRANCH   1  15
ATOM     14  C   UNL     1       2.071   8.239  18.207  0.00  0.00    +0.000 C 
ATOM     15  C   UNL     1       2.344   7.069  18.227  0.00  0.00    +0.000 C 
BRANCH  14  16
ATOM     16  C   UNL     1       1.867   9.686  18.174  0.00  0.00    +0.000 C 
BRANCH  16  17
ATOM     17  N   UNL     1       0.429  10.066  18.602  0.00  0.00    +0.000 N 
ATOM     18  C   UNL     1       0.260  11.601  18.734  0.00  0.00    +0.000 C 
ATOM     19  C   UNL     1       1.080  12.179  19.880  0.00  0.00    +0.000 C 
ATOM     20  C   UNL     1       0.708  11.521  21.200  0.00  0.00    +0.000 C 
ATOM     21  C   UNL     1       0.874  10.013  21.115  0.00  0.00    +0.000 C 
ATOM     22  C   UNL     1       0.090   9.409  19.952  0.00  0.00    +0.000 C 
BRANCH  17  23
ATOM     23  C   UNL     1      -0.601   9.604  17.524  0.00  0.00    +0.000 C 
BRANCH  23  25
ATOM     24  C   UNL     1      -3.119   9.631  17.604  0.00  0.00    +0.000 C 
ATOM     25  C   UNL     1      -1.859  10.474  17.452  0.00  0.00    +0.000 C 
ENDBRANCH  23  25
ENDBRANCH  17  23
ENDBRANCH  16  17
ENDBRANCH  14  16
ENDBRANCH   1  15
BRANCH   1  26
ATOM     26  O   UNL     1       1.767   4.891  17.713  0.00  0.00    +0.000 OA
ATOM     27  H   UNL     1       1.773   4.026  18.154  0.00  0.00    +0.000 HD
ENDBRANCH   1  26
TORSDOF 8
ENDMDL
MODEL 6
REMARK VINA RESULT:      -7.5      1.379      4.302
REMARK  Name = 
REMARK  9 active torsions:
REMARK  status: ('A' for Active; 'I' for Inactive)
REMARK    1  A    between atoms: C_1  and  C_2
REMARK    2  A    between atoms: C_2  and  C_3
REMARK    3  A    between atoms: C_3  and  N_4
REMARK    4  A    between atoms: N_4  and  C_5
REMARK    5  A    between atoms: C_5  and  C_6
REMARK    6  A    between atoms: C_7  and  C_8
REMARK    7  A    between atoms: C_8  and  O_9
REMARK    8  A    between atoms: C_8  and  C_10
REMARK    9  A    between atoms: C_8  and  C_16
REMARK                            x       y       z     vdW  Elec       q    Type
REMARK                         _______ _______ _______ _____ _____    ______ ____
ROOT
ATOM      1  C   UNL     1       3.420   6.003  18.501  0.00  0.00    +0.000 C 
ENDROOT
BRANCH   1   2
ATOM      2  C   UNL     1       2.394   4.965  18.978  0.00  0.00    +0.000 A 
ATOM      3  C   UNL     1       2.113   4.797  20.350  0.00  0.00    +0.000 A 
ATOM      4  C   UNL     1       1.265   3.778  20.793  0.00  0.00    +0.000 A 
ATOM      5  C   UNL     1       0.663   2.918  19.878  0.00  0.00    +0.000 A 
ATOM      6  C   UNL     1       0.880   3.097  18.518  0.00  0.00    +0.000 A 
ATOM      7  C   UNL     1       1.724   4.118  18.071  0.00  0.00    +0.000 A 
ENDBRANCH   1   2
BRANCH   1   8
ATOM      8  C   UNL     1       4.148   5.627  17.149  0.00  0.00    +0.000 C 
ATOM      9  C   UNL     1       4.989   6.784  16.548  0.00  0.00    +0.000 C 
ATOM     10  C   UNL     1       6.286   7.073  17.302  0.00  0.00    +0.000 C 
ATOM     11  C   UNL     1       7.119   5.822  17.570  0.00  0.00    +0.000 C 
ATOM     12  C   UNL     1       6.308   4.622  18.060  0.00  0.00    +0.000 C 
ATOM     13  C   UNL     1       5.065   4.393  17.209  0.00  0.00    +0.000 C 
ENDBRANCH   1   8
BRANCH   1  15
ATOM     14  C   UNL     1       2.298   8.426  18.180  0.00  0.00    +0.000 C 
ATOM     15  C   UNL     1       2.741   7.316  18.300  0.00  0.00    +0.000 C 
BRANCH  14  16
ATOM     16  C   UNL     1       1.879   9.820  18.050  0.00  0.00    +0.000 C 
BRANCH  16  17
ATOM     17  N   UNL     1       0.435  10.031  18.566  0.00  0.00    +0.000 N 
ATOM     18  C   UNL     1       0.073  11.534  18.651  0.00  0.00    +0.000 C 
ATOM     19  C   UNL     1       0.883  12.268  19.712  0.00  0.00    +0.000 C 
ATOM     20  C   UNL     1       0.690  11.631  21.079  0.00  0.00    +0.000 C 
ATOM     21  C   UNL     1       1.050  10.154  21.040  0.00  0.00    +0.000 C 
ATOM     22  C   UNL     1       0.277   9.399  19.961  0.00  0.00    +0.000 C 
BRANCH  17  23
ATOM     23  C   UNL     1      -0.593   9.388  17.583  0.00  0.00    +0.000 C 
BRANCH  23  25
ATOM     24  C   UNL     1      -2.578  10.057  16.184  0.00  0.00    +0.000 C 
ATOM     25  C   UNL     1      -1.961  10.076  17.576  0.00  0.00    +0.000 C 
ENDBRANCH  23  25
ENDBRANCH  17  23
ENDBRANCH  16  17
ENDBRANCH  14  16
ENDBRANCH   1  15
BRANCH   1  26
ATOM     26  O   UNL     1       4.376   6.240  19.529  0.00  0.00    +0.000 OA
ATOM     27  H   UNL     1       5.096   6.762  19.140  0.00  0.00    +0.000 HD
ENDBRANCH   1  26
TORSDOF 8
ENDMDL
MODEL 7
REMARK VINA RESULT:      -7.5      2.264      6.362
REMARK  Name = 
REMARK  9 active torsions:
REMARK  status: ('A' for Active; 'I' for Inactive)
REMARK    1  A    between atoms: C_1  and  C_2
REMARK    2  A    between atoms: C_2  and  C_3
REMARK    3  A    between atoms: C_3  and  N_4
REMARK    4  A    between atoms: N_4  and  C_5
REMARK    5  A    between atoms: C_5  and  C_6
REMARK    6  A    between atoms: C_7  and  C_8
REMARK    7  A    between atoms: C_8  and  O_9
REMARK    8  A    between atoms: C_8  and  C_10
REMARK    9  A    between atoms: C_8  and  C_16
REMARK                            x       y       z     vdW  Elec       q    Type
REMARK                         _______ _______ _______ _____ _____    ______ ____
ROOT
ATOM      1  C   UNL     1       2.586   5.626  19.875  0.00  0.00    +0.000 C 
ENDROOT
BRANCH   1   2
ATOM      2  C   UNL     1       2.082   7.030  19.508  0.00  0.00    +0.000 A 
ATOM      3  C   UNL     1       2.236   7.541  18.203  0.00  0.00    +0.000 A 
ATOM      4  C   UNL     1       1.881   8.858  17.897  0.00  0.00    +0.000 A 
ATOM      5  C   UNL     1       1.346   9.686  18.880  0.00  0.00    +0.000 A 
ATOM      6  C   UNL     1       1.133   9.191  20.159  0.00  0.00    +0.000 A 
ATOM      7  C   UNL     1       1.484   7.873  20.468  0.00  0.00    +0.000 A 
ENDBRANCH   1   2
BRANCH   1   8
ATOM      8  C   UNL     1       1.788   4.446  19.190  0.00  0.00    +0.000 C 
ATOM      9  C   UNL     1       2.691   3.290  18.685  0.00  0.00    +0.000 C 
ATOM     10  C   UNL     1       3.267   2.413  19.795  0.00  0.00    +0.000 C 
ATOM     11  C   UNL     1       2.215   1.939  20.795  0.00  0.00    +0.000 C 
ATOM     12  C   UNL     1       1.234   3.026  21.235  0.00  0.00    +0.000 C 
ATOM     13  C   UNL     1       0.683   3.806  20.048  0.00  0.00    +0.000 C 
ENDBRANCH   1   8
BRANCH   1  15
ATOM     14  C   UNL     1       5.135   5.410  19.045  0.00  0.00    +0.000 C 
ATOM     15  C   UNL     1       4.018   5.495  19.479  0.00  0.00    +0.000 C 
BRANCH  14  16
ATOM     16  C   UNL     1       6.448   5.357  18.405  0.00  0.00    +0.000 C 
BRANCH  16  17
ATOM     17  N   UNL     1       6.458   6.127  17.063  0.00  0.00    +0.000 N 
ATOM     18  C   UNL     1       5.064   6.116  16.388  0.00  0.00    +0.000 C 
ATOM     19  C   UNL     1       4.650   4.722  15.934  0.00  0.00    +0.000 C 
ATOM     20  C   UNL     1       5.673   4.138  14.973  0.00  0.00    +0.000 C 
ATOM     21  C   UNL     1       7.056   4.119  15.605  0.00  0.00    +0.000 C 
ATOM     22  C   UNL     1       7.484   5.498  16.102  0.00  0.00    +0.000 C 
BRANCH  17  23
ATOM     23  C   UNL     1       6.818   7.628  17.299  0.00  0.00    +0.000 C 
BRANCH  23  25
ATOM     24  C   UNL     1       8.449   9.321  18.203  0.00  0.00    +0.000 C 
ATOM     25  C   UNL     1       8.095   7.842  18.115  0.00  0.00    +0.000 C 
ENDBRANCH  23  25
ENDBRANCH  17  23
ENDBRANCH  16  17
ENDBRANCH  14  16
ENDBRANCH   1  15
BRANCH   1  26
ATOM     26  O   UNL     1       2.583   5.471  21.290  0.00  0.00    +0.000 OA
ATOM     27  H   UNL     1       3.192   4.745  21.502  0.00  0.00    +0.000 HD
ENDBRANCH   1  26
TORSDOF 8
ENDMDL
MODEL 8
REMARK VINA RESULT:      -7.3      2.191      6.698
REMARK  Name = 
REMARK  9 active torsions:
REMARK  status: ('A' for Active; 'I' for Inactive)
REMARK    1  A    between atoms: C_1  and  C_2
REMARK    2  A    between atoms: C_2  and  C_3
REMARK    3  A    between atoms: C_3  and  N_4
REMARK    4  A    between atoms: N_4  and  C_5
REMARK    5  A    between atoms: C_5  and  C_6
REMARK    6  A    between atoms: C_7  and  C_8
REMARK    7  A    between atoms: C_8  and  O_9
REMARK    8  A    between atoms: C_8  and  C_10
REMARK    9  A    between atoms: C_8  and  C_16
REMARK                            x       y       z     vdW  Elec       q    Type
REMARK                         _______ _______ _______ _____ _____    ______ ____
ROOT
ATOM      1  C   UNL     1       2.502   6.108  19.404  0.00  0.00    +0.000 C 
ENDROOT
BRANCH   1   2
ATOM      2  C   UNL     1       1.849   7.464  19.708  0.00  0.00    +0.000 A 
ATOM      3  C   UNL     1       1.654   8.422  18.692  0.00  0.00    +0.000 A 
ATOM      4  C   UNL     1       1.166   9.698  18.988  0.00  0.00    +0.000 A 
ATOM      5  C   UNL     1       0.842  10.039  20.298  0.00  0.00    +0.000 A 
ATOM      6  C   UNL     1       0.973   9.096  21.309  0.00  0.00    +0.000 A 
ATOM      7  C   UNL     1       1.458   7.818  21.017  0.00  0.00    +0.000 A 
ENDBRANCH   1   2
BRANCH   1   8
ATOM      8  C   UNL     1       1.479   4.950  19.074  0.00  0.00    +0.000 C 
ATOM      9  C   UNL     1       2.076   3.818  18.197  0.00  0.00    +0.000 C 
ATOM     10  C   UNL     1       3.053   2.903  18.933  0.00  0.00    +0.000 C 
ATOM     11  C   UNL     1       2.509   2.388  20.264  0.00  0.00    +0.000 C 
ATOM     12  C   UNL     1       1.813   3.453  21.112  0.00  0.00    +0.000 C 
ATOM     13  C   UNL     1       0.826   4.273  20.292  0.00  0.00    +0.000 C 
ENDBRANCH   1   8
BRANCH   1  15
ATOM     14  C   UNL     1       4.218   6.448  17.361  0.00  0.00    +0.000 C 
ATOM     15  C   UNL     1       3.419   6.250  18.236  0.00  0.00    +0.000 C 
BRANCH  14  16
ATOM     16  C   UNL     1       5.261   6.753  16.384  0.00  0.00    +0.000 C 
BRANCH  16  17
ATOM     17  N   UNL     1       6.517   5.875  16.601  0.00  0.00    +0.000 N 
ATOM     18  C   UNL     1       7.310   5.676  15.285  0.00  0.00    +0.000 C 
ATOM     19  C   UNL     1       6.538   4.853  14.262  0.00  0.00    +0.000 C 
ATOM     20  C   UNL     1       6.165   3.492  14.829  0.00  0.00    +0.000 C 
ATOM     21  C   UNL     1       5.373   3.646  16.117  0.00  0.00    +0.000 C 
ATOM     22  C   UNL     1       6.108   4.496  17.151  0.00  0.00    +0.000 C 
BRANCH  17  23
ATOM     23  C   UNL     1       7.498   6.564  17.601  0.00  0.00    +0.000 C 
BRANCH  23  25
ATOM     24  C   UNL     1       8.555   8.690  18.444  0.00  0.00    +0.000 C 
ATOM     25  C   UNL     1       7.525   8.091  17.494  0.00  0.00    +0.000 C 
ENDBRANCH  23  25
ENDBRANCH  17  23
ENDBRANCH  16  17
ENDBRANCH  14  16
ENDBRANCH   1  15
BRANCH   1  26
ATOM     26  O   UNL     1       3.347   5.730  20.487  0.00  0.00    +0.000 OA
ATOM     27  H   UNL     1       4.029   5.139  20.128  0.00  0.00    +0.000 HD
ENDBRANCH   1  26
TORSDOF 8
ENDMDL
MODEL 9
REMARK VINA RESULT:      -7.3      2.292      6.874
REMARK  Name = 
REMARK  9 active torsions:
REMARK  status: ('A' for Active; 'I' for Inactive)
REMARK    1  A    between atoms: C_1  and  C_2
REMARK    2  A    between atoms: C_2  and  C_3
REMARK    3  A    between atoms: C_3  and  N_4
REMARK    4  A    between atoms: N_4  and  C_5
REMARK    5  A    between atoms: C_5  and  C_6
REMARK    6  A    between atoms: C_7  and  C_8
REMARK    7  A    between atoms: C_8  and  O_9
REMARK    8  A    between atoms: C_8  and  C_10
REMARK    9  A    between atoms: C_8  and  C_16
REMARK                            x       y       z     vdW  Elec       q    Type
REMARK                         _______ _______ _______ _____ _____    ______ ____
ROOT
ATOM      1  C   UNL     1       3.000   6.140  18.915  0.00  0.00    +0.000 C 
ENDROOT
BRANCH   1   2
ATOM      2  C   UNL     1       2.175   7.411  19.169  0.00  0.00    +0.000 A 
ATOM      3  C   UNL     1       1.862   8.298  18.119  0.00  0.00    +0.000 A 
ATOM      4  C   UNL     1       1.211   9.510  18.368  0.00  0.00    +0.000 A 
ATOM      5  C   UNL     1       0.840   9.853  19.666  0.00  0.00    +0.000 A 
ATOM      6  C   UNL     1       1.088   8.971  20.710  0.00  0.00    +0.000 A 
ATOM      7  C   UNL     1       1.736   7.757  20.464  0.00  0.00    +0.000 A 
ENDBRANCH   1   2
BRANCH   1   8
ATOM      8  C   UNL     1       2.137   4.851  18.615  0.00  0.00    +0.000 C 
ATOM      9  C   UNL     1       2.984   3.587  18.310  0.00  0.00    +0.000 C 
ATOM     10  C   UNL     1       3.673   2.985  19.534  0.00  0.00    +0.000 C 
ATOM     11  C   UNL     1       2.731   2.786  20.719  0.00  0.00    +0.000 C 
ATOM     12  C   UNL     1       1.799   3.969  20.984  0.00  0.00    +0.000 C 
ATOM     13  C   UNL     1       1.127   4.458  19.707  0.00  0.00    +0.000 C 
ENDBRANCH   1   8
BRANCH   1  15
ATOM     14  C   UNL     1       4.618   6.421  16.785  0.00  0.00    +0.000 C 
ATOM     15  C   UNL     1       3.904   6.362  17.749  0.00  0.00    +0.000 C 
BRANCH  14  16
ATOM     16  C   UNL     1       5.443   6.375  15.579  0.00  0.00    +0.000 C 
BRANCH  16  17
ATOM     17  N   UNL     1       6.559   5.310  15.695  0.00  0.00    +0.000 N 
ATOM     18  C   UNL     1       7.499   5.331  14.463  0.00  0.00    +0.000 C 
ATOM     19  C   UNL     1       6.792   4.892  13.187  0.00  0.00    +0.000 C 
ATOM     20  C   UNL     1       6.207   3.498  13.342  0.00  0.00    +0.000 C 
ATOM     21  C   UNL     1       5.267   3.439  14.535  0.00  0.00    +0.000 C 
ATOM     22  C   UNL     1       5.938   3.907  15.824  0.00  0.00    +0.000 C 
BRANCH  17  23
ATOM     23  C   UNL     1       7.461   5.597  16.936  0.00  0.00    +0.000 C 
BRANCH  23  25
ATOM     24  C   UNL     1       7.284   5.453  19.445  0.00  0.00    +0.000 C 
ATOM     25  C   UNL     1       7.180   4.685  18.133  0.00  0.00    +0.000 C 
ENDBRANCH  23  25
ENDBRANCH  17  23
ENDBRANCH  16  17
ENDBRANCH  14  16
ENDBRANCH   1  15
BRANCH   1  26
ATOM     26  O   UNL     1       3.873   5.908  20.015  0.00  0.00    +0.000 OA
ATOM     27  H   UNL     1       3.694   5.011  20.341  0.00  0.00    +0.000 HD
ENDBRANCH   1  26
TORSDOF 8
ENDMDL
