MODEL 1
REMARK VINA RESULT:      -9.0      0.000      0.000
REMARK  Name = 
REMARK  8 active torsions:
REMARK  status: ('A' for Active; 'I' for Inactive)
REMARK    1  A    between atoms: C_2  and  C_3
REMARK    2  A    between atoms: C_3  and  C_4
REMARK    3  A    between atoms: C_4  and  N_5
REMARK    4  A    between atoms: C_4  and  C_12
REMARK    5  A    between atoms: C_6  and  C_8
REMARK    6  A    between atoms: C_22  and  C_23
REMARK    7  A    between atoms: C_23  and  C_24
REMARK    8  A    between atoms: C_24  and  C_25
REMARK                            x       y       z     vdW  Elec       q    Type
REMARK                         _______ _______ _______ _____ _____    ______ ____
ROOT
ATOM      1  O   UNL     1       2.708   8.513  17.059  0.00  0.00    +0.000 OA
ATOM      2  C   UNL     1       2.264   8.388  18.201  0.00  0.00    +0.000 C 
ATOM      3  N   UNL     1       1.452   9.370  18.704  0.00  0.00    +0.000 N 
ATOM      4  C   UNL     1       1.031   9.438  20.000  0.00  0.00    +0.000 A 
ATOM      5  N   UNL     1       1.408   8.712  21.026  0.00  0.00    +0.000 NA
ATOM      6  N   UNL     1       0.722   9.031  22.169  0.00  0.00    +0.000 NA
ATOM      7  C   UNL     1      -0.162   9.984  21.965  0.00  0.00    +0.000 A 
ATOM      8  S   UNL     1      -0.139  10.616  20.357  0.00  0.00    +0.000 S 
ATOM      9  H   UNL     1       1.169  10.102  18.065  0.00  0.00    +0.000 HD
ENDROOT
BRANCH   2  10
ATOM     10  C   UNL     1       2.563   7.188  19.080  0.00  0.00    +0.000 C 
BRANCH  10  11
ATOM     11  C   UNL     1       3.110   5.949  18.373  0.00  0.00    +0.000 C 
BRANCH  11  12
ATOM     12  C   UNL     1       2.283   4.740  18.803  0.00  0.00    +0.000 A 
ATOM     13  C   UNL     1       1.638   4.730  20.048  0.00  0.00    +0.000 A 
ATOM     14  C   UNL     1       0.924   3.605  20.469  0.00  0.00    +0.000 A 
ATOM     15  C   UNL     1       0.844   2.476  19.652  0.00  0.00    +0.000 A 
ATOM     16  C   UNL     1       1.474   2.472  18.412  0.00  0.00    +0.000 A 
ATOM     17  C   UNL     1       2.185   3.594  17.989  0.00  0.00    +0.000 A 
ENDBRANCH  11  12
BRANCH  11  18
ATOM     18  N   UNL     1       4.503   5.712  18.705  0.00  0.00    +0.000 N 
ATOM     19  C   UNL     1       5.552   6.060  17.858  0.00  0.00    +0.000 C 
ATOM     20  O   UNL     1       5.371   6.549  16.745  0.00  0.00    +0.000 OA
ATOM     21  H   UNL     1       4.728   5.226  19.566  0.00  0.00    +0.000 HD
BRANCH  19  22
ATOM     22  C   UNL     1       6.946   5.753  18.441  0.00  0.00    +0.000 C 
ATOM     23  F   UNL     1       6.925   5.708  19.808  0.00  0.00    +0.000 F 
ATOM     24  F   UNL     1       7.428   4.546  18.036  0.00  0.00    +0.000 F 
ATOM     25  F   UNL     1       7.883   6.683  18.110  0.00  0.00    +0.000 F 
ENDBRANCH  19  22
ENDBRANCH  11  18
ENDBRANCH  10  11
ENDBRANCH   2  10
BRANCH   7  26
ATOM     26  C   UNL     1      -1.054  10.505  23.043  0.00  0.00    +0.000 C 
BRANCH  26  27
ATOM     27  C   UNL     1      -1.278  12.015  22.996  0.00  0.00    +0.000 C 
BRANCH  27  28
ATOM     28  C   UNL     1      -2.745  12.344  22.926  0.00  0.00    +0.000 A 
ATOM     29  C   UNL     1      -3.339  12.645  21.693  0.00  0.00    +0.000 A 
ATOM     30  C   UNL     1      -4.691  12.976  21.625  0.00  0.00    +0.000 A 
ATOM     31  C   UNL     1      -5.457  13.018  22.789  0.00  0.00    +0.000 A 
ATOM     32  C   UNL     1      -4.871  12.730  24.021  0.00  0.00    +0.000 A 
ATOM     33  C   UNL     1      -3.520  12.398  24.091  0.00  0.00    +0.000 A 
ENDBRANCH  27  28
ENDBRANCH  26  27
ENDBRANCH   7  26
TORSDOF 8
ENDMDL
MODEL 2
REMARK VINA RESULT:      -9.0      0.115      1.121
REMARK  Name = 
REMARK  8 active torsions:
REMARK  status: ('A' for Active; 'I' for Inactive)
REMARK    1  A    between atoms: C_2  and  C_3
REMARK    2  A    between atoms: C_3  and  C_4
REMARK    3  A    between atoms: C_4  and  N_5
REMARK    4  A    between atoms: C_4  and  C_12
REMARK    5  A    between atoms: C_6  and  C_8
REMARK    6  A    between atoms: C_22  and  C_23
REMARK    7  A    between atoms: C_23  and  C_24
REMARK    8  A    between atoms: C_24  and  C_25
REMARK                            x       y       z     vdW  Elec       q    Type
REMARK                         _______ _______ _______ _____ _____    ______ ____
ROOT
ATOM      1  O   UNL     1       2.598   8.481  17.047  0.00  0.00    +0.000 OA
ATOM      2  C   UNL     1       2.192   8.378  18.205  0.00  0.00    +0.000 C 
ATOM      3  N   UNL     1       1.338   9.332  18.692  0.00  0.00    +0.000 N 
ATOM      4  C   UNL     1       0.948   9.430  19.995  0.00  0.00    +0.000 A 
ATOM      5  N   UNL     1       1.392   8.768  21.039  0.00  0.00    +0.000 NA
ATOM      6  N   UNL     1       0.719   9.094  22.187  0.00  0.00    +0.000 NA
ATOM      7  C   UNL     1      -0.222   9.988  21.971  0.00  0.00    +0.000 A 
ATOM      8  S   UNL     1      -0.278  10.553  20.339  0.00  0.00    +0.000 S 
ATOM      9  H   UNL     1       0.998  10.021  18.033  0.00  0.00    +0.000 HD
ENDROOT
BRANCH   2  10
ATOM     10  C   UNL     1       2.581   7.233  19.122  0.00  0.00    +0.000 C 
BRANCH  10  11
ATOM     11  C   UNL     1       3.135   5.980  18.444  0.00  0.00    +0.000 C 
BRANCH  11  12
ATOM     12  C   UNL     1       2.306   4.779  18.895  0.00  0.00    +0.000 A 
ATOM     13  C   UNL     1       1.782   4.727  20.194  0.00  0.00    +0.000 A 
ATOM     14  C   UNL     1       1.068   3.606  20.628  0.00  0.00    +0.000 A 
ATOM     15  C   UNL     1       0.867   2.525  19.770  0.00  0.00    +0.000 A 
ATOM     16  C   UNL     1       1.375   2.563  18.475  0.00  0.00    +0.000 A 
ATOM     17  C   UNL     1       2.087   3.681  18.040  0.00  0.00    +0.000 A 
ENDBRANCH  11  12
BRANCH  11  18
ATOM     18  N   UNL     1       4.526   5.752  18.791  0.00  0.00    +0.000 N 
ATOM     19  C   UNL     1       5.577   6.039  17.926  0.00  0.00    +0.000 C 
ATOM     20  O   UNL     1       5.401   6.463  16.785  0.00  0.00    +0.000 OA
ATOM     21  H   UNL     1       4.746   5.316  19.680  0.00  0.00    +0.000 HD
BRANCH  19  22
ATOM     22  C   UNL     1       6.969   5.756  18.527  0.00  0.00    +0.000 C 
ATOM     23  F   UNL     1       7.533   4.632  17.988  0.00  0.00    +0.000 F 
ATOM     24  F   UNL     1       7.853   6.764  18.294  0.00  0.00    +0.000 F 
ATOM     25  F   UNL     1       6.943   5.556  19.872  0.00  0.00    +0.000 F 
ENDBRANCH  19  22
ENDBRANCH  11  18
ENDBRANCH  10  11
ENDBRANCH   2  10
BRANCH   7  26
ATOM     26  C   UNL     1      -1.115  10.501  23.052  0.00  0.00    +0.000 C 
BRANCH  26  27
ATOM     27  C   UNL     1      -1.294  12.018  23.049  0.00  0.00    +0.000 C 
BRANCH  27  28
ATOM     28  C   UNL     1      -2.750  12.392  22.984  0.00  0.00    +0.000 A 
ATOM     29  C   UNL     1      -3.521  12.423  24.154  0.00  0.00    +0.000 A 
ATOM     30  C   UNL     1      -4.876  12.743  24.096  0.00  0.00    +0.000 A 
ATOM     31  C   UNL     1      -5.474  13.025  22.869  0.00  0.00    +0.000 A 
ATOM     32  C   UNL     1      -4.717  12.985  21.699  0.00  0.00    +0.000 A 
ATOM     33  C   UNL     1      -3.361  12.666  21.754  0.00  0.00    +0.000 A 
ENDBRANCH  27  28
ENDBRANCH  26  27
ENDBRANCH   7  26
TORSDOF 8
ENDMDL
MODEL 3
REMARK VINA RESULT:      -8.8      0.505      1.008
REMARK  Name = 
REMARK  8 active torsions:
REMARK  status: ('A' for Active; 'I' for Inactive)
REMARK    1  A    between atoms: C_2  and  C_3
REMARK    2  A    between atoms: C_3  and  C_4
REMARK    3  A    between atoms: C_4  and  N_5
REMARK    4  A    between atoms: C_4  and  C_12
REMARK    5  A    between atoms: C_6  and  C_8
REMARK    6  A    between atoms: C_22  and  C_23
REMARK    7  A    between atoms: C_23  and  C_24
REMARK    8  A    between atoms: C_24  and  C_25
REMARK                            x       y       z     vdW  Elec       q    Type
REMARK                         _______ _______ _______ _____ _____    ______ ____
ROOT
ATOM      1  O   UNL     1       2.641   8.713  17.125  0.00  0.00    +0.000 OA
ATOM      2  C   UNL     1       2.164   8.561  18.251  0.00  0.00    +0.000 C 
ATOM      3  N   UNL     1       1.418   9.573  18.794  0.00  0.00    +0.000 N 
ATOM      4  C   UNL     1       0.976   9.603  20.083  0.00  0.00    +0.000 A 
ATOM      5  N   UNL     1       1.276   8.796  21.075  0.00  0.00    +0.000 NA
ATOM      6  N   UNL     1       0.591   9.104  22.222  0.00  0.00    +0.000 NA
ATOM      7  C   UNL     1      -0.214  10.131  22.056  0.00  0.00    +0.000 A 
ATOM      8  S   UNL     1      -0.110  10.845  20.486  0.00  0.00    +0.000 S 
ATOM      9  H   UNL     1       1.204  10.358  18.191  0.00  0.00    +0.000 HD
ENDROOT
BRANCH   2  10
ATOM     10  C   UNL     1       2.354   7.296  19.067  0.00  0.00    +0.000 C 
BRANCH  10  11
ATOM     11  C   UNL     1       2.871   6.072  18.311  0.00  0.00    +0.000 C 
BRANCH  11  12
ATOM     12  C   UNL     1       2.175   4.831  18.864  0.00  0.00    +0.000 A 
ATOM     13  C   UNL     1       1.880   3.750  18.021  0.00  0.00    +0.000 A 
ATOM     14  C   UNL     1       1.196   2.634  18.510  0.00  0.00    +0.000 A 
ATOM     15  C   UNL     1       0.799   2.582  19.847  0.00  0.00    +0.000 A 
ATOM     16  C   UNL     1       1.088   3.644  20.698  0.00  0.00    +0.000 A 
ATOM     17  C   UNL     1       1.773   4.758  20.212  0.00  0.00    +0.000 A 
ENDBRANCH  11  12
BRANCH  11  18
ATOM     18  N   UNL     1       4.307   5.916  18.461  0.00  0.00    +0.000 N 
ATOM     19  C   UNL     1       5.166   5.750  17.379  0.00  0.00    +0.000 C 
ATOM     20  O   UNL     1       4.765   5.676  16.219  0.00  0.00    +0.000 OA
ATOM     21  H   UNL     1       4.702   5.872  19.394  0.00  0.00    +0.000 HD
BRANCH  19  22
ATOM     22  C   UNL     1       6.652   5.649  17.777  0.00  0.00    +0.000 C 
ATOM     23  F   UNL     1       6.987   6.578  18.724  0.00  0.00    +0.000 F 
ATOM     24  F   UNL     1       6.968   4.439  18.314  0.00  0.00    +0.000 F 
ATOM     25  F   UNL     1       7.503   5.852  16.735  0.00  0.00    +0.000 F 
ENDBRANCH  19  22
ENDBRANCH  11  18
ENDBRANCH  10  11
ENDBRANCH   2  10
BRANCH   7  26
ATOM     26  C   UNL     1      -1.087  10.659  23.145  0.00  0.00    +0.000 C 
BRANCH  26  27
ATOM     27  C   UNL     1      -1.381  12.155  23.044  0.00  0.00    +0.000 C 
BRANCH  27  28
ATOM     28  C   UNL     1      -2.862  12.415  22.989  0.00  0.00    +0.000 A 
ATOM     29  C   UNL     1      -3.489  12.649  21.758  0.00  0.00    +0.000 A 
ATOM     30  C   UNL     1      -4.856  12.915  21.704  0.00  0.00    +0.000 A 
ATOM     31  C   UNL     1      -5.604  12.960  22.880  0.00  0.00    +0.000 A 
ATOM     32  C   UNL     1      -4.986  12.739  24.110  0.00  0.00    +0.000 A 
ATOM     33  C   UNL     1      -3.619  12.471  24.166  0.00  0.00    +0.000 A 
ENDBRANCH  27  28
ENDBRANCH  26  27
ENDBRANCH   7  26
TORSDOF 8
ENDMDL
MODEL 4
REMARK VINA RESULT:      -8.4      3.145      4.074
REMARK  Name = 
REMARK  8 active torsions:
REMARK  status: ('A' for Active; 'I' for Inactive)
REMARK    1  A    between atoms: C_2  and  C_3
REMARK    2  A    between atoms: C_3  and  C_4
REMARK    3  A    between atoms: C_4  and  N_5
REMARK    4  A    between atoms: C_4  and  C_12
REMARK    5  A    between atoms: C_6  and  C_8
REMARK    6  A    between atoms: C_22  and  C_23
REMARK    7  A    between atoms: C_23  and  C_24
REMARK    8  A    between atoms: C_24  and  C_25
REMARK                            x       y       z     vdW  Elec       q    Type
REMARK                         _______ _______ _______ _____ _____    ______ ____
ROOT
ATOM      1  O   UNL     1       4.241   4.788  20.172  0.00  0.00    +0.000 OA
ATOM      2  C   UNL     1       3.822   5.752  19.531  0.00  0.00    +0.000 C 
ATOM      3  N   UNL     1       2.899   6.581  20.113  0.00  0.00    +0.000 N 
ATOM      4  C   UNL     1       2.234   7.577  19.462  0.00  0.00    +0.000 A 
ATOM      5  N   UNL     1       2.217   7.853  18.179  0.00  0.00    +0.000 NA
ATOM      6  N   UNL     1       1.477   8.972  17.896  0.00  0.00    +0.000 NA
ATOM      7  C   UNL     1       0.966   9.513  18.981  0.00  0.00    +0.000 A 
ATOM      8  S   UNL     1       1.295   8.617  20.421  0.00  0.00    +0.000 S 
ATOM      9  H   UNL     1       2.688   6.416  21.089  0.00  0.00    +0.000 HD
ENDROOT
BRANCH   2  10
ATOM     10  C   UNL     1       4.289   6.079  18.125  0.00  0.00    +0.000 C 
BRANCH  10  11
ATOM     11  C   UNL     1       3.830   5.130  17.019  0.00  0.00    +0.000 C 
BRANCH  11  12
ATOM     12  C   UNL     1       3.083   3.963  17.662  0.00  0.00    +0.000 A 
ATOM     13  C   UNL     1       1.718   4.076  17.964  0.00  0.00    +0.000 A 
ATOM     14  C   UNL     1       1.043   3.031  18.601  0.00  0.00    +0.000 A 
ATOM     15  C   UNL     1       1.720   1.860  18.941  0.00  0.00    +0.000 A 
ATOM     16  C   UNL     1       3.073   1.729  18.642  0.00  0.00    +0.000 A 
ATOM     17  C   UNL     1       3.748   2.770  18.006  0.00  0.00    +0.000 A 
ENDBRANCH  11  12
BRANCH  11  18
ATOM     18  N   UNL     1       4.950   4.611  16.256  0.00  0.00    +0.000 N 
ATOM     19  C   UNL     1       5.607   5.354  15.279  0.00  0.00    +0.000 C 
ATOM     20  O   UNL     1       5.254   6.487  14.958  0.00  0.00    +0.000 OA
ATOM     21  H   UNL     1       5.239   3.650  16.398  0.00  0.00    +0.000 HD
BRANCH  19  22
ATOM     22  C   UNL     1       6.794   4.613  14.631  0.00  0.00    +0.000 C 
ATOM     23  F   UNL     1       7.668   4.139  15.571  0.00  0.00    +0.000 F 
ATOM     24  F   UNL     1       6.402   3.530  13.907  0.00  0.00    +0.000 F 
ATOM     25  F   UNL     1       7.528   5.400  13.798  0.00  0.00    +0.000 F 
ENDBRANCH  19  22
ENDBRANCH  11  18
ENDBRANCH  10  11
ENDBRANCH   2  10
BRANCH   7  26
ATOM     26  C   UNL     1       0.134  10.752  18.953  0.00  0.00    +0.000 C 
BRANCH  26  27
ATOM     27  C   UNL     1      -1.336  10.528  19.303  0.00  0.00    +0.000 C 
BRANCH  27  28
ATOM     28  C   UNL     1      -2.207  10.637  18.081  0.00  0.00    +0.000 A 
ATOM     29  C   UNL     1      -3.351  11.446  18.103  0.00  0.00    +0.000 A 
ATOM     30  C   UNL     1      -4.175  11.531  16.983  0.00  0.00    +0.000 A 
ATOM     31  C   UNL     1      -3.868  10.801  15.835  0.00  0.00    +0.000 A 
ATOM     32  C   UNL     1      -2.738   9.986  15.808  0.00  0.00    +0.000 A 
ATOM     33  C   UNL     1      -1.911   9.900  16.927  0.00  0.00    +0.000 A 
ENDBRANCH  27  28
ENDBRANCH  26  27
ENDBRANCH   7  26
TORSDOF 8
ENDMDL
MODEL 5
REMARK VINA RESULT:      -8.4      1.172      1.593
REMARK  Name = 
REMARK  8 active torsions:
REMARK  status: ('A' for Active; 'I' for Inactive)
REMARK    1  A    between atoms: C_2  and  C_3
REMARK    2  A    between atoms: C_3  and  C_4
REMARK    3  A    between atoms: C_4  and  N_5
REMARK    4  A    between atoms: C_4  and  C_12
REMARK    5  A    between atoms: C_6  and  C_8
REMARK    6  A    between atoms: C_22  and  C_23
REMARK    7  A    between atoms: C_23  and  C_24
REMARK    8  A    between atoms: C_24  and  C_25
REMARK                            x       y       z     vdW  Elec       q    Type
REMARK                         _______ _______ _______ _____ _____    ______ ____
ROOT
ATOM      1  O   UNL     1       3.544   8.014  16.775  0.00  0.00    +0.000 OA
ATOM      2  C   UNL     1       2.760   8.147  17.715  0.00  0.00    +0.000 C 
ATOM      3  N   UNL     1       2.118   9.347  17.875  0.00  0.00    +0.000 N 
ATOM      4  C   UNL     1       1.360   9.681  18.957  0.00  0.00    +0.000 A 
ATOM      5  N   UNL     1       1.207   9.031  20.087  0.00  0.00    +0.000 NA
ATOM      6  N   UNL     1       0.316   9.647  20.926  0.00  0.00    +0.000 NA
ATOM      7  C   UNL     1      -0.185  10.742  20.397  0.00  0.00    +0.000 A 
ATOM      8  S   UNL     1       0.485  11.133  18.853  0.00  0.00    +0.000 S 
ATOM      9  H   UNL     1       2.242  10.033  17.141  0.00  0.00    +0.000 HD
ENDROOT
BRANCH   2  10
ATOM     10  C   UNL     1       2.457   7.037  18.705  0.00  0.00    +0.000 C 
BRANCH  10  11
ATOM     11  C   UNL     1       3.116   5.686  18.432  0.00  0.00    +0.000 C 
BRANCH  11  12
ATOM     12  C   UNL     1       2.423   4.627  19.287  0.00  0.00    +0.000 A 
ATOM     13  C   UNL     1       2.561   4.642  20.682  0.00  0.00    +0.000 A 
ATOM     14  C   UNL     1       1.973   3.645  21.465  0.00  0.00    +0.000 A 
ATOM     15  C   UNL     1       1.238   2.622  20.865  0.00  0.00    +0.000 A 
ATOM     16  C   UNL     1       1.087   2.596  19.482  0.00  0.00    +0.000 A 
ATOM     17  C   UNL     1       1.671   3.591  18.700  0.00  0.00    +0.000 A 
ENDBRANCH  11  12
BRANCH  11  18
ATOM     18  N   UNL     1       4.531   5.703  18.755  0.00  0.00    +0.000 N 
ATOM     19  C   UNL     1       5.520   5.370  17.834  0.00  0.00    +0.000 C 
ATOM     20  O   UNL     1       5.264   4.989  16.693  0.00  0.00    +0.000 OA
ATOM     21  H   UNL     1       4.816   5.916  19.704  0.00  0.00    +0.000 HD
BRANCH  19  22
ATOM     22  C   UNL     1       6.953   5.503  18.388  0.00  0.00    +0.000 C 
ATOM     23  F   UNL     1       7.567   6.639  17.936  0.00  0.00    +0.000 F 
ATOM     24  F   UNL     1       6.983   5.579  19.747  0.00  0.00    +0.000 F 
ATOM     25  F   UNL     1       7.764   4.470  18.033  0.00  0.00    +0.000 F 
ENDBRANCH  19  22
ENDBRANCH  11  18
ENDBRANCH  10  11
ENDBRANCH   2  10
BRANCH   7  26
ATOM     26  C   UNL     1      -1.194  11.592  21.096  0.00  0.00    +0.000 C 
BRANCH  26  27
ATOM     27  C   UNL     1      -0.654  12.321  22.326  0.00  0.00    +0.000 C 
BRANCH  27  28
ATOM     28  C   UNL     1      -1.775  12.885  23.157  0.00  0.00    +0.000 A 
ATOM     29  C   UNL     1      -1.640  14.144  23.758  0.00  0.00    +0.000 A 
ATOM     30  C   UNL     1      -2.665  14.659  24.549  0.00  0.00    +0.000 A 
ATOM     31  C   UNL     1      -3.827  13.918  24.755  0.00  0.00    +0.000 A 
ATOM     32  C   UNL     1      -3.965  12.660  24.169  0.00  0.00    +0.000 A 
ATOM     33  C   UNL     1      -2.942  12.143  23.376  0.00  0.00    +0.000 A 
ENDBRANCH  27  28
ENDBRANCH  26  27
ENDBRANCH   7  26
TORSDOF 8
ENDMDL
MODEL 6
REMARK VINA RESULT:      -8.4      1.204      1.465
REMARK  Name = 
REMARK  8 active torsions:
REMARK  status: ('A' for Active; 'I' for Inactive)
REMARK    1  A    between atoms: C_2  and  C_3
REMARK    2  A    between atoms: C_3  and  C_4
REMARK    3  A    between atoms: C_4  and  N_5
REMARK    4  A    between atoms: C_4  and  C_12
REMARK    5  A    between atoms: C_6  and  C_8
REMARK    6  A    between atoms: C_22  and  C_23
REMARK    7  A    between atoms: C_23  and  C_24
REMARK    8  A    between atoms: C_24  and  C_25
REMARK                            x       y       z     vdW  Elec       q    Type
REMARK                         _______ _______ _______ _____ _____    ______ ____
ROOT
ATOM      1  O   UNL     1       3.615   7.872  16.744  0.00  0.00    +0.000 OA
ATOM      2  C   UNL     1       2.840   7.990  17.693  0.00  0.00    +0.000 C 
ATOM      3  N   UNL     1       2.182   9.180  17.864  0.00  0.00    +0.000 N 
ATOM      4  C   UNL     1       1.432   9.499  18.957  0.00  0.00    +0.000 A 
ATOM      5  N   UNL     1       1.302   8.842  20.086  0.00  0.00    +0.000 NA
ATOM      6  N   UNL     1       0.411   9.442  20.938  0.00  0.00    +0.000 NA
ATOM      7  C   UNL     1      -0.113  10.532  20.417  0.00  0.00    +0.000 A 
ATOM      8  S   UNL     1       0.533  10.937  18.867  0.00  0.00    +0.000 S 
ATOM      9  H   UNL     1       2.287   9.870  17.131  0.00  0.00    +0.000 HD
ENDROOT
BRANCH   2  10
ATOM     10  C   UNL     1       2.565   6.873  18.683  0.00  0.00    +0.000 C 
BRANCH  10  11
ATOM     11  C   UNL     1       3.261   5.539  18.411  0.00  0.00    +0.000 C 
BRANCH  11  12
ATOM     12  C   UNL     1       2.623   4.471  19.296  0.00  0.00    +0.000 A 
ATOM     13  C   UNL     1       2.495   4.678  20.676  0.00  0.00    +0.000 A 
ATOM     14  C   UNL     1       1.960   3.682  21.498  0.00  0.00    +0.000 A 
ATOM     15  C   UNL     1       1.545   2.467  20.952  0.00  0.00    +0.000 A 
ATOM     16  C   UNL     1       1.661   2.247  19.582  0.00  0.00    +0.000 A 
ATOM     17  C   UNL     1       2.192   3.241  18.761  0.00  0.00    +0.000 A 
ENDBRANCH  11  12
BRANCH  11  18
ATOM     18  N   UNL     1       4.682   5.606  18.699  0.00  0.00    +0.000 N 
ATOM     19  C   UNL     1       5.656   5.188  17.797  0.00  0.00    +0.000 C 
ATOM     20  O   UNL     1       5.381   4.687  16.709  0.00  0.00    +0.000 OA
ATOM     21  H   UNL     1       4.984   5.921  19.615  0.00  0.00    +0.000 HD
BRANCH  19  22
ATOM     22  C   UNL     1       7.098   5.394  18.303  0.00  0.00    +0.000 C 
ATOM     23  F   UNL     1       7.147   5.490  19.667  0.00  0.00    +0.000 F 
ATOM     24  F   UNL     1       7.921   4.362  17.972  0.00  0.00    +0.000 F 
ATOM     25  F   UNL     1       7.678   6.529  17.826  0.00  0.00    +0.000 F 
ENDBRANCH  19  22
ENDBRANCH  11  18
ENDBRANCH  10  11
ENDBRANCH   2  10
BRANCH   7  26
ATOM     26  C   UNL     1      -1.126  11.364  21.132  0.00  0.00    +0.000 C 
BRANCH  26  27
ATOM     27  C   UNL     1      -0.558  12.190  22.285  0.00  0.00    +0.000 C 
BRANCH  27  28
ATOM     28  C   UNL     1      -1.660  12.793  23.113  0.00  0.00    +0.000 A 
ATOM     29  C   UNL     1      -2.834  12.068  23.355  0.00  0.00    +0.000 A 
ATOM     30  C   UNL     1      -3.868  12.633  24.100  0.00  0.00    +0.000 A 
ATOM     31  C   UNL     1      -3.741  13.928  24.600  0.00  0.00    +0.000 A 
ATOM     32  C   UNL     1      -2.580  14.660  24.354  0.00  0.00    +0.000 A 
ATOM     33  C   UNL     1      -1.544  14.097  23.611  0.00  0.00    +0.000 A 
ENDBRANCH  27  28
ENDBRANCH  26  27
ENDBRANCH   7  26
TORSDOF 8
ENDMDL
MODEL 7
REMARK VINA RESULT:      -8.3      1.078      1.789
REMARK  Name = 
REMARK  8 active torsions:
REMARK  status: ('A' for Active; 'I' for Inactive)
REMARK    1  A    between atoms: C_2  and  C_3
REMARK    2  A    between atoms: C_3  and  C_4
REMARK    3  A    between atoms: C_4  and  N_5
REMARK    4  A    between atoms: C_4  and  C_12
REMARK    5  A    between atoms: C_6  and  C_8
REMARK    6  A    between atoms: C_22  and  C_23
REMARK    7  A    between atoms: C_23  and  C_24
REMARK    8  A    between atoms: C_24  and  C_25
REMARK                            x       y       z     vdW  Elec       q    Type
REMARK                         _______ _______ _______ _____ _____    ______ ____
ROOT
ATOM      1  O   UNL     1       2.792   8.458  17.102  0.00  0.00    +0.000 OA
ATOM      2  C   UNL     1       2.276   8.323  18.212  0.00  0.00    +0.000 C 
ATOM      3  N   UNL     1       1.554   9.364  18.735  0.00  0.00    +0.000 N 
ATOM      4  C   UNL     1       1.075   9.409  20.011  0.00  0.00    +0.000 A 
ATOM      5  N   UNL     1       1.312   8.589  21.008  0.00  0.00    +0.000 NA
ATOM      6  N   UNL     1       0.606   8.922  22.135  0.00  0.00    +0.000 NA
ATOM      7  C   UNL     1      -0.152   9.981  21.948  0.00  0.00    +0.000 A 
ATOM      8  S   UNL     1       0.028  10.693  20.384  0.00  0.00    +0.000 S 
ATOM      9  H   UNL     1       1.390  10.157  18.128  0.00  0.00    +0.000 HD
ENDROOT
BRANCH   2  10
ATOM     10  C   UNL     1       2.390   7.050  19.029  0.00  0.00    +0.000 C 
BRANCH  10  11
ATOM     11  C   UNL     1       2.277   5.736  18.258  0.00  0.00    +0.000 C 
BRANCH  11  12
ATOM     12  C   UNL     1       2.087   4.600  19.261  0.00  0.00    +0.000 A 
ATOM     13  C   UNL     1       1.748   3.314  18.819  0.00  0.00    +0.000 A 
ATOM     14  C   UNL     1       1.521   2.284  19.736  0.00  0.00    +0.000 A 
ATOM     15  C   UNL     1       1.633   2.524  21.105  0.00  0.00    +0.000 A 
ATOM     16  C   UNL     1       1.974   3.794  21.561  0.00  0.00    +0.000 A 
ATOM     17  C   UNL     1       2.202   4.823  20.647  0.00  0.00    +0.000 A 
ENDBRANCH  11  12
BRANCH  11  18
ATOM     18  N   UNL     1       3.464   5.474  17.465  0.00  0.00    +0.000 N 
ATOM     19  C   UNL     1       4.739   5.398  18.017  0.00  0.00    +0.000 C 
ATOM     20  O   UNL     1       4.959   5.594  19.210  0.00  0.00    +0.000 OA
ATOM     21  H   UNL     1       3.375   5.394  16.458  0.00  0.00    +0.000 HD
BRANCH  19  22
ATOM     22  C   UNL     1       5.840   5.067  16.989  0.00  0.00    +0.000 C 
ATOM     23  F   UNL     1       5.509   3.982  16.224  0.00  0.00    +0.000 F 
ATOM     24  F   UNL     1       6.062   6.085  16.114  0.00  0.00    +0.000 F 
ATOM     25  F   UNL     1       7.039   4.770  17.562  0.00  0.00    +0.000 F 
ENDBRANCH  19  22
ENDBRANCH  11  18
ENDBRANCH  10  11
ENDBRANCH   2  10
BRANCH   7  26
ATOM     26  C   UNL     1      -1.037  10.542  23.011  0.00  0.00    +0.000 C 
BRANCH  26  27
ATOM     27  C   UNL     1      -1.224  12.056  22.937  0.00  0.00    +0.000 C 
BRANCH  27  28
ATOM     28  C   UNL     1      -2.681  12.418  22.839  0.00  0.00    +0.000 A 
ATOM     29  C   UNL     1      -3.474  12.462  23.994  0.00  0.00    +0.000 A 
ATOM     30  C   UNL     1      -4.830  12.771  23.906  0.00  0.00    +0.000 A 
ATOM     31  C   UNL     1      -5.406  13.029  22.663  0.00  0.00    +0.000 A 
ATOM     32  C   UNL     1      -4.627  12.977  21.508  0.00  0.00    +0.000 A 
ATOM     33  C   UNL     1      -3.270  12.669  21.594  0.00  0.00    +0.000 A 
ENDBRANCH  27  28
ENDBRANCH  26  27
ENDBRANCH   7  26
TORSDOF 8
ENDMDL
MODEL 8
REMARK VINA RESULT:      -8.3      1.324      2.062
REMARK  Name = 
REMARK  8 active torsions:
REMARK  status: ('A' for Active; 'I' for Inactive)
REMARK    1  A    between atoms: C_2  and  C_3
REMARK    2  A    between atoms: C_3  and  C_4
REMARK    3  A    between atoms: C_4  and  N_5
REMARK    4  A    between atoms: C_4  and  C_12
REMARK    5  A    between atoms: C_6  and  C_8
REMARK    6  A    between atoms: C_22  and  C_23
REMARK    7  A    between atoms: C_23  and  C_24
REMARK    8  A    between atoms: C_24  and  C_25
REMARK                            x       y       z     vdW  Elec       q    Type
REMARK                         _______ _______ _______ _____ _____    ______ ____
ROOT
ATOM      1  O   UNL     1       2.601   8.562  17.173  0.00  0.00    +0.000 OA
ATOM      2  C   UNL     1       2.138   8.474  18.311  0.00  0.00    +0.000 C 
ATOM      3  N   UNL     1       1.376   9.504  18.795  0.00  0.00    +0.000 N 
ATOM      4  C   UNL     1       0.946   9.609  20.085  0.00  0.00    +0.000 A 
ATOM      5  N   UNL     1       1.271   8.874  21.123  0.00  0.00    +0.000 NA
ATOM      6  N   UNL     1       0.591   9.242  22.255  0.00  0.00    +0.000 NA
ATOM      7  C   UNL     1      -0.236  10.240  22.031  0.00  0.00    +0.000 A 
ATOM      8  S   UNL     1      -0.161  10.853  20.417  0.00  0.00    +0.000 S 
ATOM      9  H   UNL     1       1.141  10.244  18.146  0.00  0.00    +0.000 HD
ENDROOT
BRANCH   2  10
ATOM     10  C   UNL     1       2.361   7.268  19.205  0.00  0.00    +0.000 C 
BRANCH  10  11
ATOM     11  C   UNL     1       2.947   6.026  18.535  0.00  0.00    +0.000 C 
BRANCH  11  12
ATOM     12  C   UNL     1       2.184   4.801  19.034  0.00  0.00    +0.000 A 
ATOM     13  C   UNL     1       2.013   4.584  20.408  0.00  0.00    +0.000 A 
ATOM     14  C   UNL     1       1.362   3.438  20.871  0.00  0.00    +0.000 A 
ATOM     15  C   UNL     1       0.872   2.494  19.969  0.00  0.00    +0.000 A 
ATOM     16  C   UNL     1       1.028   2.696  18.601  0.00  0.00    +0.000 A 
ATOM     17  C   UNL     1       1.676   3.841  18.137  0.00  0.00    +0.000 A 
ENDBRANCH  11  12
BRANCH  11  18
ATOM     18  N   UNL     1       4.356   5.863  18.842  0.00  0.00    +0.000 N 
ATOM     19  C   UNL     1       5.317   5.608  17.869  0.00  0.00    +0.000 C 
ATOM     20  O   UNL     1       5.036   5.454  16.682  0.00  0.00    +0.000 OA
ATOM     21  H   UNL     1       4.653   5.884  19.812  0.00  0.00    +0.000 HD
BRANCH  19  22
ATOM     22  C   UNL     1       6.753   5.518  18.425  0.00  0.00    +0.000 C 
ATOM     23  F   UNL     1       7.420   4.431  17.929  0.00  0.00    +0.000 F 
ATOM     24  F   UNL     1       7.510   6.601  18.097  0.00  0.00    +0.000 F 
ATOM     25  F   UNL     1       6.799   5.400  19.780  0.00  0.00    +0.000 F 
ENDBRANCH  19  22
ENDBRANCH  11  18
ENDBRANCH  10  11
ENDBRANCH   2  10
BRANCH   7  26
ATOM     26  C   UNL     1      -1.110  10.820  23.093  0.00  0.00    +0.000 C 
BRANCH  26  27
ATOM     27  C   UNL     1      -2.023  11.946  22.608  0.00  0.00    +0.000 C 
BRANCH  27  28
ATOM     28  C   UNL     1      -1.526  13.286  23.077  0.00  0.00    +0.000 A 
ATOM     29  C   UNL     1      -2.064  13.871  24.231  0.00  0.00    +0.000 A 
ATOM     30  C   UNL     1      -1.625  15.125  24.655  0.00  0.00    +0.000 A 
ATOM     31  C   UNL     1      -0.655  15.807  23.923  0.00  0.00    +0.000 A 
ATOM     32  C   UNL     1      -0.123  15.237  22.767  0.00  0.00    +0.000 A 
ATOM     33  C   UNL     1      -0.558  13.983  22.343  0.00  0.00    +0.000 A 
ENDBRANCH  27  28
ENDBRANCH  26  27
ENDBRANCH   7  26
TORSDOF 8
ENDMDL
MODEL 9
REMARK VINA RESULT:      -8.2      1.758      2.523
REMARK  Name = 
REMARK  8 active torsions:
REMARK  status: ('A' for Active; 'I' for Inactive)
REMARK    1  A    between atoms: C_2  and  C_3
REMARK    2  A    between atoms: C_3  and  C_4
REMARK    3  A    between atoms: C_4  and  N_5
REMARK    4  A    between atoms: C_4  and  C_12
REMARK    5  A    between atoms: C_6  and  C_8
REMARK    6  A    between atoms: C_22  and  C_23
REMARK    7  A    between atoms: C_23  and  C_24
REMARK    8  A    between atoms: C_24  and  C_25
REMARK                            x       y       z     vdW  Elec       q    Type
REMARK                         _______ _______ _______ _____ _____    ______ ____
ROOT
ATOM      1  O   UNL     1       3.711   7.996  16.811  0.00  0.00    +0.000 OA
ATOM      2  C   UNL     1       2.846   8.128  17.677  0.00  0.00    +0.000 C 
ATOM      3  N   UNL     1       2.256   9.354  17.840  0.00  0.00    +0.000 N 
ATOM      4  C   UNL     1       1.413   9.677  18.861  0.00  0.00    +0.000 A 
ATOM      5  N   UNL     1       1.115   8.982  19.934  0.00  0.00    +0.000 NA
ATOM      6  N   UNL     1       0.179   9.606  20.716  0.00  0.00    +0.000 NA
ATOM      7  C   UNL     1      -0.208  10.754  20.202  0.00  0.00    +0.000 A 
ATOM      8  S   UNL     1       0.631  11.180  18.753  0.00  0.00    +0.000 S 
ATOM      9  H   UNL     1       2.488  10.066  17.160  0.00  0.00    +0.000 HD
ENDROOT
BRANCH   2  10
ATOM     10  C   UNL     1       2.389   6.990  18.571  0.00  0.00    +0.000 C 
BRANCH  10  11
ATOM     11  C   UNL     1       3.076   5.642  18.359  0.00  0.00    +0.000 C 
BRANCH  11  12
ATOM     12  C   UNL     1       2.419   4.613  19.277  0.00  0.00    +0.000 A 
ATOM     13  C   UNL     1       1.474   3.711  18.769  0.00  0.00    +0.000 A 
ATOM     14  C   UNL     1       0.831   2.803  19.616  0.00  0.00    +0.000 A 
ATOM     15  C   UNL     1       1.126   2.783  20.979  0.00  0.00    +0.000 A 
ATOM     16  C   UNL     1       2.066   3.668  21.498  0.00  0.00    +0.000 A 
ATOM     17  C   UNL     1       2.709   4.574  20.655  0.00  0.00    +0.000 A 
ENDBRANCH  11  12
BRANCH  11  18
ATOM     18  N   UNL     1       4.494   5.708  18.660  0.00  0.00    +0.000 N 
ATOM     19  C   UNL     1       5.471   5.188  17.817  0.00  0.00    +0.000 C 
ATOM     20  O   UNL     1       5.200   4.590  16.777  0.00  0.00    +0.000 OA
ATOM     21  H   UNL     1       4.791   6.103  19.546  0.00  0.00    +0.000 HD
BRANCH  19  22
ATOM     22  C   UNL     1       6.910   5.413  18.322  0.00  0.00    +0.000 C 
ATOM     23  F   UNL     1       7.523   6.442  17.661  0.00  0.00    +0.000 F 
ATOM     24  F   UNL     1       6.956   5.740  19.642  0.00  0.00    +0.000 F 
ATOM     25  F   UNL     1       7.715   4.328  18.156  0.00  0.00    +0.000 F 
ENDBRANCH  19  22
ENDBRANCH  11  18
ENDBRANCH  10  11
ENDBRANCH   2  10
BRANCH   7  26
ATOM     26  C   UNL     1      -1.235  11.625  20.847  0.00  0.00    +0.000 C 
BRANCH  26  27
ATOM     27  C   UNL     1      -1.857  12.660  19.910  0.00  0.00    +0.000 C 
BRANCH  27  28
ATOM     28  C   UNL     1      -3.204  12.205  19.418  0.00  0.00    +0.000 A 
ATOM     29  C   UNL     1      -4.367  12.579  20.105  0.00  0.00    +0.000 A 
ATOM     30  C   UNL     1      -5.615  12.139  19.669  0.00  0.00    +0.000 A 
ATOM     31  C   UNL     1      -5.710  11.314  18.549  0.00  0.00    +0.000 A 
ATOM     32  C   UNL     1      -4.557  10.927  17.867  0.00  0.00    +0.000 A 
ATOM     33  C   UNL     1      -3.308  11.367  18.300  0.00  0.00    +0.000 A 
ENDBRANCH  27  28
ENDBRANCH  26  27
ENDBRANCH   7  26
TORSDOF 8
ENDMDL
