MODEL 1
REMARK VINA RESULT:      -8.0      0.000      0.000
REMARK  Name = 
REMARK  14 active torsions:
REMARK  status: ('A' for Active; 'I' for Inactive)
REMARK    1  A    between atoms: C_1  and  O_2
REMARK    2  A    between atoms: O_2  and  C_3
REMARK    3  A    between atoms: C_8  and  C_9
REMARK    4  A    between atoms: C_10  and  C_11
REMARK    5  A    between atoms: C_11  and  O_13
REMARK    6  A    between atoms: O_13  and  C_14
REMARK    7  A    between atoms: C_14  and  C_15
REMARK    8  A    between atoms: C_15  and  C_16
REMARK    9  A    between atoms: C_15  and  C_17
REMARK   10  A    between atoms: C_18  and  C_19
REMARK   11  A    between atoms: C_21  and  C_22
REMARK   12  A    between atoms: C_24  and  O_25
REMARK   13  A    between atoms: C_24  and  O_26
REMARK   14  A    between atoms: O_26  and  C_27
REMARK                            x       y       z     vdW  Elec       q    Type
REMARK                         _______ _______ _______ _____ _____    ______ ____
ROOT
ATOM      1  C   UNL     1       3.837   5.338  17.406  0.00  0.00    +0.000 C 
ATOM      2  C   UNL     1       5.343   5.376  17.275  0.00  0.00    +0.000 C 
ATOM      3  C   UNL     1       6.126   4.585  18.037  0.00  0.00    +0.000 C 
ATOM      4  C   UNL     1       7.636   4.611  18.090  0.00  0.00    +0.000 C 
ATOM      5  N   UNL     1       5.619   3.681  18.932  0.00  0.00    +0.000 NA
ATOM      6  C   UNL     1       4.346   3.468  19.053  0.00  0.00    +0.000 C 
ATOM      7  C   UNL     1       3.980   2.457  20.117  0.00  0.00    +0.000 C 
ATOM      8  C   UNL     1       3.288   4.163  18.230  0.00  0.00    +0.000 C 
ATOM      9  C   UNL     1       1.974   3.817  18.279  0.00  0.00    +0.000 C 
ENDROOT
BRANCH   1  15
ATOM     10  C   UNL     1       0.465   9.168  19.575  0.00  0.00    +0.000 C 
ATOM     11  O   UNL     1      -0.114  10.012  18.901  0.00  0.00    +0.000 OA
ATOM     12  N   UNL     1       1.647   8.538  19.196  0.00  0.00    +0.000 N 
ATOM     13  C   UNL     1       2.270   7.585  19.985  0.00  0.00    +0.000 C 
ATOM     14  C   UNL     1       3.119   6.701  19.452  0.00  0.00    +0.000 C 
ATOM     15  C   UNL     1       3.319   6.649  18.011  0.00  0.00    +0.000 C 
ATOM     16  C   UNL     1       2.965   7.732  17.291  0.00  0.00    +0.000 C 
ATOM     17  C   UNL     1       2.270   8.911  17.921  0.00  0.00    +0.000 C 
BRANCH  10  19
ATOM     18  C   UNL     1      -0.218   9.654  21.789  0.00  0.00    +0.000 C 
ATOM     19  O   UNL     1      -0.014   8.689  20.760  0.00  0.00    +0.000 OA
ENDBRANCH  10  19
ENDBRANCH   1  15
BRANCH   2  20
ATOM     20  C   UNL     1       5.907   6.464  16.418  0.00  0.00    +0.000 C 
ATOM     21  O   UNL     1       6.419   7.484  16.848  0.00  0.00    +0.000 OA
BRANCH  20  22
ATOM     22  O   UNL     1       5.648   6.229  15.104  0.00  0.00    +0.000 OA
BRANCH  22  23
ATOM     23  C   UNL     1       5.413   4.845  14.775  0.00  0.00    +0.000 C 
BRANCH  23  24
ATOM     24  C   UNL     1       6.542   4.201  13.959  0.00  0.00    +0.000 C 
ATOM     25  C   UNL     1       6.003   3.468  12.732  0.00  0.00    +0.000 C 
ATOM     26  C   UNL     1       7.555   5.269  13.539  0.00  0.00    +0.000 C 
ENDBRANCH  23  24
ENDBRANCH  22  23
ENDBRANCH  20  22
ENDBRANCH   2  20
BRANCH   9  27
ATOM     27  O   UNL     1       1.008   4.430  17.504  0.00  0.00    +0.000 OA
ATOM     28  H   UNL     1       1.400   5.126  16.961  0.00  0.00    +0.000 HD
ENDBRANCH   9  27
BRANCH   9  29
ATOM     29  O   UNL     1       1.522   2.819  19.119  0.00  0.00    +0.000 OA
ATOM     30  C   UNL     1       0.703   3.310  20.182  0.00  0.00    +0.000 C 
ENDBRANCH   9  29
TORSDOF 8
ENDMDL
MODEL 2
REMARK VINA RESULT:      -7.0      1.351      2.516
REMARK  Name = 
REMARK  14 active torsions:
REMARK  status: ('A' for Active; 'I' for Inactive)
REMARK    1  A    between atoms: C_1  and  O_2
REMARK    2  A    between atoms: O_2  and  C_3
REMARK    3  A    between atoms: C_8  and  C_9
REMARK    4  A    between atoms: C_10  and  C_11
REMARK    5  A    between atoms: C_11  and  O_13
REMARK    6  A    between atoms: O_13  and  C_14
REMARK    7  A    between atoms: C_14  and  C_15
REMARK    8  A    between atoms: C_15  and  C_16
REMARK    9  A    between atoms: C_15  and  C_17
REMARK   10  A    between atoms: C_18  and  C_19
REMARK   11  A    between atoms: C_21  and  C_22
REMARK   12  A    between atoms: C_24  and  O_25
REMARK   13  A    between atoms: C_24  and  O_26
REMARK   14  A    between atoms: O_26  and  C_27
REMARK                            x       y       z     vdW  Elec       q    Type
REMARK                         _______ _______ _______ _____ _____    ______ ____
ROOT
ATOM      1  C   UNL     1       3.724   5.267  17.320  0.00  0.00    +0.000 C 
ATOM      2  C   UNL     1       5.210   5.315  17.043  0.00  0.00    +0.000 C 
ATOM      3  C   UNL     1       6.064   4.501  17.698  0.00  0.00    +0.000 C 
ATOM      4  C   UNL     1       7.572   4.530  17.604  0.00  0.00    +0.000 C 
ATOM      5  N   UNL     1       5.647   3.565  18.607  0.00  0.00    +0.000 NA
ATOM      6  C   UNL     1       4.392   3.343  18.843  0.00  0.00    +0.000 C 
ATOM      7  C   UNL     1       4.132   2.295  19.903  0.00  0.00    +0.000 C 
ATOM      8  C   UNL     1       3.258   4.062  18.152  0.00  0.00    +0.000 C 
ATOM      9  C   UNL     1       1.956   3.710  18.318  0.00  0.00    +0.000 C 
ENDROOT
BRANCH   1  15
ATOM     10  C   UNL     1       0.577   9.010  19.932  0.00  0.00    +0.000 C 
ATOM     11  O   UNL     1      -0.061   9.877  19.346  0.00  0.00    +0.000 OA
ATOM     12  N   UNL     1       1.717   8.396  19.421  0.00  0.00    +0.000 N 
ATOM     13  C   UNL     1       2.411   7.417  20.113  0.00  0.00    +0.000 C 
ATOM     14  C   UNL     1       3.204   6.554  19.472  0.00  0.00    +0.000 C 
ATOM     15  C   UNL     1       3.268   6.554  18.017  0.00  0.00    +0.000 C 
ATOM     16  C   UNL     1       2.849   7.662  17.373  0.00  0.00    +0.000 C 
ATOM     17  C   UNL     1       2.218   8.816  18.108  0.00  0.00    +0.000 C 
BRANCH  10  19
ATOM     18  C   UNL     1      -0.377   9.401  22.063  0.00  0.00    +0.000 C 
ATOM     19  O   UNL     1       0.211   8.489  21.139  0.00  0.00    +0.000 OA
ENDBRANCH  10  19
ENDBRANCH   1  15
BRANCH   2  20
ATOM     20  C   UNL     1       5.688   6.433  16.174  0.00  0.00    +0.000 C 
ATOM     21  O   UNL     1       5.121   6.811  15.162  0.00  0.00    +0.000 OA
BRANCH  20  22
ATOM     22  O   UNL     1       6.907   6.876  16.582  0.00  0.00    +0.000 OA
BRANCH  22  23
ATOM     23  C   UNL     1       6.882   8.120  17.312  0.00  0.00    +0.000 C 
BRANCH  23  24
ATOM     24  C   UNL     1       8.253   8.549  17.854  0.00  0.00    +0.000 C 
ATOM     25  C   UNL     1       8.284  10.038  18.190  0.00  0.00    +0.000 C 
ATOM     26  C   UNL     1       8.608   7.717  19.089  0.00  0.00    +0.000 C 
ENDBRANCH  23  24
ENDBRANCH  22  23
ENDBRANCH  20  22
ENDBRANCH   2  20
BRANCH   9  27
ATOM     27  O   UNL     1       0.919   4.346  17.662  0.00  0.00    +0.000 OA
ATOM     28  H   UNL     1       1.224   4.719  16.825  0.00  0.00    +0.000 HD
ENDBRANCH   9  27
BRANCH   9  29
ATOM     29  O   UNL     1       1.589   2.683  19.163  0.00  0.00    +0.000 OA
ATOM     30  C   UNL     1       0.818   3.126  20.282  0.00  0.00    +0.000 C 
ENDBRANCH   9  29
TORSDOF 8
ENDMDL
MODEL 3
REMARK VINA RESULT:      -6.9      1.274      1.854
REMARK  Name = 
REMARK  14 active torsions:
REMARK  status: ('A' for Active; 'I' for Inactive)
REMARK    1  A    between atoms: C_1  and  O_2
REMARK    2  A    between atoms: O_2  and  C_3
REMARK    3  A    between atoms: C_8  and  C_9
REMARK    4  A    between atoms: C_10  and  C_11
REMARK    5  A    between atoms: C_11  and  O_13
REMARK    6  A    between atoms: O_13  and  C_14
REMARK    7  A    between atoms: C_14  and  C_15
REMARK    8  A    between atoms: C_15  and  C_16
REMARK    9  A    between atoms: C_15  and  C_17
REMARK   10  A    between atoms: C_18  and  C_19
REMARK   11  A    between atoms: C_21  and  C_22
REMARK   12  A    between atoms: C_24  and  O_25
REMARK   13  A    between atoms: C_24  and  O_26
REMARK   14  A    between atoms: O_26  and  C_27
REMARK                            x       y       z     vdW  Elec       q    Type
REMARK                         _______ _______ _______ _____ _____    ______ ____
ROOT
ATOM      1  C   UNL     1       3.721   5.368  17.748  0.00  0.00    +0.000 C 
ATOM      2  C   UNL     1       5.153   5.813  17.939  0.00  0.00    +0.000 C 
ATOM      3  C   UNL     1       5.964   5.184  18.815  0.00  0.00    +0.000 C 
ATOM      4  C   UNL     1       7.369   5.599  19.187  0.00  0.00    +0.000 C 
ATOM      5  N   UNL     1       5.565   4.095  19.544  0.00  0.00    +0.000 NA
ATOM      6  C   UNL     1       4.402   3.544  19.384  0.00  0.00    +0.000 C 
ATOM      7  C   UNL     1       4.134   2.373  20.303  0.00  0.00    +0.000 C 
ATOM      8  C   UNL     1       3.371   4.015  18.387  0.00  0.00    +0.000 C 
ATOM      9  C   UNL     1       2.220   3.334  18.143  0.00  0.00    +0.000 C 
ENDROOT
BRANCH   1  15
ATOM     10  C   UNL     1       1.653  10.215  19.474  0.00  0.00    +0.000 C 
ATOM     11  O   UNL     1       1.664  10.569  20.647  0.00  0.00    +0.000 OA
ATOM     12  N   UNL     1       1.685   8.887  19.056  0.00  0.00    +0.000 N 
ATOM     13  C   UNL     1       1.675   8.525  17.719  0.00  0.00    +0.000 C 
ATOM     14  C   UNL     1       2.132   7.332  17.327  0.00  0.00    +0.000 C 
ATOM     15  C   UNL     1       2.755   6.431  18.286  0.00  0.00    +0.000 C 
ATOM     16  C   UNL     1       2.502   6.638  19.594  0.00  0.00    +0.000 C 
ATOM     17  C   UNL     1       1.709   7.827  20.070  0.00  0.00    +0.000 C 
BRANCH  10  19
ATOM     18  C   UNL     1       2.002  12.436  18.733  0.00  0.00    +0.000 C 
ATOM     19  O   UNL     1       1.675  11.084  18.422  0.00  0.00    +0.000 OA
ENDBRANCH  10  19
ENDBRANCH   1  15
BRANCH   2  20
ATOM     20  C   UNL     1       5.548   7.089  17.268  0.00  0.00    +0.000 C 
ATOM     21  O   UNL     1       5.618   8.170  17.830  0.00  0.00    +0.000 OA
BRANCH  20  22
ATOM     22  O   UNL     1       5.678   6.911  15.926  0.00  0.00    +0.000 OA
BRANCH  22  23
ATOM     23  C   UNL     1       6.626   5.894  15.544  0.00  0.00    +0.000 C 
BRANCH  23  24
ATOM     24  C   UNL     1       6.040   4.812  14.626  0.00  0.00    +0.000 C 
ATOM     25  C   UNL     1       6.913   4.584  13.394  0.00  0.00    +0.000 C 
ATOM     26  C   UNL     1       5.866   3.506  15.406  0.00  0.00    +0.000 C 
ENDBRANCH  23  24
ENDBRANCH  22  23
ENDBRANCH  20  22
ENDBRANCH   2  20
BRANCH   9  27
ATOM     27  O   UNL     1       1.290   3.745  17.208  0.00  0.00    +0.000 OA
ATOM     28  H   UNL     1       1.335   4.702  17.082  0.00  0.00    +0.000 HD
ENDBRANCH   9  27
BRANCH   9  29
ATOM     29  O   UNL     1       1.911   2.175  18.825  0.00  0.00    +0.000 OA
ATOM     30  C   UNL     1       0.614   2.207  19.425  0.00  0.00    +0.000 C 
ENDBRANCH   9  29
TORSDOF 8
ENDMDL
MODEL 4
REMARK VINA RESULT:      -6.9      1.820      6.361
REMARK  Name = 
REMARK  14 active torsions:
REMARK  status: ('A' for Active; 'I' for Inactive)
REMARK    1  A    between atoms: C_1  and  O_2
REMARK    2  A    between atoms: O_2  and  C_3
REMARK    3  A    between atoms: C_8  and  C_9
REMARK    4  A    between atoms: C_10  and  C_11
REMARK    5  A    between atoms: C_11  and  O_13
REMARK    6  A    between atoms: O_13  and  C_14
REMARK    7  A    between atoms: C_14  and  C_15
REMARK    8  A    between atoms: C_15  and  C_16
REMARK    9  A    between atoms: C_15  and  C_17
REMARK   10  A    between atoms: C_18  and  C_19
REMARK   11  A    between atoms: C_21  and  C_22
REMARK   12  A    between atoms: C_24  and  O_25
REMARK   13  A    between atoms: C_24  and  O_26
REMARK   14  A    between atoms: O_26  and  C_27
REMARK                            x       y       z     vdW  Elec       q    Type
REMARK                         _______ _______ _______ _____ _____    ______ ____
ROOT
ATOM      1  C   UNL     1       2.235   6.793  18.104  0.00  0.00    +0.000 C 
ATOM      2  C   UNL     1       1.854   5.465  18.717  0.00  0.00    +0.000 C 
ATOM      3  C   UNL     1       1.534   5.370  20.024  0.00  0.00    +0.000 C 
ATOM      4  C   UNL     1       1.253   4.094  20.784  0.00  0.00    +0.000 C 
ATOM      5  N   UNL     1       1.490   6.456  20.857  0.00  0.00    +0.000 NA
ATOM      6  C   UNL     1       1.678   7.665  20.427  0.00  0.00    +0.000 C 
ATOM      7  C   UNL     1       1.623   8.726  21.504  0.00  0.00    +0.000 C 
ATOM      8  C   UNL     1       1.950   8.019  18.985  0.00  0.00    +0.000 C 
ATOM      9  C   UNL     1       2.003   9.303  18.542  0.00  0.00    +0.000 C 
ENDROOT
BRANCH   1  15
ATOM     10  C   UNL     1       7.145   5.255  16.038  0.00  0.00    +0.000 C 
ATOM     11  O   UNL     1       7.989   4.652  16.691  0.00  0.00    +0.000 OA
ATOM     12  N   UNL     1       6.163   6.072  16.591  0.00  0.00    +0.000 N 
ATOM     13  C   UNL     1       5.224   6.737  15.820  0.00  0.00    +0.000 C 
ATOM     14  C   UNL     1       4.066   7.144  16.348  0.00  0.00    +0.000 C 
ATOM     15  C   UNL     1       3.720   6.798  17.719  0.00  0.00    +0.000 C 
ATOM     16  C   UNL     1       4.721   6.430  18.543  0.00  0.00    +0.000 C 
ATOM     17  C   UNL     1       6.133   6.255  18.046  0.00  0.00    +0.000 C 
BRANCH  10  19
ATOM     18  C   UNL     1       6.375   3.974  14.202  0.00  0.00    +0.000 C 
ATOM     19  O   UNL     1       7.021   5.150  14.683  0.00  0.00    +0.000 OA
ENDBRANCH  10  19
ENDBRANCH   1  15
BRANCH   2  20
ATOM     20  C   UNL     1       2.050   4.257  17.858  0.00  0.00    +0.000 C 
ATOM     21  O   UNL     1       1.147   3.648  17.309  0.00  0.00    +0.000 OA
BRANCH  20  22
ATOM     22  O   UNL     1       3.347   3.847  17.888  0.00  0.00    +0.000 OA
BRANCH  22  23
ATOM     23  C   UNL     1       3.540   2.442  17.624  0.00  0.00    +0.000 C 
BRANCH  23  24
ATOM     24  C   UNL     1       3.647   1.583  18.892  0.00  0.00    +0.000 C 
ATOM     25  C   UNL     1       4.417   2.303  19.997  0.00  0.00    +0.000 C 
ATOM     26  C   UNL     1       2.249   1.197  19.380  0.00  0.00    +0.000 C 
ENDBRANCH  23  24
ENDBRANCH  22  23
ENDBRANCH  20  22
ENDBRANCH   2  20
BRANCH   9  27
ATOM     27  O   UNL     1       2.219   9.630  17.217  0.00  0.00    +0.000 OA
ATOM     28  H   UNL     1       3.055   9.259  16.907  0.00  0.00    +0.000 HD
ENDBRANCH   9  27
BRANCH   9  29
ATOM     29  O   UNL     1       1.841  10.370  19.403  0.00  0.00    +0.000 OA
ATOM     30  C   UNL     1       0.902  11.336  18.927  0.00  0.00    +0.000 C 
ENDBRANCH   9  29
TORSDOF 8
ENDMDL
MODEL 5
REMARK VINA RESULT:      -6.7      6.603      9.735
REMARK  Name = 
REMARK  14 active torsions:
REMARK  status: ('A' for Active; 'I' for Inactive)
REMARK    1  A    between atoms: C_1  and  O_2
REMARK    2  A    between atoms: O_2  and  C_3
REMARK    3  A    between atoms: C_8  and  C_9
REMARK    4  A    between atoms: C_10  and  C_11
REMARK    5  A    between atoms: C_11  and  O_13
REMARK    6  A    between atoms: O_13  and  C_14
REMARK    7  A    between atoms: C_14  and  C_15
REMARK    8  A    between atoms: C_15  and  C_16
REMARK    9  A    between atoms: C_15  and  C_17
REMARK   10  A    between atoms: C_18  and  C_19
REMARK   11  A    between atoms: C_21  and  C_22
REMARK   12  A    between atoms: C_24  and  O_25
REMARK   13  A    between atoms: C_24  and  O_26
REMARK   14  A    between atoms: O_26  and  C_27
REMARK                            x       y       z     vdW  Elec       q    Type
REMARK                         _______ _______ _______ _____ _____    ______ ____
ROOT
ATOM      1  C   UNL     1      -1.358  11.864  19.735  0.00  0.00    +0.000 C 
ATOM      2  C   UNL     1      -1.625  12.131  21.199  0.00  0.00    +0.000 C 
ATOM      3  C   UNL     1      -2.852  12.494  21.626  0.00  0.00    +0.000 C 
ATOM      4  C   UNL     1      -3.222  12.903  23.033  0.00  0.00    +0.000 C 
ATOM      5  N   UNL     1      -3.929  12.599  20.785  0.00  0.00    +0.000 NA
ATOM      6  C   UNL     1      -3.858  12.282  19.530  0.00  0.00    +0.000 C 
ATOM      7  C   UNL     1      -5.142  12.498  18.759  0.00  0.00    +0.000 C 
ATOM      8  C   UNL     1      -2.614  11.754  18.857  0.00  0.00    +0.000 C 
ATOM      9  C   UNL     1      -2.610  11.298  17.576  0.00  0.00    +0.000 C 
ENDROOT
BRANCH   1  15
ATOM     10  C   UNL     1       2.671  15.638  19.222  0.00  0.00    +0.000 C 
ATOM     11  O   UNL     1       2.513  16.828  19.472  0.00  0.00    +0.000 OA
ATOM     12  N   UNL     1       1.645  14.770  18.858  0.00  0.00    +0.000 N 
ATOM     13  C   UNL     1       1.864  13.430  18.585  0.00  0.00    +0.000 C 
ATOM     14  C   UNL     1       0.868  12.542  18.665  0.00  0.00    +0.000 C 
ATOM     15  C   UNL     1      -0.442  12.948  19.151  0.00  0.00    +0.000 C 
ATOM     16  C   UNL     1      -0.739  14.263  19.128  0.00  0.00    +0.000 C 
ATOM     17  C   UNL     1       0.283  15.299  18.736  0.00  0.00    +0.000 C 
BRANCH  10  19
ATOM     18  C   UNL     1       4.961  15.577  18.621  0.00  0.00    +0.000 C 
ATOM     19  O   UNL     1       3.871  14.996  19.333  0.00  0.00    +0.000 OA
ENDBRANCH  10  19
ENDBRANCH   1  15
BRANCH   2  20
ATOM     20  C   UNL     1      -0.429  12.171  22.095  0.00  0.00    +0.000 C 
ATOM     21  O   UNL     1       0.247  13.166  22.300  0.00  0.00    +0.000 OA
BRANCH  20  22
ATOM     22  O   UNL     1      -0.114  10.924  22.537  0.00  0.00    +0.000 OA
BRANCH  22  23
ATOM     23  C   UNL     1       1.089  10.370  21.967  0.00  0.00    +0.000 C 
BRANCH  23  24
ATOM     24  C   UNL     1       0.896   8.980  21.343  0.00  0.00    +0.000 C 
ATOM     25  C   UNL     1      -0.480   8.402  21.669  0.00  0.00    +0.000 C 
ATOM     26  C   UNL     1       1.095   9.059  19.827  0.00  0.00    +0.000 C 
ENDBRANCH  23  24
ENDBRANCH  22  23
ENDBRANCH  20  22
ENDBRANCH   2  20
BRANCH   9  27
ATOM     27  O   UNL     1      -1.480  10.785  16.968  0.00  0.00    +0.000 OA
ATOM     28  H   UNL     1      -1.452  11.036  16.036  0.00  0.00    +0.000 HD
ENDBRANCH   9  27
BRANCH   9  29
ATOM     29  O   UNL     1      -3.750  11.320  16.799  0.00  0.00    +0.000 OA
ATOM     30  C   UNL     1      -3.541  10.805  15.482  0.00  0.00    +0.000 C 
ENDBRANCH   9  29
TORSDOF 8
ENDMDL
MODEL 6
REMARK VINA RESULT:      -6.6      2.780      7.135
REMARK  Name = 
REMARK  14 active torsions:
REMARK  status: ('A' for Active; 'I' for Inactive)
REMARK    1  A    between atoms: C_1  and  O_2
REMARK    2  A    between atoms: O_2  and  C_3
REMARK    3  A    between atoms: C_8  and  C_9
REMARK    4  A    between atoms: C_10  and  C_11
REMARK    5  A    between atoms: C_11  and  O_13
REMARK    6  A    between atoms: O_13  and  C_14
REMARK    7  A    between atoms: C_14  and  C_15
REMARK    8  A    between atoms: C_15  and  C_16
REMARK    9  A    between atoms: C_15  and  C_17
REMARK   10  A    between atoms: C_18  and  C_19
REMARK   11  A    between atoms: C_21  and  C_22
REMARK   12  A    between atoms: C_24  and  O_25
REMARK   13  A    between atoms: C_24  and  O_26
REMARK   14  A    between atoms: O_26  and  C_27
REMARK                            x       y       z     vdW  Elec       q    Type
REMARK                         _______ _______ _______ _____ _____    ______ ____
ROOT
ATOM      1  C   UNL     1       5.357   5.791  17.434  0.00  0.00    +0.000 C 
ATOM      2  C   UNL     1       4.603   4.676  18.124  0.00  0.00    +0.000 C 
ATOM      3  C   UNL     1       5.126   4.042  19.193  0.00  0.00    +0.000 C 
ATOM      4  C   UNL     1       4.535   2.842  19.896  0.00  0.00    +0.000 C 
ATOM      5  N   UNL     1       6.332   4.387  19.743  0.00  0.00    +0.000 NA
ATOM      6  C   UNL     1       7.019   5.401  19.319  0.00  0.00    +0.000 C 
ATOM      7  C   UNL     1       8.340   5.602  20.030  0.00  0.00    +0.000 C 
ATOM      8  C   UNL     1       6.580   6.316  18.201  0.00  0.00    +0.000 C 
ATOM      9  C   UNL     1       7.253   7.451  17.874  0.00  0.00    +0.000 C 
ENDROOT
BRANCH   1  15
ATOM     10  C   UNL     1       5.427   3.367  12.448  0.00  0.00    +0.000 C 
ATOM     11  O   UNL     1       5.926   2.267  12.243  0.00  0.00    +0.000 OA
ATOM     12  N   UNL     1       5.795   4.214  13.490  0.00  0.00    +0.000 N 
ATOM     13  C   UNL     1       5.205   5.450  13.690  0.00  0.00    +0.000 C 
ATOM     14  C   UNL     1       5.241   6.043  14.888  0.00  0.00    +0.000 C 
ATOM     15  C   UNL     1       5.805   5.347  16.036  0.00  0.00    +0.000 C 
ATOM     16  C   UNL     1       6.628   4.307  15.795  0.00  0.00    +0.000 C 
ATOM     17  C   UNL     1       6.866   3.791  14.399  0.00  0.00    +0.000 C 
BRANCH  10  19
ATOM     18  C   UNL     1       3.673   2.943  10.915  0.00  0.00    +0.000 C 
ATOM     19  O   UNL     1       4.395   3.877  11.714  0.00  0.00    +0.000 OA
ENDBRANCH  10  19
ENDBRANCH   1  15
BRANCH   2  20
ATOM     20  C   UNL     1       3.365   4.191  17.440  0.00  0.00    +0.000 C 
ATOM     21  O   UNL     1       3.358   3.483  16.446  0.00  0.00    +0.000 OA
BRANCH  20  22
ATOM     22  O   UNL     1       2.256   4.756  17.989  0.00  0.00    +0.000 OA
BRANCH  22  23
ATOM     23  C   UNL     1       1.345   3.822  18.602  0.00  0.00    +0.000 C 
BRANCH  23  24
ATOM     24  C   UNL     1       0.992   4.162  20.057  0.00  0.00    +0.000 C 
ATOM     25  C   UNL     1       1.182   2.960  20.979  0.00  0.00    +0.000 C 
ATOM     26  C   UNL     1       1.843   5.341  20.536  0.00  0.00    +0.000 C 
ENDBRANCH  23  24
ENDBRANCH  22  23
ENDBRANCH  20  22
ENDBRANCH   2  20
BRANCH   9  27
ATOM     27  O   UNL     1       6.835   8.307  16.873  0.00  0.00    +0.000 OA
ATOM     28  H   UNL     1       7.291   9.157  16.940  0.00  0.00    +0.000 HD
ENDBRANCH   9  27
BRANCH   9  29
ATOM     29  O   UNL     1       8.409   7.820  18.532  0.00  0.00    +0.000 OA
ATOM     30  C   UNL     1       8.639   9.230  18.513  0.00  0.00    +0.000 C 
ENDBRANCH   9  29
TORSDOF 8
ENDMDL
MODEL 7
REMARK VINA RESULT:      -6.6      7.227      9.882
REMARK  Name = 
REMARK  14 active torsions:
REMARK  status: ('A' for Active; 'I' for Inactive)
REMARK    1  A    between atoms: C_1  and  O_2
REMARK    2  A    between atoms: O_2  and  C_3
REMARK    3  A    between atoms: C_8  and  C_9
REMARK    4  A    between atoms: C_10  and  C_11
REMARK    5  A    between atoms: C_11  and  O_13
REMARK    6  A    between atoms: O_13  and  C_14
REMARK    7  A    between atoms: C_14  and  C_15
REMARK    8  A    between atoms: C_15  and  C_16
REMARK    9  A    between atoms: C_15  and  C_17
REMARK   10  A    between atoms: C_18  and  C_19
REMARK   11  A    between atoms: C_21  and  C_22
REMARK   12  A    between atoms: C_24  and  O_25
REMARK   13  A    between atoms: C_24  and  O_26
REMARK   14  A    between atoms: O_26  and  C_27
REMARK                            x       y       z     vdW  Elec       q    Type
REMARK                         _______ _______ _______ _____ _____    ______ ____
ROOT
ATOM      1  C   UNL     1      -0.631  12.656  20.330  0.00  0.00    +0.000 C 
ATOM      2  C   UNL     1      -0.640  11.268  20.929  0.00  0.00    +0.000 C 
ATOM      3  C   UNL     1      -0.755  11.087  22.261  0.00  0.00    +0.000 C 
ATOM      4  C   UNL     1      -0.658   9.770  22.994  0.00  0.00    +0.000 C 
ATOM      5  N   UNL     1      -0.911  12.127  23.139  0.00  0.00    +0.000 NA
ATOM      6  C   UNL     1      -1.037  13.354  22.741  0.00  0.00    +0.000 C 
ATOM      7  C   UNL     1      -1.166  14.364  23.861  0.00  0.00    +0.000 C 
ATOM      8  C   UNL     1      -1.043  13.780  21.293  0.00  0.00    +0.000 C 
ATOM      9  C   UNL     1      -1.319  15.053  20.902  0.00  0.00    +0.000 C 
ENDROOT
BRANCH   1  15
ATOM     10  C   UNL     1       3.898  15.445  18.764  0.00  0.00    +0.000 C 
ATOM     11  O   UNL     1       4.045  15.911  17.640  0.00  0.00    +0.000 OA
ATOM     12  N   UNL     1       3.072  14.365  19.063  0.00  0.00    +0.000 N 
ATOM     13  C   UNL     1       2.931  13.867  20.348  0.00  0.00    +0.000 C 
ATOM     14  C   UNL     1       1.855  13.154  20.693  0.00  0.00    +0.000 C 
ATOM     15  C   UNL     1       0.754  12.982  19.757  0.00  0.00    +0.000 C 
ATOM     16  C   UNL     1       1.006  13.194  18.449  0.00  0.00    +0.000 C 
ATOM     17  C   UNL     1       2.338  13.714  17.972  0.00  0.00    +0.000 C 
BRANCH  10  19
ATOM     18  C   UNL     1       4.165  17.328  20.174  0.00  0.00    +0.000 C 
ATOM     19  O   UNL     1       4.482  15.969  19.881  0.00  0.00    +0.000 OA
ENDBRANCH  10  19
ENDBRANCH   1  15
BRANCH   2  20
ATOM     20  C   UNL     1      -0.316  10.142  20.001  0.00  0.00    +0.000 C 
ATOM     21  O   UNL     1       0.783   9.618  19.910  0.00  0.00    +0.000 OA
BRANCH  20  22
ATOM     22  O   UNL     1      -1.364   9.876  19.176  0.00  0.00    +0.000 OA
BRANCH  22  23
ATOM     23  C   UNL     1      -1.114  10.141  17.781  0.00  0.00    +0.000 C 
BRANCH  23  24
ATOM     24  C   UNL     1      -2.146  11.076  17.133  0.00  0.00    +0.000 C 
ATOM     25  C   UNL     1      -2.664  10.513  15.811  0.00  0.00    +0.000 C 
ATOM     26  C   UNL     1      -3.307  11.321  18.100  0.00  0.00    +0.000 C 
ENDBRANCH  23  24
ENDBRANCH  22  23
ENDBRANCH  20  22
ENDBRANCH   2  20
BRANCH   9  27
ATOM     27  O   UNL     1      -1.356  15.438  19.576  0.00  0.00    +0.000 OA
ATOM     28  H   UNL     1      -1.468  14.670  19.002  0.00  0.00    +0.000 HD
ENDBRANCH   9  27
BRANCH   9  29
ATOM     29  O   UNL     1      -1.581  16.048  21.822  0.00  0.00    +0.000 OA
ATOM     30  C   UNL     1      -2.735  16.824  21.494  0.00  0.00    +0.000 C 
ENDBRANCH   9  29
TORSDOF 8
ENDMDL
MODEL 8
REMARK VINA RESULT:      -6.4      7.492     10.105
REMARK  Name = 
REMARK  14 active torsions:
REMARK  status: ('A' for Active; 'I' for Inactive)
REMARK    1  A    between atoms: C_1  and  O_2
REMARK    2  A    between atoms: O_2  and  C_3
REMARK    3  A    between atoms: C_8  and  C_9
REMARK    4  A    between atoms: C_10  and  C_11
REMARK    5  A    between atoms: C_11  and  O_13
REMARK    6  A    between atoms: O_13  and  C_14
REMARK    7  A    between atoms: C_14  and  C_15
REMARK    8  A    between atoms: C_15  and  C_16
REMARK    9  A    between atoms: C_15  and  C_17
REMARK   10  A    between atoms: C_18  and  C_19
REMARK   11  A    between atoms: C_21  and  C_22
REMARK   12  A    between atoms: C_24  and  O_25
REMARK   13  A    between atoms: C_24  and  O_26
REMARK   14  A    between atoms: O_26  and  C_27
REMARK                            x       y       z     vdW  Elec       q    Type
REMARK                         _______ _______ _______ _____ _____    ______ ____
ROOT
ATOM      1  C   UNL     1      -1.430  12.084  20.002  0.00  0.00    +0.000 C 
ATOM      2  C   UNL     1      -1.923  12.444  21.386  0.00  0.00    +0.000 C 
ATOM      3  C   UNL     1      -3.227  12.708  21.612  0.00  0.00    +0.000 C 
ATOM      4  C   UNL     1      -3.827  13.193  22.911  0.00  0.00    +0.000 C 
ATOM      5  N   UNL     1      -4.180  12.626  20.631  0.00  0.00    +0.000 NA
ATOM      6  C   UNL     1      -3.905  12.213  19.433  0.00  0.00    +0.000 C 
ATOM      7  C   UNL     1      -5.083  12.225  18.484  0.00  0.00    +0.000 C 
ATOM      8  C   UNL     1      -2.535  11.767  18.983  0.00  0.00    +0.000 C 
ATOM      9  C   UNL     1      -2.308  11.207  17.765  0.00  0.00    +0.000 C 
ENDROOT
BRANCH   1  15
ATOM     10  C   UNL     1       2.326  16.146  19.632  0.00  0.00    +0.000 C 
ATOM     11  O   UNL     1       2.052  17.330  19.791  0.00  0.00    +0.000 OA
ATOM     12  N   UNL     1       1.411  15.178  19.229  0.00  0.00    +0.000 N 
ATOM     13  C   UNL     1       1.758  13.847  19.063  0.00  0.00    +0.000 C 
ATOM     14  C   UNL     1       0.831  12.885  19.105  0.00  0.00    +0.000 C 
ATOM     15  C   UNL     1      -0.548  13.207  19.440  0.00  0.00    +0.000 C 
ATOM     16  C   UNL     1      -0.942  14.489  19.307  0.00  0.00    +0.000 C 
ATOM     17  C   UNL     1       0.030  15.584  18.947  0.00  0.00    +0.000 C 
BRANCH  10  19
ATOM     18  C   UNL     1       4.112  15.922  21.170  0.00  0.00    +0.000 C 
ATOM     19  O   UNL     1       3.555  15.613  19.895  0.00  0.00    +0.000 OA
ENDBRANCH  10  19
ENDBRANCH   1  15
BRANCH   2  20
ATOM     20  C   UNL     1      -0.874  12.687  22.422  0.00  0.00    +0.000 C 
ATOM     21  O   UNL     1      -0.677  13.761  22.966  0.00  0.00    +0.000 OA
BRANCH  20  22
ATOM     22  O   UNL     1      -0.080  11.592  22.574  0.00  0.00    +0.000 OA
BRANCH  22  23
ATOM     23  C   UNL     1      -0.745  10.439  23.127  0.00  0.00    +0.000 C 
BRANCH  23  24
ATOM     24  C   UNL     1      -0.096   9.103  22.738  0.00  0.00    +0.000 C 
ATOM     25  C   UNL     1      -0.684   8.548  21.443  0.00  0.00    +0.000 C 
ATOM     26  C   UNL     1       1.418   9.279  22.604  0.00  0.00    +0.000 C 
ENDBRANCH  23  24
ENDBRANCH  22  23
ENDBRANCH  20  22
ENDBRANCH   2  20
BRANCH   9  27
ATOM     27  O   UNL     1      -1.061  10.768  17.363  0.00  0.00    +0.000 OA
ATOM     28  H   UNL     1      -1.098  10.417  16.464  0.00  0.00    +0.000 HD
ENDBRANCH   9  27
BRANCH   9  29
ATOM     29  O   UNL     1      -3.325  11.042  16.847  0.00  0.00    +0.000 OA
ATOM     30  C   UNL     1      -2.850  10.807  15.520  0.00  0.00    +0.000 C 
ENDBRANCH   9  29
TORSDOF 8
ENDMDL
MODEL 9
REMARK VINA RESULT:      -6.4      3.824      8.108
REMARK  Name = 
REMARK  14 active torsions:
REMARK  status: ('A' for Active; 'I' for Inactive)
REMARK    1  A    between atoms: C_1  and  O_2
REMARK    2  A    between atoms: O_2  and  C_3
REMARK    3  A    between atoms: C_8  and  C_9
REMARK    4  A    between atoms: C_10  and  C_11
REMARK    5  A    between atoms: C_11  and  O_13
REMARK    6  A    between atoms: O_13  and  C_14
REMARK    7  A    between atoms: C_14  and  C_15
REMARK    8  A    between atoms: C_15  and  C_16
REMARK    9  A    between atoms: C_15  and  C_17
REMARK   10  A    between atoms: C_18  and  C_19
REMARK   11  A    between atoms: C_21  and  C_22
REMARK   12  A    between atoms: C_24  and  O_25
REMARK   13  A    between atoms: C_24  and  O_26
REMARK   14  A    between atoms: O_26  and  C_27
REMARK                            x       y       z     vdW  Elec       q    Type
REMARK                         _______ _______ _______ _____ _____    ______ ____
ROOT
ATOM      1  C   UNL     1       0.706  10.403  19.761  0.00  0.00    +0.000 C 
ATOM      2  C   UNL     1       0.373  10.575  21.226  0.00  0.00    +0.000 C 
ATOM      3  C   UNL     1       0.463   9.538  22.085  0.00  0.00    +0.000 C 
ATOM      4  C   UNL     1       0.049   9.545  23.538  0.00  0.00    +0.000 C 
ATOM      5  N   UNL     1       0.895   8.296  21.704  0.00  0.00    +0.000 NA
ATOM      6  C   UNL     1       1.322   8.050  20.505  0.00  0.00    +0.000 C 
ATOM      7  C   UNL     1       1.724   6.611  20.267  0.00  0.00    +0.000 C 
ATOM      8  C   UNL     1       1.408   9.083  19.407  0.00  0.00    +0.000 C 
ATOM      9  C   UNL     1       1.991   8.830  18.205  0.00  0.00    +0.000 C 
ENDROOT
BRANCH   1  15
ATOM     10  C   UNL     1      -4.542  11.332  18.230  0.00  0.00    +0.000 C 
ATOM     11  O   UNL     1      -5.398  10.455  18.200  0.00  0.00    +0.000 OA
ATOM     12  N   UNL     1      -3.175  11.096  18.117  0.00  0.00    +0.000 N 
ATOM     13  C   UNL     1      -2.236  12.114  18.158  0.00  0.00    +0.000 C 
ATOM     14  C   UNL     1      -0.964  11.863  18.481  0.00  0.00    +0.000 C 
ATOM     15  C   UNL     1      -0.562  10.531  18.907  0.00  0.00    +0.000 C 
ATOM     16  C   UNL     1      -1.372   9.501  18.588  0.00  0.00    +0.000 C 
ATOM     17  C   UNL     1      -2.708   9.718  17.926  0.00  0.00    +0.000 C 
BRANCH  10  19
ATOM     18  C   UNL     1      -5.581  12.950  19.610  0.00  0.00    +0.000 C 
ATOM     19  O   UNL     1      -4.819  12.651  18.443  0.00  0.00    +0.000 OA
ENDBRANCH  10  19
ENDBRANCH   1  15
BRANCH   2  20
ATOM     20  C   UNL     1      -0.245  11.879  21.618  0.00  0.00    +0.000 C 
ATOM     21  O   UNL     1      -1.437  12.044  21.819  0.00  0.00    +0.000 OA
BRANCH  20  22
ATOM     22  O   UNL     1       0.675  12.881  21.582  0.00  0.00    +0.000 OA
BRANCH  22  23
ATOM     23  C   UNL     1       0.143  14.173  21.230  0.00  0.00    +0.000 C 
BRANCH  23  24
ATOM     24  C   UNL     1       0.904  14.868  20.092  0.00  0.00    +0.000 C 
ATOM     25  C   UNL     1       1.960  13.952  19.479  0.00  0.00    +0.000 C 
ATOM     26  C   UNL     1      -0.081  15.339  19.019  0.00  0.00    +0.000 C 
ENDBRANCH  23  24
ENDBRANCH  22  23
ENDBRANCH  20  22
ENDBRANCH   2  20
BRANCH   9  27
ATOM     27  O   UNL     1       2.100   9.783  17.210  0.00  0.00    +0.000 OA
ATOM     28  H   UNL     1       1.250  10.216  17.059  0.00  0.00    +0.000 HD
ENDBRANCH   9  27
BRANCH   9  29
ATOM     29  O   UNL     1       2.515   7.589  17.904  0.00  0.00    +0.000 OA
ATOM     30  C   UNL     1       3.861   7.650  17.429  0.00  0.00    +0.000 C 
ENDBRANCH   9  29
TORSDOF 8
ENDMDL
