MODEL 1
REMARK VINA RESULT:      -7.0      0.000      0.000
REMARK  Name = 
REMARK  3 active torsions:
REMARK  status: ('A' for Active; 'I' for Inactive)
REMARK    1  A    between atoms: C_1  and  C_2
REMARK    2  A    between atoms: C_4  and  C_5
REMARK    3  A    between atoms: C_11  and  C_13
REMARK                            x       y       z     vdW  Elec       q    Type
REMARK                         _______ _______ _______ _____ _____    ______ ____
ROOT
ATOM      1  C   UNL     1       6.532   4.854  14.445  0.00  0.00    +0.000 C 
ATOM      2  O   UNL     1       7.519   5.586  14.364  0.00  0.00    +0.000 OA
ATOM      3  N   UNL     1       5.677   4.898  15.554  0.00  0.00    +0.000 N 
ATOM      4  C   UNL     1       5.887   5.946  16.562  0.00  0.00    +0.000 C 
ATOM      5  C   UNL     1       4.578   6.315  17.287  0.00  0.00    +0.000 C 
ATOM      6  N   UNL     1       3.853   5.124  17.744  0.00  0.00    +0.000 N 
ATOM      7  C   UNL     1       3.551   4.970  19.091  0.00  0.00    +0.000 C 
ATOM      8  O   UNL     1       3.811   5.859  19.906  0.00  0.00    +0.000 OA
ATOM      9  C   UNL     1       3.615   4.132  16.691  0.00  0.00    +0.000 C 
ATOM     10  C   UNL     1       4.944   3.720  16.051  0.00  0.00    +0.000 C 
ENDROOT
BRANCH   1  14
ATOM     11  C   UNL     1       6.577   1.364  10.733  0.00  0.00    +0.000 C 
ATOM     12  C   UNL     1       6.336   2.405  11.748  0.00  0.00    +0.000 A 
ATOM     13  C   UNL     1       7.117   3.071  12.658  0.00  0.00    +0.000 A 
ATOM     14  C   UNL     1       6.214   3.921  13.353  0.00  0.00    +0.000 A 
ATOM     15  N   UNL     1       4.980   3.816  12.826  0.00  0.00    +0.000 NA
ATOM     16  O   UNL     1       5.057   2.847  11.849  0.00  0.00    +0.000 OA
ENDBRANCH   1  14
BRANCH   7  17
ATOM     17  C   UNL     1       2.823   3.674  19.533  0.00  0.00    +0.000 C 
ATOM     18  C   UNL     1       1.410   3.945  20.038  0.00  0.00    +0.000 C 
ATOM     19  C   UNL     1       1.177   2.847  21.042  0.00  0.00    +0.000 C 
ATOM     20  C   UNL     1       2.557   2.584  21.587  0.00  0.00    +0.000 C 
ATOM     21  O   UNL     1       3.502   2.973  20.585  0.00  0.00    +0.000 OA
ENDBRANCH   7  17
TORSDOF 2
ENDMDL
MODEL 2
REMARK VINA RESULT:      -7.0      1.046      1.182
REMARK  Name = 
REMARK  3 active torsions:
REMARK  status: ('A' for Active; 'I' for Inactive)
REMARK    1  A    between atoms: C_1  and  C_2
REMARK    2  A    between atoms: C_4  and  C_5
REMARK    3  A    between atoms: C_11  and  C_13
REMARK                            x       y       z     vdW  Elec       q    Type
REMARK                         _______ _______ _______ _____ _____    ______ ____
ROOT
ATOM      1  C   UNL     1       6.589   4.631  14.344  0.00  0.00    +0.000 C 
ATOM      2  O   UNL     1       7.706   5.140  14.253  0.00  0.00    +0.000 OA
ATOM      3  N   UNL     1       5.843   4.708  15.529  0.00  0.00    +0.000 N 
ATOM      4  C   UNL     1       6.351   5.543  16.625  0.00  0.00    +0.000 C 
ATOM      5  C   UNL     1       5.211   6.084  17.510  0.00  0.00    +0.000 C 
ATOM      6  N   UNL     1       4.272   5.024  17.896  0.00  0.00    +0.000 N 
ATOM      7  C   UNL     1       4.036   4.761  19.239  0.00  0.00    +0.000 C 
ATOM      8  O   UNL     1       4.545   5.457  20.121  0.00  0.00    +0.000 OA
ATOM      9  C   UNL     1       3.745   4.255  16.764  0.00  0.00    +0.000 C 
ATOM     10  C   UNL     1       4.902   3.658  15.956  0.00  0.00    +0.000 C 
ENDROOT
BRANCH   1  14
ATOM     11  C   UNL     1       3.590   2.896  10.607  0.00  0.00    +0.000 C 
ATOM     12  C   UNL     1       4.614   3.238  11.610  0.00  0.00    +0.000 A 
ATOM     13  C   UNL     1       4.671   4.083  12.690  0.00  0.00    +0.000 A 
ATOM     14  C   UNL     1       5.995   3.940  13.189  0.00  0.00    +0.000 A 
ATOM     15  N   UNL     1       6.657   3.003  12.485  0.00  0.00    +0.000 NA
ATOM     16  O   UNL     1       5.802   2.594  11.484  0.00  0.00    +0.000 OA
ENDBRANCH   1  14
BRANCH   7  17
ATOM     17  C   UNL     1       3.070   3.602  19.598  0.00  0.00    +0.000 C 
ATOM     18  C   UNL     1       1.649   4.091  19.858  0.00  0.00    +0.000 C 
ATOM     19  C   UNL     1       1.107   3.091  20.845  0.00  0.00    +0.000 C 
ATOM     20  C   UNL     1       2.333   2.671  21.615  0.00  0.00    +0.000 C 
ATOM     21  O   UNL     1       3.468   2.873  20.767  0.00  0.00    +0.000 OA
ENDBRANCH   7  17
TORSDOF 2
ENDMDL
MODEL 3
REMARK VINA RESULT:      -6.8      1.286      7.308
REMARK  Name = 
REMARK  3 active torsions:
REMARK  status: ('A' for Active; 'I' for Inactive)
REMARK    1  A    between atoms: C_1  and  C_2
REMARK    2  A    between atoms: C_4  and  C_5
REMARK    3  A    between atoms: C_11  and  C_13
REMARK                            x       y       z     vdW  Elec       q    Type
REMARK                         _______ _______ _______ _____ _____    ______ ____
ROOT
ATOM      1  C   UNL     1       3.208   5.983  18.705  0.00  0.00    +0.000 C 
ATOM      2  O   UNL     1       3.084   7.162  19.037  0.00  0.00    +0.000 OA
ATOM      3  N   UNL     1       4.099   5.597  17.695  0.00  0.00    +0.000 N 
ATOM      4  C   UNL     1       5.007   6.607  17.136  0.00  0.00    +0.000 C 
ATOM      5  C   UNL     1       6.311   5.978  16.607  0.00  0.00    +0.000 C 
ATOM      6  N   UNL     1       6.047   4.813  15.754  0.00  0.00    +0.000 N 
ATOM      7  C   UNL     1       6.514   4.790  14.446  0.00  0.00    +0.000 C 
ATOM      8  O   UNL     1       7.220   5.702  14.008  0.00  0.00    +0.000 OA
ATOM      9  C   UNL     1       5.184   3.804  16.376  0.00  0.00    +0.000 C 
ATOM     10  C   UNL     1       3.861   4.443  16.810  0.00  0.00    +0.000 C 
ENDROOT
BRANCH   1  14
ATOM     11  C   UNL     1       1.320   2.491  21.900  0.00  0.00    +0.000 C 
ATOM     12  C   UNL     1       1.693   3.432  20.829  0.00  0.00    +0.000 A 
ATOM     13  C   UNL     1       2.712   4.331  20.639  0.00  0.00    +0.000 A 
ATOM     14  C   UNL     1       2.427   4.938  19.385  0.00  0.00    +0.000 A 
ATOM     15  N   UNL     1       1.340   4.369  18.831  0.00  0.00    +0.000 NA
ATOM     16  O   UNL     1       0.870   3.456  19.750  0.00  0.00    +0.000 OA
ENDBRANCH   1  14
BRANCH   7  17
ATOM     17  C   UNL     1       6.172   3.558  13.569  0.00  0.00    +0.000 C 
ATOM     18  C   UNL     1       7.052   3.467  12.327  0.00  0.00    +0.000 C 
ATOM     19  C   UNL     1       6.172   2.775  11.320  0.00  0.00    +0.000 C 
ATOM     20  C   UNL     1       4.787   3.224  11.712  0.00  0.00    +0.000 C 
ATOM     21  O   UNL     1       4.814   3.552  13.105  0.00  0.00    +0.000 OA
ENDBRANCH   7  17
TORSDOF 2
ENDMDL
MODEL 4
REMARK VINA RESULT:      -6.8      4.812      6.516
REMARK  Name = 
REMARK  3 active torsions:
REMARK  status: ('A' for Active; 'I' for Inactive)
REMARK    1  A    between atoms: C_1  and  C_2
REMARK    2  A    between atoms: C_4  and  C_5
REMARK    3  A    between atoms: C_11  and  C_13
REMARK                            x       y       z     vdW  Elec       q    Type
REMARK                         _______ _______ _______ _____ _____    ______ ____
ROOT
ATOM      1  C   UNL     1       3.625   5.910  18.800  0.00  0.00    +0.000 C 
ATOM      2  O   UNL     1       3.687   5.009  19.637  0.00  0.00    +0.000 OA
ATOM      3  N   UNL     1       2.762   7.002  18.963  0.00  0.00    +0.000 N 
ATOM      4  C   UNL     1       2.036   7.140  20.232  0.00  0.00    +0.000 C 
ATOM      5  C   UNL     1       1.712   8.613  20.551  0.00  0.00    +0.000 C 
ATOM      6  N   UNL     1       1.122   9.304  19.398  0.00  0.00    +0.000 N 
ATOM      7  C   UNL     1      -0.128   9.898  19.510  0.00  0.00    +0.000 C 
ATOM      8  O   UNL     1      -0.724   9.925  20.590  0.00  0.00    +0.000 OA
ATOM      9  C   UNL     1       1.912   9.188  18.168  0.00  0.00    +0.000 C 
ATOM     10  C   UNL     1       2.141   7.712  17.830  0.00  0.00    +0.000 C 
ENDROOT
BRANCH   1  14
ATOM     11  C   UNL     1       6.091   4.714  14.504  0.00  0.00    +0.000 C 
ATOM     12  C   UNL     1       5.514   5.254  15.748  0.00  0.00    +0.000 A 
ATOM     13  C   UNL     1       4.602   4.806  16.669  0.00  0.00    +0.000 A 
ATOM     14  C   UNL     1       4.483   5.869  17.605  0.00  0.00    +0.000 A 
ATOM     15  N   UNL     1       5.338   6.860  17.292  0.00  0.00    +0.000 NA
ATOM     16  O   UNL     1       5.952   6.485  16.117  0.00  0.00    +0.000 OA
ENDBRANCH   1  14
BRANCH   7  17
ATOM     17  C   UNL     1      -0.729  10.577  18.253  0.00  0.00    +0.000 C 
ATOM     18  C   UNL     1      -1.863  11.537  18.598  0.00  0.00    +0.000 C 
ATOM     19  C   UNL     1      -2.744  11.497  17.377  0.00  0.00    +0.000 C 
ATOM     20  C   UNL     1      -2.549  10.094  16.862  0.00  0.00    +0.000 C 
ATOM     21  O   UNL     1      -1.265   9.643  17.304  0.00  0.00    +0.000 OA
ENDBRANCH   7  17
TORSDOF 2
ENDMDL
MODEL 5
REMARK VINA RESULT:      -6.6      2.855      5.021
REMARK  Name = 
REMARK  3 active torsions:
REMARK  status: ('A' for Active; 'I' for Inactive)
REMARK    1  A    between atoms: C_1  and  C_2
REMARK    2  A    between atoms: C_4  and  C_5
REMARK    3  A    between atoms: C_11  and  C_13
REMARK                            x       y       z     vdW  Elec       q    Type
REMARK                         _______ _______ _______ _____ _____    ______ ____
ROOT
ATOM      1  C   UNL     1       6.857   5.905  16.499  0.00  0.00    +0.000 C 
ATOM      2  O   UNL     1       7.191   5.864  15.316  0.00  0.00    +0.000 OA
ATOM      3  N   UNL     1       5.842   5.079  17.002  0.00  0.00    +0.000 N 
ATOM      4  C   UNL     1       5.281   4.043  16.125  0.00  0.00    +0.000 C 
ATOM      5  C   UNL     1       4.746   2.840  16.926  0.00  0.00    +0.000 C 
ATOM      6  N   UNL     1       3.891   3.265  18.041  0.00  0.00    +0.000 N 
ATOM      7  C   UNL     1       2.582   2.811  18.125  0.00  0.00    +0.000 C 
ATOM      8  O   UNL     1       2.142   1.988  17.318  0.00  0.00    +0.000 OA
ATOM      9  C   UNL     1       4.515   4.256  18.924  0.00  0.00    +0.000 C 
ATOM     10  C   UNL     1       4.956   5.477  18.110  0.00  0.00    +0.000 C 
ENDROOT
BRANCH   1  14
ATOM     11  C   UNL     1       8.925   9.885  18.917  0.00  0.00    +0.000 C 
ATOM     12  C   UNL     1       8.418   8.604  18.394  0.00  0.00    +0.000 A 
ATOM     13  C   UNL     1       7.749   8.215  17.261  0.00  0.00    +0.000 A 
ATOM     14  C   UNL     1       7.537   6.820  17.429  0.00  0.00    +0.000 A 
ATOM     15  N   UNL     1       8.120   6.396  18.566  0.00  0.00    +0.000 NA
ATOM     16  O   UNL     1       8.637   7.518  19.177  0.00  0.00    +0.000 OA
ENDBRANCH   1  14
BRANCH   7  17
ATOM     17  C   UNL     1       1.704   3.323  19.296  0.00  0.00    +0.000 C 
ATOM     18  C   UNL     1       1.641   4.845  19.352  0.00  0.00    +0.000 C 
ATOM     19  C   UNL     1       1.445   5.137  20.817  0.00  0.00    +0.000 C 
ATOM     20  C   UNL     1       2.160   3.994  21.492  0.00  0.00    +0.000 C 
ATOM     21  O   UNL     1       2.166   2.888  20.583  0.00  0.00    +0.000 OA
ENDBRANCH   7  17
TORSDOF 2
ENDMDL
MODEL 6
REMARK VINA RESULT:      -6.5      5.113      8.596
REMARK  Name = 
REMARK  3 active torsions:
REMARK  status: ('A' for Active; 'I' for Inactive)
REMARK    1  A    between atoms: C_1  and  C_2
REMARK    2  A    between atoms: C_4  and  C_5
REMARK    3  A    between atoms: C_11  and  C_13
REMARK                            x       y       z     vdW  Elec       q    Type
REMARK                         _______ _______ _______ _____ _____    ______ ____
ROOT
ATOM      1  C   UNL     1       0.155   9.849  20.104  0.00  0.00    +0.000 C 
ATOM      2  O   UNL     1      -0.011  10.101  21.297  0.00  0.00    +0.000 OA
ATOM      3  N   UNL     1       1.051   8.856  19.683  0.00  0.00    +0.000 N 
ATOM      4  C   UNL     1       1.683   8.005  20.700  0.00  0.00    +0.000 C 
ATOM      5  C   UNL     1       2.046   6.615  20.140  0.00  0.00    +0.000 C 
ATOM      6  N   UNL     1       2.753   6.712  18.857  0.00  0.00    +0.000 N 
ATOM      7  C   UNL     1       4.016   6.153  18.717  0.00  0.00    +0.000 C 
ATOM      8  O   UNL     1       4.528   5.502  19.631  0.00  0.00    +0.000 OA
ATOM      9  C   UNL     1       2.056   7.523  17.854  0.00  0.00    +0.000 C 
ATOM     10  C   UNL     1       1.789   8.926  18.410  0.00  0.00    +0.000 C 
ENDROOT
BRANCH   1  14
ATOM     11  C   UNL     1      -2.992  11.327  16.380  0.00  0.00    +0.000 C 
ATOM     12  C   UNL     1      -1.998  11.121  17.448  0.00  0.00    +0.000 A 
ATOM     13  C   UNL     1      -1.581  10.046  18.191  0.00  0.00    +0.000 A 
ATOM     14  C   UNL     1      -0.609  10.579  19.081  0.00  0.00    +0.000 A 
ATOM     15  N   UNL     1      -0.409  11.885  18.821  0.00  0.00    +0.000 NA
ATOM     16  O   UNL     1      -1.301  12.222  17.826  0.00  0.00    +0.000 OA
ENDBRANCH   1  14
BRANCH   7  17
ATOM     17  C   UNL     1       4.742   6.319  17.357  0.00  0.00    +0.000 C 
ATOM     18  C   UNL     1       4.754   5.029  16.543  0.00  0.00    +0.000 C 
ATOM     19  C   UNL     1       6.020   5.134  15.734  0.00  0.00    +0.000 C 
ATOM     20  C   UNL     1       6.933   5.932  16.629  0.00  0.00    +0.000 C 
ATOM     21  O   UNL     1       6.111   6.727  17.490  0.00  0.00    +0.000 OA
ENDBRANCH   7  17
TORSDOF 2
ENDMDL
MODEL 7
REMARK VINA RESULT:      -6.5      4.536      6.479
REMARK  Name = 
REMARK  3 active torsions:
REMARK  status: ('A' for Active; 'I' for Inactive)
REMARK    1  A    between atoms: C_1  and  C_2
REMARK    2  A    between atoms: C_4  and  C_5
REMARK    3  A    between atoms: C_11  and  C_13
REMARK                            x       y       z     vdW  Elec       q    Type
REMARK                         _______ _______ _______ _____ _____    ______ ____
ROOT
ATOM      1  C   UNL     1       3.328   4.995  19.027  0.00  0.00    +0.000 C 
ATOM      2  O   UNL     1       3.112   4.007  19.728  0.00  0.00    +0.000 OA
ATOM      3  N   UNL     1       2.656   6.206  19.241  0.00  0.00    +0.000 N 
ATOM      4  C   UNL     1       1.794   6.331  20.424  0.00  0.00    +0.000 C 
ATOM      5  C   UNL     1       1.692   7.790  20.909  0.00  0.00    +0.000 C 
ATOM      6  N   UNL     1       1.402   8.713  19.805  0.00  0.00    +0.000 N 
ATOM      7  C   UNL     1       0.273   9.520  19.854  0.00  0.00    +0.000 C 
ATOM      8  O   UNL     1      -0.455   9.534  20.850  0.00  0.00    +0.000 OA
ATOM      9  C   UNL     1       2.324   8.593  18.672  0.00  0.00    +0.000 C 
ATOM     10  C   UNL     1       2.335   7.151  18.157  0.00  0.00    +0.000 C 
ENDROOT
BRANCH   1  14
ATOM     11  C   UNL     1       5.981   4.069  14.776  0.00  0.00    +0.000 C 
ATOM     12  C   UNL     1       5.405   4.457  16.076  0.00  0.00    +0.000 A 
ATOM     13  C   UNL     1       4.240   4.176  16.744  0.00  0.00    +0.000 A 
ATOM     14  C   UNL     1       4.324   4.931  17.946  0.00  0.00    +0.000 A 
ATOM     15  N   UNL     1       5.511   5.561  18.016  0.00  0.00    +0.000 NA
ATOM     16  O   UNL     1       6.165   5.288  16.834  0.00  0.00    +0.000 OA
ENDBRANCH   1  14
BRANCH   7  17
ATOM     17  C   UNL     1      -0.016  10.446  18.645  0.00  0.00    +0.000 C 
ATOM     18  C   UNL     1      -0.113  11.914  19.048  0.00  0.00    +0.000 C 
ATOM     19  C   UNL     1      -1.066  12.496  18.037  0.00  0.00    +0.000 C 
ATOM     20  C   UNL     1      -1.972  11.335  17.714  0.00  0.00    +0.000 C 
ATOM     21  O   UNL     1      -1.242  10.130  17.969  0.00  0.00    +0.000 OA
ENDBRANCH   7  17
TORSDOF 2
ENDMDL
MODEL 8
REMARK VINA RESULT:      -6.4      4.564      6.500
REMARK  Name = 
REMARK  3 active torsions:
REMARK  status: ('A' for Active; 'I' for Inactive)
REMARK    1  A    between atoms: C_1  and  C_2
REMARK    2  A    between atoms: C_4  and  C_5
REMARK    3  A    between atoms: C_11  and  C_13
REMARK                            x       y       z     vdW  Elec       q    Type
REMARK                         _______ _______ _______ _____ _____    ______ ____
ROOT
ATOM      1  C   UNL     1       3.156   4.940  19.293  0.00  0.00    +0.000 C 
ATOM      2  O   UNL     1       2.990   4.055  20.132  0.00  0.00    +0.000 OA
ATOM      3  N   UNL     1       2.518   6.183  19.403  0.00  0.00    +0.000 N 
ATOM      4  C   UNL     1       1.760   6.477  20.626  0.00  0.00    +0.000 C 
ATOM      5  C   UNL     1       1.716   7.988  20.925  0.00  0.00    +0.000 C 
ATOM      6  N   UNL     1       1.343   8.768  19.739  0.00  0.00    +0.000 N 
ATOM      7  C   UNL     1       0.231   9.598  19.776  0.00  0.00    +0.000 C 
ATOM      8  O   UNL     1      -0.410   9.755  20.818  0.00  0.00    +0.000 OA
ATOM      9  C   UNL     1       2.165   8.484  18.559  0.00  0.00    +0.000 C 
ATOM     10  C   UNL     1       2.117   6.987  18.236  0.00  0.00    +0.000 C 
ENDROOT
BRANCH   1  14
ATOM     11  C   UNL     1       7.017   4.831  15.970  0.00  0.00    +0.000 C 
ATOM     12  C   UNL     1       5.781   4.741  16.766  0.00  0.00    +0.000 A 
ATOM     13  C   UNL     1       5.366   5.241  17.974  0.00  0.00    +0.000 A 
ATOM     14  C   UNL     1       4.057   4.716  18.151  0.00  0.00    +0.000 A 
ATOM     15  N   UNL     1       3.692   4.007  17.067  0.00  0.00    +0.000 NA
ATOM     16  O   UNL     1       4.782   3.999  16.224  0.00  0.00    +0.000 OA
ENDBRANCH   1  14
BRANCH   7  17
ATOM     17  C   UNL     1      -0.149  10.368  18.485  0.00  0.00    +0.000 C 
ATOM     18  C   UNL     1      -0.912  11.655  18.779  0.00  0.00    +0.000 C 
ATOM     19  C   UNL     1      -1.786  11.834  17.566  0.00  0.00    +0.000 C 
ATOM     20  C   UNL     1      -2.056  10.417  17.128  0.00  0.00    +0.000 C 
ATOM     21  O   UNL     1      -0.973   9.604  17.591  0.00  0.00    +0.000 OA
ENDBRANCH   7  17
TORSDOF 2
ENDMDL
MODEL 9
REMARK VINA RESULT:      -6.4      4.431      8.311
REMARK  Name = 
REMARK  3 active torsions:
REMARK  status: ('A' for Active; 'I' for Inactive)
REMARK    1  A    between atoms: C_1  and  C_2
REMARK    2  A    between atoms: C_4  and  C_5
REMARK    3  A    between atoms: C_11  and  C_13
REMARK                            x       y       z     vdW  Elec       q    Type
REMARK                         _______ _______ _______ _____ _____    ______ ____
ROOT
ATOM      1  C   UNL     1       0.945   8.808  20.771  0.00  0.00    +0.000 C 
ATOM      2  O   UNL     1       0.757   8.796  21.987  0.00  0.00    +0.000 OA
ATOM      3  N   UNL     1       1.629   7.769  20.125  0.00  0.00    +0.000 N 
ATOM      4  C   UNL     1       1.990   6.577  20.903  0.00  0.00    +0.000 C 
ATOM      5  C   UNL     1       2.079   5.319  20.016  0.00  0.00    +0.000 C 
ATOM      6  N   UNL     1       2.875   5.559  18.807  0.00  0.00    +0.000 N 
ATOM      7  C   UNL     1       3.992   4.777  18.546  0.00  0.00    +0.000 C 
ATOM      8  O   UNL     1       4.286   3.826  19.273  0.00  0.00    +0.000 OA
ATOM      9  C   UNL     1       2.441   6.726  18.032  0.00  0.00    +0.000 C 
ATOM     10  C   UNL     1       2.449   7.975  18.918  0.00  0.00    +0.000 C 
ENDROOT
BRANCH   1  14
ATOM     11  C   UNL     1      -1.742  11.920  17.761  0.00  0.00    +0.000 C 
ATOM     12  C   UNL     1      -0.800  11.191  18.628  0.00  0.00    +0.000 A 
ATOM     13  C   UNL     1      -0.773   9.942  19.197  0.00  0.00    +0.000 A 
ATOM     14  C   UNL     1       0.430   9.919  19.955  0.00  0.00    +0.000 A 
ATOM     15  N   UNL     1       1.112  11.066  19.778  0.00  0.00    +0.000 NA
ATOM     16  O   UNL     1       0.325  11.865  18.977  0.00  0.00    +0.000 OA
ENDBRANCH   1  14
BRANCH   7  17
ATOM     17  C   UNL     1       4.828   5.098  17.279  0.00  0.00    +0.000 C 
ATOM     18  C   UNL     1       4.794   3.965  16.259  0.00  0.00    +0.000 C 
ATOM     19  C   UNL     1       6.120   4.082  15.556  0.00  0.00    +0.000 C 
ATOM     20  C   UNL     1       7.028   4.632  16.627  0.00  0.00    +0.000 C 
ATOM     21  O   UNL     1       6.213   5.347  17.561  0.00  0.00    +0.000 OA
ENDBRANCH   7  17
TORSDOF 2
ENDMDL
