MODEL 1
REMARK VINA RESULT:      -7.0      0.000      0.000
REMARK  Name = 
REMARK  7 active torsions:
REMARK  status: ('A' for Active; 'I' for Inactive)
REMARK    1  A    between atoms: C_1  and  C_2
REMARK    2  A    between atoms: C_2  and  C_3
REMARK    3  A    between atoms: C_2  and  C_4
REMARK    4  A    between atoms: C_4  and  C_5
REMARK    5  A    between atoms: C_8  and  C_9
REMARK    6  A    between atoms: N_11  and  C_12
REMARK    7  A    between atoms: C_15  and  C_16
REMARK                            x       y       z     vdW  Elec       q    Type
REMARK                         _______ _______ _______ _____ _____    ______ ____
ROOT
ATOM      1  C   UNL     1       5.580   4.501  17.373  0.00  0.00    +0.000 C 
ATOM      2  O   UNL     1       6.306   4.345  18.353  0.00  0.00    +0.000 OA
ATOM      3  N   UNL     1       4.200   4.620  17.439  0.00  0.00    +0.000 N 
ATOM      4  H   UNL     1       3.702   4.623  16.558  0.00  0.00    +0.000 HD
ENDROOT
BRANCH   1   8
ATOM      5  C   UNL     1       6.608   4.165  13.612  0.00  0.00    +0.000 A 
ATOM      6  C   UNL     1       7.415   5.141  14.163  0.00  0.00    +0.000 A 
ATOM      7  C   UNL     1       7.141   5.347  15.547  0.00  0.00    +0.000 A 
ATOM      8  C   UNL     1       6.125   4.534  16.017  0.00  0.00    +0.000 A 
ATOM      9  S   UNL     1       5.526   3.522  14.770  0.00  0.00    +0.000 S 
BRANCH   5  10
ATOM     10  C   UNL     1       6.580   3.652  12.199  0.00  0.00    +0.000 C 
BRANCH  10  12
ATOM     11  C   UNL     1       4.267   3.195  11.231  0.00  0.00    +0.000 C 
ATOM     12  C   UNL     1       5.479   2.603  11.956  0.00  0.00    +0.000 C 
ATOM     13  C   UNL     1       6.044   1.437  11.141  0.00  0.00    +0.000 C 
ENDBRANCH  10  12
ENDBRANCH   5  10
ENDBRANCH   1   8
BRANCH   3  14
ATOM     14  C   UNL     1       3.431   4.617  18.593  0.00  0.00    +0.000 A 
ATOM     15  C   UNL     1       2.732   5.681  19.118  0.00  0.00    +0.000 A 
ATOM     16  S   UNL     1       1.941   5.290  20.583  0.00  0.00    +0.000 S 
ATOM     17  C   UNL     1       2.533   3.685  20.551  0.00  0.00    +0.000 A 
ATOM     18  C   UNL     1       3.267   3.450  19.402  0.00  0.00    +0.000 A 
BRANCH  17  19
ATOM     19  C   UNL     1       2.277   2.736  21.622  0.00  0.00    +0.000 C 
ATOM     20  N   UNL     1       0.993   2.660  22.084  0.00  0.00    +0.000 N 
ATOM     21  O   UNL     1       3.141   2.029  22.129  0.00  0.00    +0.000 OA
ATOM     22  H   UNL     1       0.264   3.259  21.727  0.00  0.00    +0.000 HD
ATOM     23  H   UNL     1       0.805   2.051  22.866  0.00  0.00    +0.000 HD
ENDBRANCH  17  19
ENDBRANCH   3  14
TORSDOF 5
ENDMDL
MODEL 2
REMARK VINA RESULT:      -6.6      4.181      8.548
REMARK  Name = 
REMARK  7 active torsions:
REMARK  status: ('A' for Active; 'I' for Inactive)
REMARK    1  A    between atoms: C_1  and  C_2
REMARK    2  A    between atoms: C_2  and  C_3
REMARK    3  A    between atoms: C_2  and  C_4
REMARK    4  A    between atoms: C_4  and  C_5
REMARK    5  A    between atoms: C_8  and  C_9
REMARK    6  A    between atoms: N_11  and  C_12
REMARK    7  A    between atoms: C_15  and  C_16
REMARK                            x       y       z     vdW  Elec       q    Type
REMARK                         _______ _______ _______ _____ _____    ______ ____
ROOT
ATOM      1  C   UNL     1       3.006   6.686  18.294  0.00  0.00    +0.000 C 
ATOM      2  O   UNL     1       2.546   5.558  18.133  0.00  0.00    +0.000 OA
ATOM      3  N   UNL     1       4.320   7.035  18.020  0.00  0.00    +0.000 N 
ATOM      4  H   UNL     1       4.613   7.961  18.305  0.00  0.00    +0.000 HD
ENDROOT
BRANCH   1   8
ATOM      5  C   UNL     1       0.807   9.802  19.171  0.00  0.00    +0.000 A 
ATOM      6  C   UNL     1       0.979   9.090  20.341  0.00  0.00    +0.000 A 
ATOM      7  C   UNL     1       1.783   7.927  20.151  0.00  0.00    +0.000 A 
ATOM      8  C   UNL     1       2.194   7.773  18.839  0.00  0.00    +0.000 A 
ATOM      9  S   UNL     1       1.607   9.050  17.859  0.00  0.00    +0.000 S 
BRANCH   5  10
ATOM     10  C   UNL     1       0.038  11.075  18.945  0.00  0.00    +0.000 C 
BRANCH  10  12
ATOM     11  C   UNL     1      -2.195  12.202  19.431  0.00  0.00    +0.000 C 
ATOM     12  C   UNL     1      -1.486  10.894  19.069  0.00  0.00    +0.000 C 
ATOM     13  C   UNL     1      -2.053  10.351  17.756  0.00  0.00    +0.000 C 
ENDBRANCH  10  12
ENDBRANCH   5  10
ENDBRANCH   1   8
BRANCH   3  14
ATOM     14  C   UNL     1       5.300   6.201  17.502  0.00  0.00    +0.000 A 
ATOM     15  C   UNL     1       6.273   5.535  18.213  0.00  0.00    +0.000 A 
ATOM     16  S   UNL     1       7.327   4.641  17.208  0.00  0.00    +0.000 S 
ATOM     17  C   UNL     1       6.506   5.141  15.791  0.00  0.00    +0.000 A 
ATOM     18  C   UNL     1       5.410   5.925  16.104  0.00  0.00    +0.000 A 
BRANCH  17  19
ATOM     19  C   UNL     1       6.951   4.770  14.458  0.00  0.00    +0.000 C 
ATOM     20  N   UNL     1       6.356   3.678  13.891  0.00  0.00    +0.000 N 
ATOM     21  O   UNL     1       7.826   5.366  13.839  0.00  0.00    +0.000 OA
ATOM     22  H   UNL     1       5.667   3.131  14.387  0.00  0.00    +0.000 HD
ATOM     23  H   UNL     1       6.692   3.368  12.991  0.00  0.00    +0.000 HD
ENDBRANCH  17  19
ENDBRANCH   3  14
TORSDOF 5
ENDMDL
MODEL 3
REMARK VINA RESULT:      -6.5      4.696      9.356
REMARK  Name = 
REMARK  7 active torsions:
REMARK  status: ('A' for Active; 'I' for Inactive)
REMARK    1  A    between atoms: C_1  and  C_2
REMARK    2  A    between atoms: C_2  and  C_3
REMARK    3  A    between atoms: C_2  and  C_4
REMARK    4  A    between atoms: C_4  and  C_5
REMARK    5  A    between atoms: C_8  and  C_9
REMARK    6  A    between atoms: N_11  and  C_12
REMARK    7  A    between atoms: C_15  and  C_16
REMARK                            x       y       z     vdW  Elec       q    Type
REMARK                         _______ _______ _______ _____ _____    ______ ____
ROOT
ATOM      1  C   UNL     1       2.403   7.963  18.384  0.00  0.00    +0.000 C 
ATOM      2  O   UNL     1       2.617   8.430  17.268  0.00  0.00    +0.000 OA
ATOM      3  N   UNL     1       2.874   6.732  18.815  0.00  0.00    +0.000 N 
ATOM      4  H   UNL     1       2.532   6.403  19.709  0.00  0.00    +0.000 HD
ENDROOT
BRANCH   1   8
ATOM      5  C   UNL     1       0.039  10.224  20.533  0.00  0.00    +0.000 A 
ATOM      6  C   UNL     1       0.515   9.233  21.368  0.00  0.00    +0.000 A 
ATOM      7  C   UNL     1       1.406   8.345  20.697  0.00  0.00    +0.000 A 
ATOM      8  C   UNL     1       1.579   8.671  19.363  0.00  0.00    +0.000 A 
ATOM      9  S   UNL     1       0.666  10.060  18.949  0.00  0.00    +0.000 S 
BRANCH   5  10
ATOM     10  C   UNL     1      -0.910  11.347  20.847  0.00  0.00    +0.000 C 
BRANCH  10  12
ATOM     11  C   UNL     1      -0.348  13.416  22.226  0.00  0.00    +0.000 C 
ATOM     12  C   UNL     1      -0.716  11.930  22.259  0.00  0.00    +0.000 C 
ATOM     13  C   UNL     1      -1.992  11.736  23.080  0.00  0.00    +0.000 C 
ENDBRANCH  10  12
ENDBRANCH   5  10
ENDBRANCH   1   8
BRANCH   3  14
ATOM     14  C   UNL     1       3.670   5.858  18.090  0.00  0.00    +0.000 A 
ATOM     15  C   UNL     1       3.293   4.640  17.570  0.00  0.00    +0.000 A 
ATOM     16  S   UNL     1       4.577   3.837  16.777  0.00  0.00    +0.000 S 
ATOM     17  C   UNL     1       5.674   5.104  17.129  0.00  0.00    +0.000 A 
ATOM     18  C   UNL     1       5.037   6.143  17.784  0.00  0.00    +0.000 A 
BRANCH  17  19
ATOM     19  C   UNL     1       7.082   5.041  16.771  0.00  0.00    +0.000 C 
ATOM     20  N   UNL     1       7.452   5.665  15.613  0.00  0.00    +0.000 N 
ATOM     21  O   UNL     1       7.929   4.454  17.435  0.00  0.00    +0.000 OA
ATOM     22  H   UNL     1       6.777   6.116  15.014  0.00  0.00    +0.000 HD
ATOM     23  H   UNL     1       8.413   5.583  15.316  0.00  0.00    +0.000 HD
ENDBRANCH  17  19
ENDBRANCH   3  14
TORSDOF 5
ENDMDL
MODEL 4
REMARK VINA RESULT:      -6.4      5.123      9.286
REMARK  Name = 
REMARK  7 active torsions:
REMARK  status: ('A' for Active; 'I' for Inactive)
REMARK    1  A    between atoms: C_1  and  C_2
REMARK    2  A    between atoms: C_2  and  C_3
REMARK    3  A    between atoms: C_2  and  C_4
REMARK    4  A    between atoms: C_4  and  C_5
REMARK    5  A    between atoms: C_8  and  C_9
REMARK    6  A    between atoms: N_11  and  C_12
REMARK    7  A    between atoms: C_15  and  C_16
REMARK                            x       y       z     vdW  Elec       q    Type
REMARK                         _______ _______ _______ _____ _____    ______ ____
ROOT
ATOM      1  C   UNL     1       2.049   7.950  19.155  0.00  0.00    +0.000 C 
ATOM      2  O   UNL     1       2.332   8.057  17.964  0.00  0.00    +0.000 OA
ATOM      3  N   UNL     1       2.395   6.861  19.941  0.00  0.00    +0.000 N 
ATOM      4  H   UNL     1       2.002   6.831  20.873  0.00  0.00    +0.000 HD
ENDROOT
BRANCH   1   8
ATOM      5  C   UNL     1       0.021  10.326  21.513  0.00  0.00    +0.000 A 
ATOM      6  C   UNL     1       0.089  10.945  20.280  0.00  0.00    +0.000 A 
ATOM      7  C   UNL     1       0.799  10.163  19.323  0.00  0.00    +0.000 A 
ATOM      8  C   UNL     1       1.268   8.972  19.850  0.00  0.00    +0.000 A 
ATOM      9  S   UNL     1       0.826   8.817  21.498  0.00  0.00    +0.000 S 
BRANCH   5  10
ATOM     10  C   UNL     1      -0.634  10.810  22.776  0.00  0.00    +0.000 C 
BRANCH  10  12
ATOM     11  C   UNL     1      -2.827  11.945  23.407  0.00  0.00    +0.000 C 
ATOM     12  C   UNL     1      -1.556  12.023  22.557  0.00  0.00    +0.000 C 
ATOM     13  C   UNL     1      -0.801  13.314  22.883  0.00  0.00    +0.000 C 
ENDBRANCH  10  12
ENDBRANCH   5  10
ENDBRANCH   1   8
BRANCH   3  14
ATOM     14  C   UNL     1       3.127   5.755  19.535  0.00  0.00    +0.000 A 
ATOM     15  C   UNL     1       4.499   5.658  19.466  0.00  0.00    +0.000 A 
ATOM     16  S   UNL     1       5.021   4.143  18.871  0.00  0.00    +0.000 S 
ATOM     17  C   UNL     1       3.413   3.589  18.679  0.00  0.00    +0.000 A 
ATOM     18  C   UNL     1       2.507   4.534  19.127  0.00  0.00    +0.000 A 
BRANCH  17  19
ATOM     19  C   UNL     1       3.096   2.291  18.106  0.00  0.00    +0.000 C 
ATOM     20  N   UNL     1       3.938   1.259  18.415  0.00  0.00    +0.000 N 
ATOM     21  O   UNL     1       2.142   2.087  17.364  0.00  0.00    +0.000 OA
ATOM     22  H   UNL     1       4.762   1.397  18.982  0.00  0.00    +0.000 HD
ATOM     23  H   UNL     1       3.770   0.364  17.980  0.00  0.00    +0.000 HD
ENDBRANCH  17  19
ENDBRANCH   3  14
TORSDOF 5
ENDMDL
MODEL 5
REMARK VINA RESULT:      -6.4      5.687      8.002
REMARK  Name = 
REMARK  7 active torsions:
REMARK  status: ('A' for Active; 'I' for Inactive)
REMARK    1  A    between atoms: C_1  and  C_2
REMARK    2  A    between atoms: C_2  and  C_3
REMARK    3  A    between atoms: C_2  and  C_4
REMARK    4  A    between atoms: C_4  and  C_5
REMARK    5  A    between atoms: C_8  and  C_9
REMARK    6  A    between atoms: N_11  and  C_12
REMARK    7  A    between atoms: C_15  and  C_16
REMARK                            x       y       z     vdW  Elec       q    Type
REMARK                         _______ _______ _______ _____ _____    ______ ____
ROOT
ATOM      1  C   UNL     1       2.040   8.733  18.268  0.00  0.00    +0.000 C 
ATOM      2  O   UNL     1       2.228   9.468  17.301  0.00  0.00    +0.000 OA
ATOM      3  N   UNL     1       1.222   9.054  19.340  0.00  0.00    +0.000 N 
ATOM      4  H   UNL     1       1.241   8.422  20.131  0.00  0.00    +0.000 HD
ENDROOT
BRANCH   1   8
ATOM      5  C   UNL     1       3.441   5.163  19.046  0.00  0.00    +0.000 A 
ATOM      6  C   UNL     1       4.155   5.648  17.968  0.00  0.00    +0.000 A 
ATOM      7  C   UNL     1       3.740   6.961  17.595  0.00  0.00    +0.000 A 
ATOM      8  C   UNL     1       2.713   7.441  18.387  0.00  0.00    +0.000 A 
ATOM      9  S   UNL     1       2.275   6.293  19.582  0.00  0.00    +0.000 S 
BRANCH   5  10
ATOM     10  C   UNL     1       3.570   3.836  19.742  0.00  0.00    +0.000 C 
BRANCH  10  12
ATOM     11  C   UNL     1       1.771   2.086  19.296  0.00  0.00    +0.000 C 
ATOM     12  C   UNL     1       2.217   3.250  20.186  0.00  0.00    +0.000 C 
ATOM     13  C   UNL     1       2.308   2.778  21.639  0.00  0.00    +0.000 C 
ENDBRANCH  10  12
ENDBRANCH   5  10
ENDBRANCH   1   8
BRANCH   3  14
ATOM     14  C   UNL     1       0.473  10.213  19.483  0.00  0.00    +0.000 A 
ATOM     15  C   UNL     1       0.846  11.356  20.154  0.00  0.00    +0.000 A 
ATOM     16  S   UNL     1      -0.374  12.552  20.145  0.00  0.00    +0.000 S 
ATOM     17  C   UNL     1      -1.439  11.554  19.252  0.00  0.00    +0.000 A 
ATOM     18  C   UNL     1      -0.832  10.356  18.918  0.00  0.00    +0.000 A 
BRANCH  17  19
ATOM     19  C   UNL     1      -2.796  11.957  18.921  0.00  0.00    +0.000 C 
ATOM     20  N   UNL     1      -3.144  11.924  17.600  0.00  0.00    +0.000 N 
ATOM     21  O   UNL     1      -3.618  12.331  19.750  0.00  0.00    +0.000 OA
ATOM     22  H   UNL     1      -2.482  11.670  16.882  0.00  0.00    +0.000 HD
ATOM     23  H   UNL     1      -4.061  12.257  17.342  0.00  0.00    +0.000 HD
ENDBRANCH  17  19
ENDBRANCH   3  14
TORSDOF 5
ENDMDL
MODEL 6
REMARK VINA RESULT:      -6.3      4.988      9.539
REMARK  Name = 
REMARK  7 active torsions:
REMARK  status: ('A' for Active; 'I' for Inactive)
REMARK    1  A    between atoms: C_1  and  C_2
REMARK    2  A    between atoms: C_2  and  C_3
REMARK    3  A    between atoms: C_2  and  C_4
REMARK    4  A    between atoms: C_4  and  C_5
REMARK    5  A    between atoms: C_8  and  C_9
REMARK    6  A    between atoms: N_11  and  C_12
REMARK    7  A    between atoms: C_15  and  C_16
REMARK                            x       y       z     vdW  Elec       q    Type
REMARK                         _______ _______ _______ _____ _____    ______ ____
ROOT
ATOM      1  C   UNL     1       2.092   7.675  19.612  0.00  0.00    +0.000 C 
ATOM      2  O   UNL     1       2.299   7.902  18.422  0.00  0.00    +0.000 OA
ATOM      3  N   UNL     1       2.536   6.542  20.276  0.00  0.00    +0.000 N 
ATOM      4  H   UNL     1       2.201   6.409  21.221  0.00  0.00    +0.000 HD
ENDROOT
BRANCH   1   8
ATOM      5  C   UNL     1      -0.163  10.398  21.290  0.00  0.00    +0.000 A 
ATOM      6  C   UNL     1       0.273   9.561  22.297  0.00  0.00    +0.000 A 
ATOM      7  C   UNL     1       1.121   8.525  21.808  0.00  0.00    +0.000 A 
ATOM      8  C   UNL     1       1.303   8.588  20.438  0.00  0.00    +0.000 A 
ATOM      9  S   UNL     1       0.450   9.914  19.768  0.00  0.00    +0.000 S 
BRANCH   5  10
ATOM     10  C   UNL     1      -1.061  11.601  21.384  0.00  0.00    +0.000 C 
BRANCH  10  12
ATOM     11  C   UNL     1      -0.846  13.661  22.870  0.00  0.00    +0.000 C 
ATOM     12  C   UNL     1      -1.171  12.166  22.813  0.00  0.00    +0.000 C 
ATOM     13  C   UNL     1      -2.581  11.928  23.357  0.00  0.00    +0.000 C 
ENDBRANCH  10  12
ENDBRANCH   5  10
ENDBRANCH   1   8
BRANCH   3  14
ATOM     14  C   UNL     1       3.297   5.517  19.732  0.00  0.00    +0.000 A 
ATOM     15  C   UNL     1       2.990   4.175  19.732  0.00  0.00    +0.000 A 
ATOM     16  S   UNL     1       4.206   3.222  19.002  0.00  0.00    +0.000 S 
ATOM     17  C   UNL     1       5.182   4.592  18.684  0.00  0.00    +0.000 A 
ATOM     18  C   UNL     1       4.544   5.756  19.076  0.00  0.00    +0.000 A 
BRANCH  17  19
ATOM     19  C   UNL     1       6.503   4.488  18.086  0.00  0.00    +0.000 C 
ATOM     20  N   UNL     1       6.559   4.088  16.780  0.00  0.00    +0.000 N 
ATOM     21  O   UNL     1       7.545   4.722  18.689  0.00  0.00    +0.000 OA
ATOM     22  H   UNL     1       5.728   3.839  16.265  0.00  0.00    +0.000 HD
ATOM     23  H   UNL     1       7.469   3.953  16.365  0.00  0.00    +0.000 HD
ENDBRANCH  17  19
ENDBRANCH   3  14
TORSDOF 5
ENDMDL
MODEL 7
REMARK VINA RESULT:      -6.3      5.224      9.394
REMARK  Name = 
REMARK  7 active torsions:
REMARK  status: ('A' for Active; 'I' for Inactive)
REMARK    1  A    between atoms: C_1  and  C_2
REMARK    2  A    between atoms: C_2  and  C_3
REMARK    3  A    between atoms: C_2  and  C_4
REMARK    4  A    between atoms: C_4  and  C_5
REMARK    5  A    between atoms: C_8  and  C_9
REMARK    6  A    between atoms: N_11  and  C_12
REMARK    7  A    between atoms: C_15  and  C_16
REMARK                            x       y       z     vdW  Elec       q    Type
REMARK                         _______ _______ _______ _____ _____    ______ ____
ROOT
ATOM      1  C   UNL     1       1.936   7.922  19.466  0.00  0.00    +0.000 C 
ATOM      2  O   UNL     1       2.019   8.128  18.257  0.00  0.00    +0.000 OA
ATOM      3  N   UNL     1       2.507   6.834  20.109  0.00  0.00    +0.000 N 
ATOM      4  H   UNL     1       2.270   6.708  21.085  0.00  0.00    +0.000 HD
ENDROOT
BRANCH   1   8
ATOM      5  C   UNL     1      -0.249  10.605  21.294  0.00  0.00    +0.000 A 
ATOM      6  C   UNL     1       0.186   9.717  22.257  0.00  0.00    +0.000 A 
ATOM      7  C   UNL     1       1.010   8.690  21.710  0.00  0.00    +0.000 A 
ATOM      8  C   UNL     1       1.175   8.811  20.342  0.00  0.00    +0.000 A 
ATOM      9  S   UNL     1       0.335  10.179  19.743  0.00  0.00    +0.000 S 
BRANCH   5  10
ATOM     10  C   UNL     1      -1.124  11.817  21.454  0.00  0.00    +0.000 C 
BRANCH  10  12
ATOM     11  C   UNL     1      -0.980  13.724  23.138  0.00  0.00    +0.000 C 
ATOM     12  C   UNL     1      -1.307  12.244  22.922  0.00  0.00    +0.000 C 
ATOM     13  C   UNL     1      -2.745  11.968  23.367  0.00  0.00    +0.000 C 
ENDBRANCH  10  12
ENDBRANCH   5  10
ENDBRANCH   1   8
BRANCH   3  14
ATOM     14  C   UNL     1       3.274   5.841  19.518  0.00  0.00    +0.000 A 
ATOM     15  C   UNL     1       4.166   5.998  18.481  0.00  0.00    +0.000 A 
ATOM     16  S   UNL     1       4.884   4.522  18.002  0.00  0.00    +0.000 S 
ATOM     17  C   UNL     1       3.999   3.636  19.169  0.00  0.00    +0.000 A 
ATOM     18  C   UNL     1       3.223   4.478  19.946  0.00  0.00    +0.000 A 
BRANCH  17  19
ATOM     19  C   UNL     1       4.083   2.190  19.280  0.00  0.00    +0.000 C 
ATOM     20  N   UNL     1       5.010   1.691  20.152  0.00  0.00    +0.000 N 
ATOM     21  O   UNL     1       3.389   1.414  18.633  0.00  0.00    +0.000 OA
ATOM     22  H   UNL     1       5.634   2.295  20.667  0.00  0.00    +0.000 HD
ATOM     23  H   UNL     1       5.125   0.690  20.201  0.00  0.00    +0.000 HD
ENDBRANCH  17  19
ENDBRANCH   3  14
TORSDOF 5
ENDMDL
MODEL 8
REMARK VINA RESULT:      -6.3      4.540      8.876
REMARK  Name = 
REMARK  7 active torsions:
REMARK  status: ('A' for Active; 'I' for Inactive)
REMARK    1  A    between atoms: C_1  and  C_2
REMARK    2  A    between atoms: C_2  and  C_3
REMARK    3  A    between atoms: C_2  and  C_4
REMARK    4  A    between atoms: C_4  and  C_5
REMARK    5  A    between atoms: C_8  and  C_9
REMARK    6  A    between atoms: N_11  and  C_12
REMARK    7  A    between atoms: C_15  and  C_16
REMARK                            x       y       z     vdW  Elec       q    Type
REMARK                         _______ _______ _______ _____ _____    ______ ____
ROOT
ATOM      1  C   UNL     1       2.300   6.990  19.622  0.00  0.00    +0.000 C 
ATOM      2  O   UNL     1       2.334   5.999  20.348  0.00  0.00    +0.000 OA
ATOM      3  N   UNL     1       2.960   7.085  18.406  0.00  0.00    +0.000 N 
ATOM      4  H   UNL     1       2.956   7.992  17.957  0.00  0.00    +0.000 HD
ENDROOT
BRANCH   1   8
ATOM      5  C   UNL     1       0.417  10.391  20.069  0.00  0.00    +0.000 A 
ATOM      6  C   UNL     1       0.373   9.745  21.288  0.00  0.00    +0.000 A 
ATOM      7  C   UNL     1       1.044   8.487  21.255  0.00  0.00    +0.000 A 
ATOM      8  C   UNL     1       1.573   8.197  20.010  0.00  0.00    +0.000 A 
ATOM      9  S   UNL     1       1.257   9.465  18.902  0.00  0.00    +0.000 S 
BRANCH   5  10
ATOM     10  C   UNL     1      -0.160  11.726  19.688  0.00  0.00    +0.000 C 
BRANCH  10  12
ATOM     11  C   UNL     1      -2.258  13.047  20.283  0.00  0.00    +0.000 C 
ATOM     12  C   UNL     1      -1.700  11.747  19.697  0.00  0.00    +0.000 C 
ATOM     13  C   UNL     1      -2.230  11.558  18.274  0.00  0.00    +0.000 C 
ENDBRANCH  10  12
ENDBRANCH   5  10
ENDBRANCH   1   8
BRANCH   3  14
ATOM     14  C   UNL     1       3.722   6.093  17.806  0.00  0.00    +0.000 A 
ATOM     15  C   UNL     1       3.335   4.794  17.560  0.00  0.00    +0.000 A 
ATOM     16  S   UNL     1       4.577   3.863  16.845  0.00  0.00    +0.000 S 
ATOM     17  C   UNL     1       5.668   5.182  16.862  0.00  0.00    +0.000 A 
ATOM     18  C   UNL     1       5.057   6.324  17.350  0.00  0.00    +0.000 A 
BRANCH  17  19
ATOM     19  C   UNL     1       7.047   5.061  16.420  0.00  0.00    +0.000 C 
ATOM     20  N   UNL     1       7.884   4.320  17.206  0.00  0.00    +0.000 N 
ATOM     21  O   UNL     1       7.489   5.593  15.408  0.00  0.00    +0.000 OA
ATOM     22  H   UNL     1       7.572   3.907  18.073  0.00  0.00    +0.000 HD
ATOM     23  H   UNL     1       8.859   4.273  16.949  0.00  0.00    +0.000 HD
ENDBRANCH  17  19
ENDBRANCH   3  14
TORSDOF 5
ENDMDL
MODEL 9
REMARK VINA RESULT:      -6.3      4.277      8.612
REMARK  Name = 
REMARK  7 active torsions:
REMARK  status: ('A' for Active; 'I' for Inactive)
REMARK    1  A    between atoms: C_1  and  C_2
REMARK    2  A    between atoms: C_2  and  C_3
REMARK    3  A    between atoms: C_2  and  C_4
REMARK    4  A    between atoms: C_4  and  C_5
REMARK    5  A    between atoms: C_8  and  C_9
REMARK    6  A    between atoms: N_11  and  C_12
REMARK    7  A    between atoms: C_15  and  C_16
REMARK                            x       y       z     vdW  Elec       q    Type
REMARK                         _______ _______ _______ _____ _____    ______ ____
ROOT
ATOM      1  C   UNL     1       3.063   6.699  18.585  0.00  0.00    +0.000 C 
ATOM      2  O   UNL     1       2.818   5.542  18.921  0.00  0.00    +0.000 OA
ATOM      3  N   UNL     1       4.174   7.074  17.845  0.00  0.00    +0.000 N 
ATOM      4  H   UNL     1       4.330   8.068  17.734  0.00  0.00    +0.000 HD
ENDROOT
BRANCH   1   8
ATOM      5  C   UNL     1       0.760   9.828  19.053  0.00  0.00    +0.000 A 
ATOM      6  C   UNL     1       0.868   9.221  20.288  0.00  0.00    +0.000 A 
ATOM      7  C   UNL     1       1.701   8.064  20.249  0.00  0.00    +0.000 A 
ATOM      8  C   UNL     1       2.199   7.809  18.983  0.00  0.00    +0.000 A 
ATOM      9  S   UNL     1       1.657   8.987  17.864  0.00  0.00    +0.000 S 
BRANCH   5  10
ATOM     10  C   UNL     1      -0.012  11.060  18.672  0.00  0.00    +0.000 C 
BRANCH  10  12
ATOM     11  C   UNL     1       2.061  12.539  18.569  0.00  0.00    +0.000 C 
ATOM     12  C   UNL     1       0.653  12.366  19.146  0.00  0.00    +0.000 C 
ATOM     13  C   UNL     1      -0.213  13.563  18.749  0.00  0.00    +0.000 C 
ENDBRANCH  10  12
ENDBRANCH   5  10
ENDBRANCH   1   8
BRANCH   3  14
ATOM     14  C   UNL     1       5.152   6.227  17.345  0.00  0.00    +0.000 A 
ATOM     15  C   UNL     1       6.112   5.560  18.072  0.00  0.00    +0.000 A 
ATOM     16  S   UNL     1       7.167   4.646  17.085  0.00  0.00    +0.000 S 
ATOM     17  C   UNL     1       6.365   5.139  15.656  0.00  0.00    +0.000 A 
ATOM     18  C   UNL     1       5.272   5.936  15.951  0.00  0.00    +0.000 A 
BRANCH  17  19
ATOM     19  C   UNL     1       6.819   4.751  14.331  0.00  0.00    +0.000 C 
ATOM     20  N   UNL     1       7.812   5.506  13.773  0.00  0.00    +0.000 N 
ATOM     21  O   UNL     1       6.353   3.810  13.698  0.00  0.00    +0.000 OA
ATOM     22  H   UNL     1       8.188   6.318  14.241  0.00  0.00    +0.000 HD
ATOM     23  H   UNL     1       8.100   5.290  12.831  0.00  0.00    +0.000 HD
ENDBRANCH  17  19
ENDBRANCH   3  14
TORSDOF 5
ENDMDL
