MODEL 1
REMARK VINA RESULT:      -6.7      0.000      0.000
REMARK  Name = 
REMARK  9 active torsions:
REMARK  status: ('A' for Active; 'I' for Inactive)
REMARK    1  A    between atoms: C_1  and  N_2
REMARK    2  A    between atoms: N_2  and  C_3
REMARK    3  A    between atoms: N_2  and  C_4
REMARK    4  A    between atoms: C_4  and  C_5
REMARK    5  A    between atoms: C_5  and  O_6
REMARK    6  A    between atoms: C_5  and  C_7
REMARK    7  A    between atoms: C_7  and  N_8
REMARK    8  A    between atoms: N_8  and  C_9
REMARK    9  A    between atoms: C_12  and  C_13
REMARK                            x       y       z     vdW  Elec       q    Type
REMARK                         _______ _______ _______ _____ _____    ______ ____
ROOT
ATOM      1  N   UNL     1       5.174   3.591  17.152  0.00  0.00    +0.000 NA
ATOM      2  H   UNL     1       5.938   3.801  17.809  0.00  0.00    +0.000 HD
ENDROOT
BRANCH   1   3
ATOM      3  C   UNL     1       3.945   4.282  17.539  0.00  0.00    +0.000 C 
ATOM      4  C   UNL     1       2.703   3.482  17.103  0.00  0.00    +0.000 C 
ATOM      5  C   UNL     1       2.586   2.146  17.839  0.00  0.00    +0.000 C 
ATOM      6  C   UNL     1       2.542   2.328  19.361  0.00  0.00    +0.000 C 
ATOM      7  C   UNL     1       3.757   3.149  19.834  0.00  0.00    +0.000 C 
ATOM      8  C   UNL     1       3.918   4.468  19.067  0.00  0.00    +0.000 C 
BRANCH   6   9
ATOM      9  C   UNL     1       1.206   2.910  19.844  0.00  0.00    +0.000 C 
ATOM     10  F   UNL     1       0.951   2.622  21.139  0.00  0.00    +0.000 F 
ATOM     11  F   UNL     1       1.223   4.261  19.741  0.00  0.00    +0.000 F 
ATOM     12  F   UNL     1       0.151   2.473  19.122  0.00  0.00    +0.000 F 
ENDBRANCH   6   9
ENDBRANCH   1   3
BRANCH   1  13
ATOM     13  C   UNL     1       5.645   3.939  15.806  0.00  0.00    +0.000 C 
BRANCH  13  14
ATOM     14  C   UNL     1       6.629   5.114  15.886  0.00  0.00    +0.000 C 
BRANCH  14  15
ATOM     15  O   UNL     1       7.440   5.116  14.706  0.00  0.00    +0.000 OA
ATOM     16  H   UNL     1       7.218   5.924  14.204  0.00  0.00    +0.000 HD
ENDBRANCH  14  15
BRANCH  14  17
ATOM     17  C   UNL     1       7.476   5.004  17.176  0.00  0.00    +0.000 C 
BRANCH  17  19
ATOM     18  C   UNL     1       7.780   5.689  19.495  0.00  0.00    +0.000 C 
ATOM     19  N   UNL     1       7.168   6.020  18.206  0.00  0.00    +0.000 NA
ATOM     20  C   UNL     1       7.625   7.343  17.775  0.00  0.00    +0.000 C 
ENDBRANCH  17  19
ENDBRANCH  14  17
ENDBRANCH  13  14
ENDBRANCH   1  13
TORSDOF 7
ENDMDL
MODEL 2
REMARK VINA RESULT:      -6.6      0.866      1.597
REMARK  Name = 
REMARK  9 active torsions:
REMARK  status: ('A' for Active; 'I' for Inactive)
REMARK    1  A    between atoms: C_1  and  N_2
REMARK    2  A    between atoms: N_2  and  C_3
REMARK    3  A    between atoms: N_2  and  C_4
REMARK    4  A    between atoms: C_4  and  C_5
REMARK    5  A    between atoms: C_5  and  O_6
REMARK    6  A    between atoms: C_5  and  C_7
REMARK    7  A    between atoms: C_7  and  N_8
REMARK    8  A    between atoms: N_8  and  C_9
REMARK    9  A    between atoms: C_12  and  C_13
REMARK                            x       y       z     vdW  Elec       q    Type
REMARK                         _______ _______ _______ _____ _____    ______ ____
ROOT
ATOM      1  N   UNL     1       4.537   4.753  16.825  0.00  0.00    +0.000 NA
ATOM      2  H   UNL     1       3.748   5.347  16.538  0.00  0.00    +0.000 HD
ENDROOT
BRANCH   1   3
ATOM      3  C   UNL     1       4.062   3.494  17.400  0.00  0.00    +0.000 C 
ATOM      4  C   UNL     1       4.243   3.485  18.929  0.00  0.00    +0.000 C 
ATOM      5  C   UNL     1       3.364   4.527  19.624  0.00  0.00    +0.000 C 
ATOM      6  C   UNL     1       1.877   4.331  19.305  0.00  0.00    +0.000 C 
ATOM      7  C   UNL     1       1.659   4.308  17.780  0.00  0.00    +0.000 C 
ATOM      8  C   UNL     1       2.573   3.305  17.064  0.00  0.00    +0.000 C 
BRANCH   6   9
ATOM      9  C   UNL     1       1.282   3.104  20.009  0.00  0.00    +0.000 C 
ATOM     10  F   UNL     1       2.178   2.101  20.152  0.00  0.00    +0.000 F 
ATOM     11  F   UNL     1       0.868   3.437  21.255  0.00  0.00    +0.000 F 
ATOM     12  F   UNL     1       0.212   2.594  19.362  0.00  0.00    +0.000 F 
ENDBRANCH   6   9
ENDBRANCH   1   3
BRANCH   1  13
ATOM     13  C   UNL     1       5.404   4.574  15.653  0.00  0.00    +0.000 C 
BRANCH  13  14
ATOM     14  C   UNL     1       6.678   5.413  15.816  0.00  0.00    +0.000 C 
BRANCH  14  15
ATOM     15  O   UNL     1       7.535   5.171  14.695  0.00  0.00    +0.000 OA
ATOM     16  H   UNL     1       7.284   5.805  13.997  0.00  0.00    +0.000 HD
ENDBRANCH  14  15
BRANCH  14  17
ATOM     17  C   UNL     1       7.364   5.073  17.160  0.00  0.00    +0.000 C 
BRANCH  17  19
ATOM     18  C   UNL     1       7.936   5.746  19.431  0.00  0.00    +0.000 C 
ATOM     19  N   UNL     1       7.188   6.089  18.220  0.00  0.00    +0.000 NA
ATOM     20  C   UNL     1       7.610   7.407  17.743  0.00  0.00    +0.000 C 
ENDBRANCH  17  19
ENDBRANCH  14  17
ENDBRANCH  13  14
ENDBRANCH   1  13
TORSDOF 7
ENDMDL
MODEL 3
REMARK VINA RESULT:      -6.6      0.649      1.168
REMARK  Name = 
REMARK  9 active torsions:
REMARK  status: ('A' for Active; 'I' for Inactive)
REMARK    1  A    between atoms: C_1  and  N_2
REMARK    2  A    between atoms: N_2  and  C_3
REMARK    3  A    between atoms: N_2  and  C_4
REMARK    4  A    between atoms: C_4  and  C_5
REMARK    5  A    between atoms: C_5  and  O_6
REMARK    6  A    between atoms: C_5  and  C_7
REMARK    7  A    between atoms: C_7  and  N_8
REMARK    8  A    between atoms: N_8  and  C_9
REMARK    9  A    between atoms: C_12  and  C_13
REMARK                            x       y       z     vdW  Elec       q    Type
REMARK                         _______ _______ _______ _____ _____    ______ ____
ROOT
ATOM      1  N   UNL     1       5.073   3.531  16.993  0.00  0.00    +0.000 NA
ATOM      2  H   UNL     1       5.615   3.985  17.740  0.00  0.00    +0.000 HD
ENDROOT
BRANCH   1   3
ATOM      3  C   UNL     1       3.659   3.891  17.077  0.00  0.00    +0.000 C 
ATOM      4  C   UNL     1       2.819   2.711  17.600  0.00  0.00    +0.000 C 
ATOM      5  C   UNL     1       3.163   2.351  19.047  0.00  0.00    +0.000 C 
ATOM      6  C   UNL     1       2.980   3.542  19.997  0.00  0.00    +0.000 C 
ATOM      7  C   UNL     1       3.785   4.754  19.491  0.00  0.00    +0.000 C 
ATOM      8  C   UNL     1       3.489   5.093  18.024  0.00  0.00    +0.000 C 
BRANCH   6   9
ATOM      9  C   UNL     1       1.501   3.871  20.246  0.00  0.00    +0.000 C 
ATOM     10  F   UNL     1       1.301   5.176  20.536  0.00  0.00    +0.000 F 
ATOM     11  F   UNL     1       0.771   3.602  19.137  0.00  0.00    +0.000 F 
ATOM     12  F   UNL     1       0.966   3.150  21.255  0.00  0.00    +0.000 F 
ENDBRANCH   6   9
ENDBRANCH   1   3
BRANCH   1  13
ATOM     13  C   UNL     1       5.698   3.894  15.715  0.00  0.00    +0.000 C 
BRANCH  13  14
ATOM     14  C   UNL     1       6.656   5.075  15.920  0.00  0.00    +0.000 C 
BRANCH  14  15
ATOM     15  O   UNL     1       7.548   5.144  14.803  0.00  0.00    +0.000 OA
ATOM     16  H   UNL     1       7.037   5.490  14.046  0.00  0.00    +0.000 HD
ENDBRANCH  14  15
BRANCH  14  17
ATOM     17  C   UNL     1       7.410   4.913  17.261  0.00  0.00    +0.000 C 
BRANCH  17  19
ATOM     18  C   UNL     1       7.833   5.723  19.521  0.00  0.00    +0.000 C 
ATOM     19  N   UNL     1       7.141   5.975  18.254  0.00  0.00    +0.000 NA
ATOM     20  C   UNL     1       7.544   7.282  17.731  0.00  0.00    +0.000 C 
ENDBRANCH  17  19
ENDBRANCH  14  17
ENDBRANCH  13  14
ENDBRANCH   1  13
TORSDOF 7
ENDMDL
MODEL 4
REMARK VINA RESULT:      -6.5      0.656      1.217
REMARK  Name = 
REMARK  9 active torsions:
REMARK  status: ('A' for Active; 'I' for Inactive)
REMARK    1  A    between atoms: C_1  and  N_2
REMARK    2  A    between atoms: N_2  and  C_3
REMARK    3  A    between atoms: N_2  and  C_4
REMARK    4  A    between atoms: C_4  and  C_5
REMARK    5  A    between atoms: C_5  and  O_6
REMARK    6  A    between atoms: C_5  and  C_7
REMARK    7  A    between atoms: C_7  and  N_8
REMARK    8  A    between atoms: N_8  and  C_9
REMARK    9  A    between atoms: C_12  and  C_13
REMARK                            x       y       z     vdW  Elec       q    Type
REMARK                         _______ _______ _______ _____ _____    ______ ____
ROOT
ATOM      1  N   UNL     1       4.792   3.515  17.078  0.00  0.00    +0.000 NA
ATOM      2  H   UNL     1       5.232   4.081  17.816  0.00  0.00    +0.000 HD
ENDROOT
BRANCH   1   3
ATOM      3  C   UNL     1       3.333   3.579  17.168  0.00  0.00    +0.000 C 
ATOM      4  C   UNL     1       2.765   2.302  17.815  0.00  0.00    +0.000 C 
ATOM      5  C   UNL     1       3.189   2.155  19.279  0.00  0.00    +0.000 C 
ATOM      6  C   UNL     1       2.767   3.363  20.124  0.00  0.00    +0.000 C 
ATOM      7  C   UNL     1       3.295   4.665  19.493  0.00  0.00    +0.000 C 
ATOM      8  C   UNL     1       2.923   4.800  18.010  0.00  0.00    +0.000 C 
BRANCH   6   9
ATOM      9  C   UNL     1       1.254   3.398  20.383  0.00  0.00    +0.000 C 
ATOM     10  F   UNL     1       0.903   2.734  21.507  0.00  0.00    +0.000 F 
ATOM     11  F   UNL     1       0.838   4.677  20.541  0.00  0.00    +0.000 F 
ATOM     12  F   UNL     1       0.535   2.871  19.368  0.00  0.00    +0.000 F 
ENDBRANCH   6   9
ENDBRANCH   1   3
BRANCH   1  13
ATOM     13  C   UNL     1       5.322   3.981  15.791  0.00  0.00    +0.000 C 
BRANCH  13  14
ATOM     14  C   UNL     1       6.498   4.938  16.028  0.00  0.00    +0.000 C 
BRANCH  14  15
ATOM     15  O   UNL     1       7.439   4.784  14.961  0.00  0.00    +0.000 OA
ATOM     16  H   UNL     1       8.330   4.781  15.360  0.00  0.00    +0.000 HD
ENDBRANCH  14  15
BRANCH  14  17
ATOM     17  C   UNL     1       7.132   4.660  17.412  0.00  0.00    +0.000 C 
BRANCH  17  19
ATOM     18  C   UNL     1       7.289   7.088  17.541  0.00  0.00    +0.000 C 
ATOM     19  N   UNL     1       7.836   5.813  18.012  0.00  0.00    +0.000 NA
ATOM     20  C   UNL     1       7.758   5.759  19.473  0.00  0.00    +0.000 C 
ENDBRANCH  17  19
ENDBRANCH  14  17
ENDBRANCH  13  14
ENDBRANCH   1  13
TORSDOF 7
ENDMDL
MODEL 5
REMARK VINA RESULT:      -6.5      1.180      2.002
REMARK  Name = 
REMARK  9 active torsions:
REMARK  status: ('A' for Active; 'I' for Inactive)
REMARK    1  A    between atoms: C_1  and  N_2
REMARK    2  A    between atoms: N_2  and  C_3
REMARK    3  A    between atoms: N_2  and  C_4
REMARK    4  A    between atoms: C_4  and  C_5
REMARK    5  A    between atoms: C_5  and  O_6
REMARK    6  A    between atoms: C_5  and  C_7
REMARK    7  A    between atoms: C_7  and  N_8
REMARK    8  A    between atoms: N_8  and  C_9
REMARK    9  A    between atoms: C_12  and  C_13
REMARK                            x       y       z     vdW  Elec       q    Type
REMARK                         _______ _______ _______ _____ _____    ______ ____
ROOT
ATOM      1  N   UNL     1       4.378   4.269  16.521  0.00  0.00    +0.000 NA
ATOM      2  H   UNL     1       3.644   4.290  15.801  0.00  0.00    +0.000 HD
ENDROOT
BRANCH   1   3
ATOM      3  C   UNL     1       4.088   3.259  17.537  0.00  0.00    +0.000 C 
ATOM      4  C   UNL     1       4.540   3.734  18.931  0.00  0.00    +0.000 C 
ATOM      5  C   UNL     1       3.740   4.943  19.419  0.00  0.00    +0.000 C 
ATOM      6  C   UNL     1       2.233   4.658  19.462  0.00  0.00    +0.000 C 
ATOM      7  C   UNL     1       1.748   4.154  18.089  0.00  0.00    +0.000 C 
ATOM      8  C   UNL     1       2.576   2.975  17.563  0.00  0.00    +0.000 C 
BRANCH   6   9
ATOM      9  C   UNL     1       1.847   3.718  20.612  0.00  0.00    +0.000 C 
ATOM     10  F   UNL     1       2.334   4.127  21.804  0.00  0.00    +0.000 F 
ATOM     11  F   UNL     1       0.499   3.668  20.740  0.00  0.00    +0.000 F 
ATOM     12  F   UNL     1       2.272   2.450  20.420  0.00  0.00    +0.000 F 
ENDBRANCH   6   9
ENDBRANCH   1   3
BRANCH   1  13
ATOM     13  C   UNL     1       5.660   4.063  15.835  0.00  0.00    +0.000 C 
BRANCH  13  14
ATOM     14  C   UNL     1       6.289   5.419  15.487  0.00  0.00    +0.000 C 
BRANCH  14  15
ATOM     15  O   UNL     1       7.623   5.200  15.016  0.00  0.00    +0.000 OA
ATOM     16  H   UNL     1       8.230   5.490  15.724  0.00  0.00    +0.000 HD
ENDBRANCH  14  15
BRANCH  14  17
ATOM     17  C   UNL     1       6.251   6.349  16.723  0.00  0.00    +0.000 C 
BRANCH  17  19
ATOM     18  C   UNL     1       7.804   7.984  17.647  0.00  0.00    +0.000 C 
ATOM     19  N   UNL     1       7.560   6.565  17.375  0.00  0.00    +0.000 NA
ATOM     20  C   UNL     1       7.643   5.808  18.626  0.00  0.00    +0.000 C 
ENDBRANCH  17  19
ENDBRANCH  14  17
ENDBRANCH  13  14
ENDBRANCH   1  13
TORSDOF 7
ENDMDL
MODEL 6
REMARK VINA RESULT:      -6.5      0.932      1.593
REMARK  Name = 
REMARK  9 active torsions:
REMARK  status: ('A' for Active; 'I' for Inactive)
REMARK    1  A    between atoms: C_1  and  N_2
REMARK    2  A    between atoms: N_2  and  C_3
REMARK    3  A    between atoms: N_2  and  C_4
REMARK    4  A    between atoms: C_4  and  C_5
REMARK    5  A    between atoms: C_5  and  O_6
REMARK    6  A    between atoms: C_5  and  C_7
REMARK    7  A    between atoms: C_7  and  N_8
REMARK    8  A    between atoms: N_8  and  C_9
REMARK    9  A    between atoms: C_12  and  C_13
REMARK                            x       y       z     vdW  Elec       q    Type
REMARK                         _______ _______ _______ _____ _____    ______ ____
ROOT
ATOM      1  N   UNL     1       4.795   4.255  17.389  0.00  0.00    +0.000 NA
ATOM      2  H   UNL     1       5.151   5.107  17.842  0.00  0.00    +0.000 HD
ENDROOT
BRANCH   1   3
ATOM      3  C   UNL     1       3.333   4.214  17.424  0.00  0.00    +0.000 C 
ATOM      4  C   UNL     1       2.830   2.805  17.790  0.00  0.00    +0.000 C 
ATOM      5  C   UNL     1       3.214   2.404  19.216  0.00  0.00    +0.000 C 
ATOM      6  C   UNL     1       2.685   3.400  20.256  0.00  0.00    +0.000 C 
ATOM      7  C   UNL     1       3.146   4.828  19.908  0.00  0.00    +0.000 C 
ATOM      8  C   UNL     1       2.815   5.224  18.463  0.00  0.00    +0.000 C 
BRANCH   6   9
ATOM      9  C   UNL     1       1.166   3.296  20.449  0.00  0.00    +0.000 C 
ATOM     10  F   UNL     1       0.565   2.583  19.470  0.00  0.00    +0.000 F 
ATOM     11  F   UNL     1       0.886   2.667  21.615  0.00  0.00    +0.000 F 
ATOM     12  F   UNL     1       0.558   4.502  20.496  0.00  0.00    +0.000 F 
ENDBRANCH   6   9
ENDBRANCH   1   3
BRANCH   1  13
ATOM     13  C   UNL     1       5.352   4.213  16.031  0.00  0.00    +0.000 C 
BRANCH  13  14
ATOM     14  C   UNL     1       6.030   5.551  15.706  0.00  0.00    +0.000 C 
BRANCH  14  15
ATOM     15  O   UNL     1       7.336   5.289  15.180  0.00  0.00    +0.000 OA
ATOM     16  H   UNL     1       7.264   5.307  14.207  0.00  0.00    +0.000 HD
ENDBRANCH  14  15
BRANCH  14  17
ATOM     17  C   UNL     1       6.077   6.439  16.972  0.00  0.00    +0.000 C 
BRANCH  17  19
ATOM     18  C   UNL     1       7.717   8.111  17.643  0.00  0.00    +0.000 C 
ATOM     19  N   UNL     1       7.434   6.680  17.507  0.00  0.00    +0.000 NA
ATOM     20  C   UNL     1       7.598   6.025  18.807  0.00  0.00    +0.000 C 
ENDBRANCH  17  19
ENDBRANCH  14  17
ENDBRANCH  13  14
ENDBRANCH   1  13
TORSDOF 7
ENDMDL
MODEL 7
REMARK VINA RESULT:      -6.5      1.627      2.742
REMARK  Name = 
REMARK  9 active torsions:
REMARK  status: ('A' for Active; 'I' for Inactive)
REMARK    1  A    between atoms: C_1  and  N_2
REMARK    2  A    between atoms: N_2  and  C_3
REMARK    3  A    between atoms: N_2  and  C_4
REMARK    4  A    between atoms: C_4  and  C_5
REMARK    5  A    between atoms: C_5  and  O_6
REMARK    6  A    between atoms: C_5  and  C_7
REMARK    7  A    between atoms: C_7  and  N_8
REMARK    8  A    between atoms: N_8  and  C_9
REMARK    9  A    between atoms: C_12  and  C_13
REMARK                            x       y       z     vdW  Elec       q    Type
REMARK                         _______ _______ _______ _____ _____    ______ ____
ROOT
ATOM      1  N   UNL     1       4.974   5.602  18.463  0.00  0.00    +0.000 NA
ATOM      2  H   UNL     1       4.641   5.275  17.546  0.00  0.00    +0.000 HD
ENDROOT
BRANCH   1   3
ATOM      3  C   UNL     1       4.092   5.141  19.535  0.00  0.00    +0.000 C 
ATOM      4  C   UNL     1       2.634   5.560  19.267  0.00  0.00    +0.000 C 
ATOM      5  C   UNL     1       2.051   4.873  18.030  0.00  0.00    +0.000 C 
ATOM      6  C   UNL     1       2.110   3.344  18.139  0.00  0.00    +0.000 C 
ATOM      7  C   UNL     1       3.552   2.887  18.434  0.00  0.00    +0.000 C 
ATOM      8  C   UNL     1       4.168   3.608  19.640  0.00  0.00    +0.000 C 
BRANCH   6   9
ATOM      9  C   UNL     1       1.092   2.787  19.144  0.00  0.00    +0.000 C 
ATOM     10  F   UNL     1       0.482   3.759  19.858  0.00  0.00    +0.000 F 
ATOM     11  F   UNL     1       0.116   2.112  18.492  0.00  0.00    +0.000 F 
ATOM     12  F   UNL     1       1.644   1.928  20.028  0.00  0.00    +0.000 F 
ENDBRANCH   6   9
ENDBRANCH   1   3
BRANCH   1  13
ATOM     13  C   UNL     1       6.364   5.154  18.611  0.00  0.00    +0.000 C 
BRANCH  13  14
ATOM     14  C   UNL     1       6.891   4.638  17.266  0.00  0.00    +0.000 C 
BRANCH  14  15
ATOM     15  O   UNL     1       8.201   4.094  17.462  0.00  0.00    +0.000 OA
ATOM     16  H   UNL     1       8.822   4.644  16.947  0.00  0.00    +0.000 HD
ENDBRANCH  14  15
BRANCH  14  17
ATOM     17  C   UNL     1       6.884   5.781  16.224  0.00  0.00    +0.000 C 
BRANCH  17  19
ATOM     18  C   UNL     1       7.318   4.912  13.989  0.00  0.00    +0.000 C 
ATOM     19  N   UNL     1       6.301   5.420  14.914  0.00  0.00    +0.000 NA
ATOM     20  C   UNL     1       5.247   4.417  15.079  0.00  0.00    +0.000 C 
ENDBRANCH  17  19
ENDBRANCH  14  17
ENDBRANCH  13  14
ENDBRANCH   1  13
TORSDOF 7
ENDMDL
MODEL 8
REMARK VINA RESULT:      -6.4      1.714      2.674
REMARK  Name = 
REMARK  9 active torsions:
REMARK  status: ('A' for Active; 'I' for Inactive)
REMARK    1  A    between atoms: C_1  and  N_2
REMARK    2  A    between atoms: N_2  and  C_3
REMARK    3  A    between atoms: N_2  and  C_4
REMARK    4  A    between atoms: C_4  and  C_5
REMARK    5  A    between atoms: C_5  and  O_6
REMARK    6  A    between atoms: C_5  and  C_7
REMARK    7  A    between atoms: C_7  and  N_8
REMARK    8  A    between atoms: N_8  and  C_9
REMARK    9  A    between atoms: C_12  and  C_13
REMARK                            x       y       z     vdW  Elec       q    Type
REMARK                         _______ _______ _______ _____ _____    ______ ____
ROOT
ATOM      1  N   UNL     1       5.681   3.936  18.821  0.00  0.00    +0.000 NA
ATOM      2  H   UNL     1       6.494   3.309  18.758  0.00  0.00    +0.000 HD
ENDROOT
BRANCH   1   3
ATOM      3  C   UNL     1       4.703   3.432  19.784  0.00  0.00    +0.000 C 
ATOM      4  C   UNL     1       3.525   4.413  19.938  0.00  0.00    +0.000 C 
ATOM      5  C   UNL     1       2.703   4.538  18.653  0.00  0.00    +0.000 C 
ATOM      6  C   UNL     1       2.155   3.184  18.186  0.00  0.00    +0.000 C 
ATOM      7  C   UNL     1       3.303   2.166  18.045  0.00  0.00    +0.000 C 
ATOM      8  C   UNL     1       4.169   2.069  19.308  0.00  0.00    +0.000 C 
BRANCH   6   9
ATOM      9  C   UNL     1       1.013   2.674  19.075  0.00  0.00    +0.000 C 
ATOM     10  F   UNL     1       1.441   1.826  20.036  0.00  0.00    +0.000 F 
ATOM     11  F   UNL     1       0.417   3.713  19.709  0.00  0.00    +0.000 F 
ATOM     12  F   UNL     1       0.049   2.034  18.377  0.00  0.00    +0.000 F 
ENDBRANCH   6   9
ENDBRANCH   1   3
BRANCH   1  13
ATOM     13  C   UNL     1       6.185   5.277  19.143  0.00  0.00    +0.000 C 
BRANCH  13  14
ATOM     14  C   UNL     1       7.516   5.521  18.418  0.00  0.00    +0.000 C 
BRANCH  14  15
ATOM     15  O   UNL     1       8.314   6.410  19.207  0.00  0.00    +0.000 OA
ATOM     16  H   UNL     1       9.238   6.310  18.909  0.00  0.00    +0.000 HD
ENDBRANCH  14  15
BRANCH  14  17
ATOM     17  C   UNL     1       7.248   6.079  17.000  0.00  0.00    +0.000 C 
BRANCH  17  19
ATOM     18  C   UNL     1       5.190   6.217  15.703  0.00  0.00    +0.000 C 
ATOM     19  N   UNL     1       6.236   5.332  16.223  0.00  0.00    +0.000 NA
ATOM     20  C   UNL     1       6.866   4.616  15.112  0.00  0.00    +0.000 C 
ENDBRANCH  17  19
ENDBRANCH  14  17
ENDBRANCH  13  14
ENDBRANCH   1  13
TORSDOF 7
ENDMDL
MODEL 9
REMARK VINA RESULT:      -6.4      1.195      1.580
REMARK  Name = 
REMARK  9 active torsions:
REMARK  status: ('A' for Active; 'I' for Inactive)
REMARK    1  A    between atoms: C_1  and  N_2
REMARK    2  A    between atoms: N_2  and  C_3
REMARK    3  A    between atoms: N_2  and  C_4
REMARK    4  A    between atoms: C_4  and  C_5
REMARK    5  A    between atoms: C_5  and  O_6
REMARK    6  A    between atoms: C_5  and  C_7
REMARK    7  A    between atoms: C_7  and  N_8
REMARK    8  A    between atoms: N_8  and  C_9
REMARK    9  A    between atoms: C_12  and  C_13
REMARK                            x       y       z     vdW  Elec       q    Type
REMARK                         _______ _______ _______ _____ _____    ______ ____
ROOT
ATOM      1  N   UNL     1       4.547   3.479  17.110  0.00  0.00    +0.000 NA
ATOM      2  H   UNL     1       5.271   2.853  17.487  0.00  0.00    +0.000 HD
ENDROOT
BRANCH   1   3
ATOM      3  C   UNL     1       4.015   4.354  18.154  0.00  0.00    +0.000 C 
ATOM      4  C   UNL     1       2.487   4.499  18.024  0.00  0.00    +0.000 C 
ATOM      5  C   UNL     1       1.755   3.180  18.283  0.00  0.00    +0.000 C 
ATOM      6  C   UNL     1       2.078   2.603  19.667  0.00  0.00    +0.000 C 
ATOM      7  C   UNL     1       3.602   2.468  19.844  0.00  0.00    +0.000 C 
ATOM      8  C   UNL     1       4.354   3.770  19.536  0.00  0.00    +0.000 C 
BRANCH   6   9
ATOM      9  C   UNL     1       1.414   3.395  20.802  0.00  0.00    +0.000 C 
ATOM     10  F   UNL     1       2.256   4.282  21.378  0.00  0.00    +0.000 F 
ATOM     11  F   UNL     1       0.366   4.108  20.322  0.00  0.00    +0.000 F 
ATOM     12  F   UNL     1       0.935   2.603  21.785  0.00  0.00    +0.000 F 
ENDBRANCH   6   9
ENDBRANCH   1   3
BRANCH   1  13
ATOM     13  C   UNL     1       5.138   4.205  15.979  0.00  0.00    +0.000 C 
BRANCH  13  14
ATOM     14  C   UNL     1       5.655   5.571  16.451  0.00  0.00    +0.000 C 
BRANCH  14  15
ATOM     15  O   UNL     1       5.103   6.588  15.609  0.00  0.00    +0.000 OA
ATOM     16  H   UNL     1       4.189   6.321  15.394  0.00  0.00    +0.000 HD
ENDBRANCH  14  15
BRANCH  14  17
ATOM     17  C   UNL     1       7.203   5.580  16.441  0.00  0.00    +0.000 C 
BRANCH  17  19
ATOM     18  C   UNL     1       7.593   7.723  17.535  0.00  0.00    +0.000 C 
ATOM     19  N   UNL     1       7.824   6.277  17.587  0.00  0.00    +0.000 NA
ATOM     20  C   UNL     1       7.309   5.747  18.851  0.00  0.00    +0.000 C 
ENDBRANCH  17  19
ENDBRANCH  14  17
ENDBRANCH  13  14
ENDBRANCH   1  13
TORSDOF 7
ENDMDL
