MODEL 1
REMARK VINA RESULT:      -8.6      0.000      0.000
REMARK  Name = 
REMARK  7 active torsions:
REMARK  status: ('A' for Active; 'I' for Inactive)
REMARK    1  A    between atoms: C_2  and  C_3
REMARK    2  A    between atoms: C_2  and  C_10
REMARK    3  A    between atoms: C_16  and  N_17
REMARK    4  A    between atoms: N_17  and  S_18
REMARK    5  A    between atoms: S_18  and  C_21
REMARK    6  A    between atoms: C_24  and  C_25
REMARK    7  A    between atoms: C_25  and  C_26
REMARK                            x       y       z     vdW  Elec       q    Type
REMARK                         _______ _______ _______ _____ _____    ______ ____
ROOT
ATOM      1  N   UNL     1       0.016  11.075  18.448  0.00  0.00    +0.000 N 
ATOM      2  H   UNL     1       0.512  11.976  18.516  0.00  0.00    +0.000 HD
ENDROOT
BRANCH   1   9
ATOM      3  C   UNL     1      -2.236  12.045  19.054  0.00  0.00    +0.000 A 
ATOM      4  C   UNL     1      -3.631  11.899  18.906  0.00  0.00    +0.000 A 
ATOM      5  C   UNL     1      -4.168  11.117  17.890  0.00  0.00    +0.000 A 
ATOM      6 CL   UNL     1      -5.871  11.052  17.686  0.00  0.00    +0.000 Cl
ATOM      7  C   UNL     1      -3.335  10.438  17.018  0.00  0.00    +0.000 A 
ATOM      8  C   UNL     1      -1.956  10.498  17.203  0.00  0.00    +0.000 A 
ATOM      9  C   UNL     1      -1.395  11.257  18.243  0.00  0.00    +0.000 A 
BRANCH   3  11
ATOM     10  O   UNL     1      -0.965  13.982  19.620  0.00  0.00    +0.000 OA
ATOM     11  C   UNL     1      -1.732  13.106  19.996  0.00  0.00    +0.000 C 
BRANCH  11  12
ATOM     12  C   UNL     1      -2.229  13.106  21.415  0.00  0.00    +0.000 A 
ATOM     13  C   UNL     1      -3.165  14.064  21.827  0.00  0.00    +0.000 A 
ATOM     14  C   UNL     1      -3.850  13.889  23.030  0.00  0.00    +0.000 A 
ATOM     15  N   UNL     1      -3.588  12.814  23.858  0.00  0.00    +0.000 N 
ATOM     16  O   UNL     1      -4.267  12.628  24.908  0.00  0.00    +0.000 OA
ATOM     17  C   UNL     1      -2.576  11.936  23.493  0.00  0.00    +0.000 A 
ATOM     18  C   UNL     1      -1.885  12.067  22.281  0.00  0.00    +0.000 A 
ENDBRANCH  11  12
ENDBRANCH   3  11
ENDBRANCH   1   9
BRANCH   1  19
ATOM     19  S   UNL     1       0.455  10.228  19.874  0.00  0.00    +0.000 S 
ATOM     20  O   UNL     1       1.296  11.119  20.648  0.00  0.00    +0.000 OA
ATOM     21  O   UNL     1      -0.759   9.670  20.439  0.00  0.00    +0.000 OA
BRANCH  19  22
ATOM     22  C   UNL     1       1.486   8.846  19.375  0.00  0.00    +0.000 A 
ATOM     23  C   UNL     1       1.769   7.798  20.254  0.00  0.00    +0.000 A 
ATOM     24  C   UNL     1       2.451   6.660  19.784  0.00  0.00    +0.000 A 
ATOM     25  C   UNL     1       2.833   6.529  18.432  0.00  0.00    +0.000 A 
ATOM     26  C   UNL     1       2.560   7.614  17.581  0.00  0.00    +0.000 A 
ATOM     27  C   UNL     1       1.891   8.754  18.041  0.00  0.00    +0.000 A 
BRANCH  25  28
ATOM     28  C   UNL     1       3.402   5.221  17.873  0.00  0.00    +0.000 C 
ATOM     29  C   UNL     1       4.549   5.297  16.860  0.00  0.00    +0.000 C 
ATOM     30  C   UNL     1       4.834   4.837  18.251  0.00  0.00    +0.000 C 
BRANCH  28  31
ATOM     31  C   UNL     1       2.375   4.112  17.674  0.00  0.00    +0.000 C 
ATOM     32  F   UNL     1       1.173   4.584  17.267  0.00  0.00    +0.000 F 
ATOM     33  F   UNL     1       2.796   3.225  16.737  0.00  0.00    +0.000 F 
ATOM     34  F   UNL     1       2.173   3.424  18.824  0.00  0.00    +0.000 F 
ENDBRANCH  28  31
ENDBRANCH  25  28
ENDBRANCH  19  22
ENDBRANCH   1  19
TORSDOF 7
ENDMDL
MODEL 2
REMARK VINA RESULT:      -8.5      0.999      1.087
REMARK  Name = 
REMARK  7 active torsions:
REMARK  status: ('A' for Active; 'I' for Inactive)
REMARK    1  A    between atoms: C_2  and  C_3
REMARK    2  A    between atoms: C_2  and  C_10
REMARK    3  A    between atoms: C_16  and  N_17
REMARK    4  A    between atoms: N_17  and  S_18
REMARK    5  A    between atoms: S_18  and  C_21
REMARK    6  A    between atoms: C_24  and  C_25
REMARK    7  A    between atoms: C_25  and  C_26
REMARK                            x       y       z     vdW  Elec       q    Type
REMARK                         _______ _______ _______ _____ _____    ______ ____
ROOT
ATOM      1  N   UNL     1       0.749  10.828  19.905  0.00  0.00    +0.000 N 
ATOM      2  H   UNL     1       1.028  11.664  20.440  0.00  0.00    +0.000 HD
ENDROOT
BRANCH   1   9
ATOM      3  C   UNL     1      -1.510  11.910  19.581  0.00  0.00    +0.000 A 
ATOM      4  C   UNL     1      -2.759  11.800  18.934  0.00  0.00    +0.000 A 
ATOM      5  C   UNL     1      -2.926  10.968  17.833  0.00  0.00    +0.000 A 
ATOM      6 CL   UNL     1      -4.435  10.944  17.016  0.00  0.00    +0.000 Cl
ATOM      7  C   UNL     1      -1.869  10.204  17.369  0.00  0.00    +0.000 A 
ATOM      8  C   UNL     1      -0.654  10.232  18.048  0.00  0.00    +0.000 A 
ATOM      9  C   UNL     1      -0.475  11.042  19.182  0.00  0.00    +0.000 A 
BRANCH   3  11
ATOM     10  O   UNL     1      -0.418  13.825  20.491  0.00  0.00    +0.000 OA
ATOM     11  C   UNL     1      -1.331  13.016  20.587  0.00  0.00    +0.000 C 
BRANCH  11  12
ATOM     12  C   UNL     1      -2.332  13.147  21.701  0.00  0.00    +0.000 A 
ATOM     13  C   UNL     1      -3.404  14.040  21.574  0.00  0.00    +0.000 A 
ATOM     14  C   UNL     1      -4.487  13.950  22.450  0.00  0.00    +0.000 A 
ATOM     15  N   UNL     1      -4.503  13.029  23.482  0.00  0.00    +0.000 N 
ATOM     16  O   UNL     1      -5.521  12.909  24.222  0.00  0.00    +0.000 OA
ATOM     17  C   UNL     1      -3.383  12.231  23.666  0.00  0.00    +0.000 A 
ATOM     18  C   UNL     1      -2.289  12.277  22.791  0.00  0.00    +0.000 A 
ENDBRANCH  11  12
ENDBRANCH   3  11
ENDBRANCH   1   9
BRANCH   1  19
ATOM     19  S   UNL     1       0.716   9.561  21.062  0.00  0.00    +0.000 S 
ATOM     20  O   UNL     1       1.516  10.002  22.188  0.00  0.00    +0.000 OA
ATOM     21  O   UNL     1      -0.671   9.172  21.240  0.00  0.00    +0.000 OA
BRANCH  19  22
ATOM     22  C   UNL     1       1.567   8.158  20.338  0.00  0.00    +0.000 A 
ATOM     23  C   UNL     1       1.584   6.913  20.972  0.00  0.00    +0.000 A 
ATOM     24  C   UNL     1       2.128   5.800  20.306  0.00  0.00    +0.000 A 
ATOM     25  C   UNL     1       2.632   5.894  18.991  0.00  0.00    +0.000 A 
ATOM     26  C   UNL     1       2.629   7.166  18.394  0.00  0.00    +0.000 A 
ATOM     27  C   UNL     1       2.099   8.282  19.051  0.00  0.00    +0.000 A 
BRANCH  25  28
ATOM     28  C   UNL     1       3.049   4.656  18.191  0.00  0.00    +0.000 C 
ATOM     29  C   UNL     1       4.292   4.745  17.301  0.00  0.00    +0.000 C 
ATOM     30  C   UNL     1       4.359   3.959  18.568  0.00  0.00    +0.000 C 
BRANCH  28  31
ATOM     31  C   UNL     1       1.890   3.807  17.679  0.00  0.00    +0.000 C 
ATOM     32  F   UNL     1       0.914   4.552  17.109  0.00  0.00    +0.000 F 
ATOM     33  F   UNL     1       2.316   2.920  16.745  0.00  0.00    +0.000 F 
ATOM     34  F   UNL     1       1.324   3.098  18.686  0.00  0.00    +0.000 F 
ENDBRANCH  28  31
ENDBRANCH  25  28
ENDBRANCH  19  22
ENDBRANCH   1  19
TORSDOF 7
ENDMDL
MODEL 3
REMARK VINA RESULT:      -8.4      1.360      1.654
REMARK  Name = 
REMARK  7 active torsions:
REMARK  status: ('A' for Active; 'I' for Inactive)
REMARK    1  A    between atoms: C_2  and  C_3
REMARK    2  A    between atoms: C_2  and  C_10
REMARK    3  A    between atoms: C_16  and  N_17
REMARK    4  A    between atoms: N_17  and  S_18
REMARK    5  A    between atoms: S_18  and  C_21
REMARK    6  A    between atoms: C_24  and  C_25
REMARK    7  A    between atoms: C_25  and  C_26
REMARK                            x       y       z     vdW  Elec       q    Type
REMARK                         _______ _______ _______ _____ _____    ______ ____
ROOT
ATOM      1  N   UNL     1      -0.810  10.051  20.127  0.00  0.00    +0.000 N 
ATOM      2  H   UNL     1      -0.934   9.044  20.312  0.00  0.00    +0.000 HD
ENDROOT
BRANCH   1   9
ATOM      3  C   UNL     1      -2.243  11.590  18.728  0.00  0.00    +0.000 A 
ATOM      4  C   UNL     1      -3.017  11.693  17.553  0.00  0.00    +0.000 A 
ATOM      5  C   UNL     1      -2.878  10.774  16.519  0.00  0.00    +0.000 A 
ATOM      6 CL   UNL     1      -3.765  10.998  15.067  0.00  0.00    +0.000 Cl
ATOM      7  C   UNL     1      -1.993   9.717  16.639  0.00  0.00    +0.000 A 
ATOM      8  C   UNL     1      -1.286   9.548  17.827  0.00  0.00    +0.000 A 
ATOM      9  C   UNL     1      -1.437  10.448  18.895  0.00  0.00    +0.000 A 
BRANCH   3  11
ATOM     10  O   UNL     1      -1.366  13.602  19.663  0.00  0.00    +0.000 OA
ATOM     11  C   UNL     1      -2.250  12.754  19.683  0.00  0.00    +0.000 C 
BRANCH  11  12
ATOM     12  C   UNL     1      -3.398  12.894  20.642  0.00  0.00    +0.000 A 
ATOM     13  C   UNL     1      -4.708  12.664  20.200  0.00  0.00    +0.000 A 
ATOM     14  C   UNL     1      -5.733  12.494  21.133  0.00  0.00    +0.000 A 
ATOM     15  N   UNL     1      -5.495  12.601  22.490  0.00  0.00    +0.000 N 
ATOM     16  O   UNL     1      -6.417  12.372  23.326  0.00  0.00    +0.000 OA
ATOM     17  C   UNL     1      -4.217  12.945  22.907  0.00  0.00    +0.000 A 
ATOM     18  C   UNL     1      -3.159  13.099  22.001  0.00  0.00    +0.000 A 
ENDBRANCH  11  12
ENDBRANCH   3  11
ENDBRANCH   1   9
BRANCH   1  19
ATOM     19  S   UNL     1       0.885  10.302  20.212  0.00  0.00    +0.000 S 
ATOM     20  O   UNL     1       1.212  11.294  19.206  0.00  0.00    +0.000 OA
ATOM     21  O   UNL     1       1.224  10.516  21.606  0.00  0.00    +0.000 OA
BRANCH  19  22
ATOM     22  C   UNL     1       1.675   8.772  19.707  0.00  0.00    +0.000 A 
ATOM     23  C   UNL     1       1.737   7.671  20.564  0.00  0.00    +0.000 A 
ATOM     24  C   UNL     1       2.225   6.442  20.084  0.00  0.00    +0.000 A 
ATOM     25  C   UNL     1       2.626   6.275  18.740  0.00  0.00    +0.000 A 
ATOM     26  C   UNL     1       2.580   7.410  17.913  0.00  0.00    +0.000 A 
ATOM     27  C   UNL     1       2.105   8.640  18.384  0.00  0.00    +0.000 A 
BRANCH  25  28
ATOM     28  C   UNL     1       2.977   4.901  18.163  0.00  0.00    +0.000 C 
ATOM     29  C   UNL     1       4.188   4.786  17.232  0.00  0.00    +0.000 C 
ATOM     30  C   UNL     1       4.279   4.237  18.618  0.00  0.00    +0.000 C 
BRANCH  28  31
ATOM     31  C   UNL     1       1.775   4.015  17.848  0.00  0.00    +0.000 C 
ATOM     32  F   UNL     1       1.138   3.590  18.965  0.00  0.00    +0.000 F 
ATOM     33  F   UNL     1       0.866   4.683  17.096  0.00  0.00    +0.000 F 
ATOM     34  F   UNL     1       2.151   2.915  17.152  0.00  0.00    +0.000 F 
ENDBRANCH  28  31
ENDBRANCH  25  28
ENDBRANCH  19  22
ENDBRANCH   1  19
TORSDOF 7
ENDMDL
MODEL 4
REMARK VINA RESULT:      -8.4      1.557      2.206
REMARK  Name = 
REMARK  7 active torsions:
REMARK  status: ('A' for Active; 'I' for Inactive)
REMARK    1  A    between atoms: C_2  and  C_3
REMARK    2  A    between atoms: C_2  and  C_10
REMARK    3  A    between atoms: C_16  and  N_17
REMARK    4  A    between atoms: N_17  and  S_18
REMARK    5  A    between atoms: S_18  and  C_21
REMARK    6  A    between atoms: C_24  and  C_25
REMARK    7  A    between atoms: C_25  and  C_26
REMARK                            x       y       z     vdW  Elec       q    Type
REMARK                         _______ _______ _______ _____ _____    ______ ____
ROOT
ATOM      1  N   UNL     1       1.079  10.314  20.189  0.00  0.00    +0.000 N 
ATOM      2  H   UNL     1       1.522  11.039  20.772  0.00  0.00    +0.000 HD
ENDROOT
BRANCH   1   9
ATOM      3  C   UNL     1      -1.068  11.644  20.201  0.00  0.00    +0.000 A 
ATOM      4  C   UNL     1      -2.339  11.786  19.607  0.00  0.00    +0.000 A 
ATOM      5  C   UNL     1      -2.620  11.220  18.368  0.00  0.00    +0.000 A 
ATOM      6 CL   UNL     1      -4.146  11.506  17.638  0.00  0.00    +0.000 Cl
ATOM      7  C   UNL     1      -1.659  10.475  17.708  0.00  0.00    +0.000 A 
ATOM      8  C   UNL     1      -0.429  10.248  18.320  0.00  0.00    +0.000 A 
ATOM      9  C   UNL     1      -0.138  10.785  19.585  0.00  0.00    +0.000 A 
BRANCH   3  11
ATOM     10  O   UNL     1       0.393  12.601  21.826  0.00  0.00    +0.000 OA
ATOM     11  C   UNL     1      -0.750  12.495  21.402  0.00  0.00    +0.000 C 
BRANCH  11  12
ATOM     12  C   UNL     1      -1.863  13.267  22.054  0.00  0.00    +0.000 A 
ATOM     13  C   UNL     1      -2.569  12.704  23.126  0.00  0.00    +0.000 A 
ATOM     14  C   UNL     1      -3.381  13.514  23.921  0.00  0.00    +0.000 A 
ATOM     15  N   UNL     1      -3.550  14.858  23.643  0.00  0.00    +0.000 N 
ATOM     16  O   UNL     1      -4.229  15.595  24.414  0.00  0.00    +0.000 OA
ATOM     17  C   UNL     1      -2.937  15.375  22.510  0.00  0.00    +0.000 A 
ATOM     18  C   UNL     1      -2.096  14.598  21.704  0.00  0.00    +0.000 A 
ENDBRANCH  11  12
ENDBRANCH   3  11
ENDBRANCH   1   9
BRANCH   1  19
ATOM     19  S   UNL     1       0.914   8.959  21.230  0.00  0.00    +0.000 S 
ATOM     20  O   UNL     1       1.795   9.188  22.357  0.00  0.00    +0.000 OA
ATOM     21  O   UNL     1      -0.506   8.734  21.427  0.00  0.00    +0.000 OA
BRANCH  19  22
ATOM     22  C   UNL     1       1.556   7.533  20.351  0.00  0.00    +0.000 A 
ATOM     23  C   UNL     1       2.272   7.677  19.159  0.00  0.00    +0.000 A 
ATOM     24  C   UNL     1       2.890   6.554  18.579  0.00  0.00    +0.000 A 
ATOM     25  C   UNL     1       2.838   5.280  19.186  0.00  0.00    +0.000 A 
ATOM     26  C   UNL     1       2.084   5.164  20.366  0.00  0.00    +0.000 A 
ATOM     27  C   UNL     1       1.457   6.273  20.947  0.00  0.00    +0.000 A 
BRANCH  25  28
ATOM     28  C   UNL     1       3.662   4.099  18.666  0.00  0.00    +0.000 C 
ATOM     29  C   UNL     1       5.181   4.122  18.867  0.00  0.00    +0.000 C 
ATOM     30  C   UNL     1       4.351   3.192  19.689  0.00  0.00    +0.000 C 
BRANCH  28  31
ATOM     31  C   UNL     1       3.145   3.481  17.371  0.00  0.00    +0.000 C 
ATOM     32  F   UNL     1       3.175   2.127  17.395  0.00  0.00    +0.000 F 
ATOM     33  F   UNL     1       1.861   3.850  17.138  0.00  0.00    +0.000 F 
ATOM     34  F   UNL     1       3.885   3.884  16.310  0.00  0.00    +0.000 F 
ENDBRANCH  28  31
ENDBRANCH  25  28
ENDBRANCH  19  22
ENDBRANCH   1  19
TORSDOF 7
ENDMDL
MODEL 5
REMARK VINA RESULT:      -8.4      2.219      2.817
REMARK  Name = 
REMARK  7 active torsions:
REMARK  status: ('A' for Active; 'I' for Inactive)
REMARK    1  A    between atoms: C_2  and  C_3
REMARK    2  A    between atoms: C_2  and  C_10
REMARK    3  A    between atoms: C_16  and  N_17
REMARK    4  A    between atoms: N_17  and  S_18
REMARK    5  A    between atoms: S_18  and  C_21
REMARK    6  A    between atoms: C_24  and  C_25
REMARK    7  A    between atoms: C_25  and  C_26
REMARK                            x       y       z     vdW  Elec       q    Type
REMARK                         _______ _______ _______ _____ _____    ______ ____
ROOT
ATOM      1  N   UNL     1       0.743  11.066  18.495  0.00  0.00    +0.000 N 
ATOM      2  H   UNL     1       1.622  10.803  18.026  0.00  0.00    +0.000 HD
ENDROOT
BRANCH   1   9
ATOM      3  C   UNL     1      -0.489  13.225  18.946  0.00  0.00    +0.000 A 
ATOM      4  C   UNL     1      -0.393  14.632  18.930  0.00  0.00    +0.000 A 
ATOM      5  C   UNL     1       0.844  15.267  18.904  0.00  0.00    +0.000 A 
ATOM      6 CL   UNL     1       0.915  16.979  18.990  0.00  0.00    +0.000 Cl
ATOM      7  C   UNL     1       2.009  14.522  18.861  0.00  0.00    +0.000 A 
ATOM      8  C   UNL     1       1.932  13.133  18.785  0.00  0.00    +0.000 A 
ATOM      9  C   UNL     1       0.691  12.475  18.778  0.00  0.00    +0.000 A 
BRANCH   3  11
ATOM     10  O   UNL     1      -2.456  11.997  18.386  0.00  0.00    +0.000 OA
ATOM     11  C   UNL     1      -1.833  12.612  19.241  0.00  0.00    +0.000 C 
BRANCH  11  12
ATOM     12  C   UNL     1      -2.386  12.722  20.634  0.00  0.00    +0.000 A 
ATOM     13  C   UNL     1      -3.756  12.949  20.825  0.00  0.00    +0.000 A 
ATOM     14  C   UNL     1      -4.320  12.752  22.087  0.00  0.00    +0.000 A 
ATOM     15  N   UNL     1      -3.545  12.388  23.172  0.00  0.00    +0.000 N 
ATOM     16  O   UNL     1      -4.079  12.141  24.292  0.00  0.00    +0.000 OA
ATOM     17  C   UNL     1      -2.173  12.281  22.993  0.00  0.00    +0.000 A 
ATOM     18  C   UNL     1      -1.576  12.448  21.736  0.00  0.00    +0.000 A 
ENDBRANCH  11  12
ENDBRANCH   3  11
ENDBRANCH   1   9
BRANCH   1  19
ATOM     19  S   UNL     1       0.652  10.032  19.861  0.00  0.00    +0.000 S 
ATOM     20  O   UNL     1       1.341  10.706  20.944  0.00  0.00    +0.000 OA
ATOM     21  O   UNL     1      -0.732   9.618  20.002  0.00  0.00    +0.000 OA
BRANCH  19  22
ATOM     22  C   UNL     1       1.605   8.560  19.477  0.00  0.00    +0.000 A 
ATOM     23  C   UNL     1       1.695   7.499  20.381  0.00  0.00    +0.000 A 
ATOM     24  C   UNL     1       2.321   6.301  19.987  0.00  0.00    +0.000 A 
ATOM     25  C   UNL     1       2.836   6.125  18.685  0.00  0.00    +0.000 A 
ATOM     26  C   UNL     1       2.756   7.223  17.811  0.00  0.00    +0.000 A 
ATOM     27  C   UNL     1       2.144   8.422  18.196  0.00  0.00    +0.000 A 
BRANCH  25  28
ATOM     28  C   UNL     1       3.345   4.768  18.190  0.00  0.00    +0.000 C 
ATOM     29  C   UNL     1       4.715   4.705  17.508  0.00  0.00    +0.000 C 
ATOM     30  C   UNL     1       4.561   4.155  18.888  0.00  0.00    +0.000 C 
BRANCH  28  31
ATOM     31  C   UNL     1       2.262   3.836  17.655  0.00  0.00    +0.000 C 
ATOM     32  F   UNL     1       2.630   3.217  16.509  0.00  0.00    +0.000 F 
ATOM     33  F   UNL     1       1.968   2.868  18.558  0.00  0.00    +0.000 F 
ATOM     34  F   UNL     1       1.118   4.516  17.400  0.00  0.00    +0.000 F 
ENDBRANCH  28  31
ENDBRANCH  25  28
ENDBRANCH  19  22
ENDBRANCH   1  19
TORSDOF 7
ENDMDL
MODEL 6
REMARK VINA RESULT:      -8.4      1.516      1.862
REMARK  Name = 
REMARK  7 active torsions:
REMARK  status: ('A' for Active; 'I' for Inactive)
REMARK    1  A    between atoms: C_2  and  C_3
REMARK    2  A    between atoms: C_2  and  C_10
REMARK    3  A    between atoms: C_16  and  N_17
REMARK    4  A    between atoms: N_17  and  S_18
REMARK    5  A    between atoms: S_18  and  C_21
REMARK    6  A    between atoms: C_24  and  C_25
REMARK    7  A    between atoms: C_25  and  C_26
REMARK                            x       y       z     vdW  Elec       q    Type
REMARK                         _______ _______ _______ _____ _____    ______ ____
ROOT
ATOM      1  N   UNL     1      -0.774  10.084  20.302  0.00  0.00    +0.000 N 
ATOM      2  H   UNL     1      -0.960   9.090  20.502  0.00  0.00    +0.000 HD
ENDROOT
BRANCH   1   9
ATOM      3  C   UNL     1      -2.116  11.722  18.925  0.00  0.00    +0.000 A 
ATOM      4  C   UNL     1      -2.925  11.873  17.779  0.00  0.00    +0.000 A 
ATOM      5  C   UNL     1      -2.913  10.925  16.762  0.00  0.00    +0.000 A 
ATOM      6 CL   UNL     1      -3.835  11.203  15.341  0.00  0.00    +0.000 Cl
ATOM      7  C   UNL     1      -2.124   9.794  16.872  0.00  0.00    +0.000 A 
ATOM      8  C   UNL     1      -1.387   9.583  18.034  0.00  0.00    +0.000 A 
ATOM      9  C   UNL     1      -1.411  10.514  19.087  0.00  0.00    +0.000 A 
BRANCH   3  11
ATOM     10  O   UNL     1      -1.227  13.831  19.595  0.00  0.00    +0.000 OA
ATOM     11  C   UNL     1      -1.978  12.900  19.853  0.00  0.00    +0.000 C 
BRANCH  11  12
ATOM     12  C   UNL     1      -2.824  12.944  21.094  0.00  0.00    +0.000 A 
ATOM     13  C   UNL     1      -4.193  13.223  20.996  0.00  0.00    +0.000 A 
ATOM     14  C   UNL     1      -5.031  12.970  22.084  0.00  0.00    +0.000 A 
ATOM     15  N   UNL     1      -4.530  12.497  23.283  0.00  0.00    +0.000 N 
ATOM     16  O   UNL     1      -5.308  12.202  24.235  0.00  0.00    +0.000 OA
ATOM     17  C   UNL     1      -3.157  12.337  23.402  0.00  0.00    +0.000 A 
ATOM     18  C   UNL     1      -2.289  12.558  22.324  0.00  0.00    +0.000 A 
ENDBRANCH  11  12
ENDBRANCH   3  11
ENDBRANCH   1   9
BRANCH   1  19
ATOM     19  S   UNL     1       0.937  10.220  20.330  0.00  0.00    +0.000 S 
ATOM     20  O   UNL     1       1.307  11.075  19.219  0.00  0.00    +0.000 OA
ATOM     21  O   UNL     1       1.324  10.553  21.688  0.00  0.00    +0.000 OA
BRANCH  19  22
ATOM     22  C   UNL     1       1.604   8.592  19.976  0.00  0.00    +0.000 A 
ATOM     23  C   UNL     1       1.516   7.554  20.907  0.00  0.00    +0.000 A 
ATOM     24  C   UNL     1       1.910   6.255  20.540  0.00  0.00    +0.000 A 
ATOM     25  C   UNL     1       2.366   5.957  19.237  0.00  0.00    +0.000 A 
ATOM     26  C   UNL     1       2.471   7.029  18.335  0.00  0.00    +0.000 A 
ATOM     27  C   UNL     1       2.091   8.327  18.694  0.00  0.00    +0.000 A 
BRANCH  25  28
ATOM     28  C   UNL     1       2.615   4.518  18.774  0.00  0.00    +0.000 C 
ATOM     29  C   UNL     1       1.489   3.492  18.936  0.00  0.00    +0.000 C 
ATOM     30  C   UNL     1       1.823   3.998  17.572  0.00  0.00    +0.000 C 
BRANCH  28  31
ATOM     31  C   UNL     1       4.041   4.019  18.982  0.00  0.00    +0.000 C 
ATOM     32  F   UNL     1       4.098   2.927  19.781  0.00  0.00    +0.000 F 
ATOM     33  F   UNL     1       4.612   3.681  17.799  0.00  0.00    +0.000 F 
ATOM     34  F   UNL     1       4.814   4.977  19.548  0.00  0.00    +0.000 F 
ENDBRANCH  28  31
ENDBRANCH  25  28
ENDBRANCH  19  22
ENDBRANCH   1  19
TORSDOF 7
ENDMDL
MODEL 7
REMARK VINA RESULT:      -8.4      1.381      1.709
REMARK  Name = 
REMARK  7 active torsions:
REMARK  status: ('A' for Active; 'I' for Inactive)
REMARK    1  A    between atoms: C_2  and  C_3
REMARK    2  A    between atoms: C_2  and  C_10
REMARK    3  A    between atoms: C_16  and  N_17
REMARK    4  A    between atoms: N_17  and  S_18
REMARK    5  A    between atoms: S_18  and  C_21
REMARK    6  A    between atoms: C_24  and  C_25
REMARK    7  A    between atoms: C_25  and  C_26
REMARK                            x       y       z     vdW  Elec       q    Type
REMARK                         _______ _______ _______ _____ _____    ______ ____
ROOT
ATOM      1  N   UNL     1       1.057  10.305  20.065  0.00  0.00    +0.000 N 
ATOM      2  H   UNL     1       1.570  11.025  20.595  0.00  0.00    +0.000 HD
ENDROOT
BRANCH   1   9
ATOM      3  C   UNL     1      -1.059  11.680  20.179  0.00  0.00    +0.000 A 
ATOM      4  C   UNL     1      -2.344  11.866  19.628  0.00  0.00    +0.000 A 
ATOM      5  C   UNL     1      -2.674  11.340  18.383  0.00  0.00    +0.000 A 
ATOM      6 CL   UNL     1      -4.214  11.680  17.707  0.00  0.00    +0.000 Cl
ATOM      7  C   UNL     1      -1.750  10.594  17.674  0.00  0.00    +0.000 A 
ATOM      8  C   UNL     1      -0.507  10.323  18.242  0.00  0.00    +0.000 A 
ATOM      9  C   UNL     1      -0.166  10.819  19.512  0.00  0.00    +0.000 A 
BRANCH   3  11
ATOM     10  O   UNL     1       0.477  12.784  21.632  0.00  0.00    +0.000 OA
ATOM     11  C   UNL     1      -0.686  12.490  21.393  0.00  0.00    +0.000 C 
BRANCH  11  12
ATOM     12  C   UNL     1      -1.783  12.985  22.294  0.00  0.00    +0.000 A 
ATOM     13  C   UNL     1      -2.266  14.293  22.153  0.00  0.00    +0.000 A 
ATOM     14  C   UNL     1      -3.467  14.656  22.764  0.00  0.00    +0.000 A 
ATOM     15  N   UNL     1      -4.169  13.767  23.557  0.00  0.00    +0.000 N 
ATOM     16  O   UNL     1      -5.292  14.085  24.044  0.00  0.00    +0.000 OA
ATOM     17  C   UNL     1      -3.618  12.513  23.782  0.00  0.00    +0.000 A 
ATOM     18  C   UNL     1      -2.428  12.106  23.165  0.00  0.00    +0.000 A 
ENDBRANCH  11  12
ENDBRANCH   3  11
ENDBRANCH   1   9
BRANCH   1  19
ATOM     19  S   UNL     1       0.882   8.999  21.165  0.00  0.00    +0.000 S 
ATOM     20  O   UNL     1       1.630   9.352  22.356  0.00  0.00    +0.000 OA
ATOM     21  O   UNL     1      -0.532   8.681  21.240  0.00  0.00    +0.000 OA
BRANCH  19  22
ATOM     22  C   UNL     1       1.704   7.579  20.439  0.00  0.00    +0.000 A 
ATOM     23  C   UNL     1       1.661   6.324  21.052  0.00  0.00    +0.000 A 
ATOM     24  C   UNL     1       2.184   5.204  20.381  0.00  0.00    +0.000 A 
ATOM     25  C   UNL     1       2.724   5.302  19.080  0.00  0.00    +0.000 A 
ATOM     26  C   UNL     1       2.779   6.582  18.505  0.00  0.00    +0.000 A 
ATOM     27  C   UNL     1       2.271   7.705  19.168  0.00  0.00    +0.000 A 
BRANCH  25  28
ATOM     28  C   UNL     1       3.119   4.063  18.271  0.00  0.00    +0.000 C 
ATOM     29  C   UNL     1       4.037   4.244  17.058  0.00  0.00    +0.000 C 
ATOM     30  C   UNL     1       4.584   3.619  18.298  0.00  0.00    +0.000 C 
BRANCH  28  31
ATOM     31  C   UNL     1       2.034   2.997  18.164  0.00  0.00    +0.000 C 
ATOM     32  F   UNL     1       2.288   2.093  17.188  0.00  0.00    +0.000 F 
ATOM     33  F   UNL     1       1.915   2.309  19.327  0.00  0.00    +0.000 F 
ATOM     34  F   UNL     1       0.828   3.556  17.896  0.00  0.00    +0.000 F 
ENDBRANCH  28  31
ENDBRANCH  25  28
ENDBRANCH  19  22
ENDBRANCH   1  19
TORSDOF 7
ENDMDL
MODEL 8
REMARK VINA RESULT:      -8.3      1.664      2.084
REMARK  Name = 
REMARK  7 active torsions:
REMARK  status: ('A' for Active; 'I' for Inactive)
REMARK    1  A    between atoms: C_2  and  C_3
REMARK    2  A    between atoms: C_2  and  C_10
REMARK    3  A    between atoms: C_16  and  N_17
REMARK    4  A    between atoms: N_17  and  S_18
REMARK    5  A    between atoms: S_18  and  C_21
REMARK    6  A    between atoms: C_24  and  C_25
REMARK    7  A    between atoms: C_25  and  C_26
REMARK                            x       y       z     vdW  Elec       q    Type
REMARK                         _______ _______ _______ _____ _____    ______ ____
ROOT
ATOM      1  N   UNL     1       0.792  10.750  19.901  0.00  0.00    +0.000 N 
ATOM      2  H   UNL     1       0.982  11.550  20.523  0.00  0.00    +0.000 HD
ENDROOT
BRANCH   1   9
ATOM      3  C   UNL     1      -1.460  11.815  19.480  0.00  0.00    +0.000 A 
ATOM      4  C   UNL     1      -2.685  11.687  18.793  0.00  0.00    +0.000 A 
ATOM      5  C   UNL     1      -2.812  10.834  17.703  0.00  0.00    +0.000 A 
ATOM      6 CL   UNL     1      -4.292  10.788  16.837  0.00  0.00    +0.000 Cl
ATOM      7  C   UNL     1      -1.737  10.066  17.290  0.00  0.00    +0.000 A 
ATOM      8  C   UNL     1      -0.546  10.112  18.010  0.00  0.00    +0.000 A 
ATOM      9  C   UNL     1      -0.409  10.944  19.133  0.00  0.00    +0.000 A 
BRANCH   3  11
ATOM     10  O   UNL     1      -0.559  13.879  20.267  0.00  0.00    +0.000 OA
ATOM     11  C   UNL     1      -1.318  12.941  20.471  0.00  0.00    +0.000 C 
BRANCH  11  12
ATOM     12  C   UNL     1      -2.172  12.924  21.708  0.00  0.00    +0.000 A 
ATOM     13  C   UNL     1      -3.346  13.688  21.756  0.00  0.00    +0.000 A 
ATOM     14  C   UNL     1      -4.286  13.448  22.760  0.00  0.00    +0.000 A 
ATOM     15  N   UNL     1      -4.061  12.505  23.745  0.00  0.00    +0.000 N 
ATOM     16  O   UNL     1      -4.953  12.246  24.605  0.00  0.00    +0.000 OA
ATOM     17  C   UNL     1      -2.844  11.840  23.752  0.00  0.00    +0.000 A 
ATOM     18  C   UNL     1      -1.887  12.037  22.747  0.00  0.00    +0.000 A 
ENDBRANCH  11  12
ENDBRANCH   3  11
ENDBRANCH   1   9
BRANCH   1  19
ATOM     19  S   UNL     1       0.795   9.382  20.937  0.00  0.00    +0.000 S 
ATOM     20  O   UNL     1       1.663   9.705  22.053  0.00  0.00    +0.000 OA
ATOM     21  O   UNL     1      -0.587   8.999  21.155  0.00  0.00    +0.000 OA
BRANCH  19  22
ATOM     22  C   UNL     1       1.579   8.039  20.042  0.00  0.00    +0.000 A 
ATOM     23  C   UNL     1       2.184   8.251  18.800  0.00  0.00    +0.000 A 
ATOM     24  C   UNL     1       2.921   7.214  18.199  0.00  0.00    +0.000 A 
ATOM     25  C   UNL     1       3.097   5.964  18.832  0.00  0.00    +0.000 A 
ATOM     26  C   UNL     1       2.451   5.774  20.065  0.00  0.00    +0.000 A 
ATOM     27  C   UNL     1       1.707   6.796  20.667  0.00  0.00    +0.000 A 
BRANCH  25  28
ATOM     28  C   UNL     1       4.050   4.901  18.277  0.00  0.00    +0.000 C 
ATOM     29  C   UNL     1       3.635   3.429  18.368  0.00  0.00    +0.000 C 
ATOM     30  C   UNL     1       3.610   4.113  17.041  0.00  0.00    +0.000 C 
BRANCH  28  31
ATOM     31  C   UNL     1       5.531   5.215  18.455  0.00  0.00    +0.000 C 
ATOM     32  F   UNL     1       6.326   4.169  18.128  0.00  0.00    +0.000 F 
ATOM     33  F   UNL     1       5.902   6.261  17.674  0.00  0.00    +0.000 F 
ATOM     34  F   UNL     1       5.807   5.549  19.739  0.00  0.00    +0.000 F 
ENDBRANCH  28  31
ENDBRANCH  25  28
ENDBRANCH  19  22
ENDBRANCH   1  19
TORSDOF 7
ENDMDL
MODEL 9
REMARK VINA RESULT:      -8.3      1.197      1.633
REMARK  Name = 
REMARK  7 active torsions:
REMARK  status: ('A' for Active; 'I' for Inactive)
REMARK    1  A    between atoms: C_2  and  C_3
REMARK    2  A    between atoms: C_2  and  C_10
REMARK    3  A    between atoms: C_16  and  N_17
REMARK    4  A    between atoms: N_17  and  S_18
REMARK    5  A    between atoms: S_18  and  C_21
REMARK    6  A    between atoms: C_24  and  C_25
REMARK    7  A    between atoms: C_25  and  C_26
REMARK                            x       y       z     vdW  Elec       q    Type
REMARK                         _______ _______ _______ _____ _____    ______ ____
ROOT
ATOM      1  N   UNL     1       0.751  10.383  19.275  0.00  0.00    +0.000 N 
ATOM      2  H   UNL     1       1.277  11.221  19.565  0.00  0.00    +0.000 HD
ENDROOT
BRANCH   1   9
ATOM      3  C   UNL     1      -1.409  11.691  19.233  0.00  0.00    +0.000 A 
ATOM      4  C   UNL     1      -2.735  11.712  18.752  0.00  0.00    +0.000 A 
ATOM      5  C   UNL     1      -3.125  10.906  17.688  0.00  0.00    +0.000 A 
ATOM      6 CL   UNL     1      -4.721  11.040  17.071  0.00  0.00    +0.000 Cl
ATOM      7  C   UNL     1      -2.220  10.041  17.100  0.00  0.00    +0.000 A 
ATOM      8  C   UNL     1      -0.932   9.941  17.618  0.00  0.00    +0.000 A 
ATOM      9  C   UNL     1      -0.528  10.724  18.713  0.00  0.00    +0.000 A 
BRANCH   3  11
ATOM     10  O   UNL     1       0.100  13.317  20.111  0.00  0.00    +0.000 OA
ATOM     11  C   UNL     1      -0.991  12.769  20.199  0.00  0.00    +0.000 C 
BRANCH  11  12
ATOM     12  C   UNL     1      -1.964  13.206  21.258  0.00  0.00    +0.000 A 
ATOM     13  C   UNL     1      -2.244  12.361  22.340  0.00  0.00    +0.000 A 
ATOM     14  C   UNL     1      -2.896  12.870  23.465  0.00  0.00    +0.000 A 
ATOM     15  N   UNL     1      -3.325  14.183  23.514  0.00  0.00    +0.000 N 
ATOM     16  O   UNL     1      -3.849  14.651  24.566  0.00  0.00    +0.000 OA
ATOM     17  C   UNL     1      -3.145  14.975  22.389  0.00  0.00    +0.000 A 
ATOM     18  C   UNL     1      -2.472  14.505  21.253  0.00  0.00    +0.000 A 
ENDBRANCH  11  12
ENDBRANCH   3  11
ENDBRANCH   1   9
BRANCH   1  19
ATOM     19  S   UNL     1       0.705   9.392  20.675  0.00  0.00    +0.000 S 
ATOM     20  O   UNL     1       1.501  10.060  21.686  0.00  0.00    +0.000 OA
ATOM     21  O   UNL     1      -0.684   9.055  20.923  0.00  0.00    +0.000 OA
BRANCH  19  22
ATOM     22  C   UNL     1       1.554   7.864  20.272  0.00  0.00    +0.000 A 
ATOM     23  C   UNL     1       1.382   6.713  21.046  0.00  0.00    +0.000 A 
ATOM     24  C   UNL     1       1.940   5.495  20.615  0.00  0.00    +0.000 A 
ATOM     25  C   UNL     1       2.646   5.391  19.397  0.00  0.00    +0.000 A 
ATOM     26  C   UNL     1       2.828   6.573  18.659  0.00  0.00    +0.000 A 
ATOM     27  C   UNL     1       2.285   7.792  19.084  0.00  0.00    +0.000 A 
BRANCH  25  28
ATOM     28  C   UNL     1       3.091   4.039  18.830  0.00  0.00    +0.000 C 
ATOM     29  C   UNL     1       4.585   3.704  18.826  0.00  0.00    +0.000 C 
ATOM     30  C   UNL     1       3.686   3.011  19.795  0.00  0.00    +0.000 C 
BRANCH  28  31
ATOM     31  C   UNL     1       2.266   3.541  17.648  0.00  0.00    +0.000 C 
ATOM     32  F   UNL     1       2.927   3.651  16.471  0.00  0.00    +0.000 F 
ATOM     33  F   UNL     1       1.937   2.234  17.804  0.00  0.00    +0.000 F 
ATOM     34  F   UNL     1       1.111   4.240  17.532  0.00  0.00    +0.000 F 
ENDBRANCH  28  31
ENDBRANCH  25  28
ENDBRANCH  19  22
ENDBRANCH   1  19
TORSDOF 7
ENDMDL
