MODEL 1
REMARK VINA RESULT:      -8.3      0.000      0.000
REMARK  Name = 
REMARK  5 active torsions:
REMARK  status: ('A' for Active; 'I' for Inactive)
REMARK    1  A    between atoms: C_2  and  OXT_3
REMARK    2  A    between atoms: C_2  and  CA_4
REMARK    3  A    between atoms: C_6  and  N_7
REMARK    4  A    between atoms: N_7  and  S_8
REMARK    5  A    between atoms: S_8  and  C_11
REMARK                            x       y       z     vdW  Elec       q    Type
REMARK                         _______ _______ _______ _____ _____    ______ ____
ROOT
ATOM      1  CA  UNL     1       2.769   2.650  19.889  0.00  0.00    +0.000 C 
ATOM      2  C   UNL     1       4.220   3.031  19.737  0.00  0.00    +0.000 C 
ATOM      3  C   UNL     1       4.403   4.326  18.893  0.00  0.00    +0.000 C 
ATOM      4  C   UNL     1       3.345   5.350  19.269  0.00  0.00    +0.000 A 
ATOM      5  C   UNL     1       3.234   6.601  18.641  0.00  0.00    +0.000 A 
ATOM      6 CL   UNL     1       3.763   6.853  17.015  0.00  0.00    +0.000 Cl
ATOM      7  C   UNL     1       2.509   7.642  19.221  0.00  0.00    +0.000 A 
ATOM      8  C   UNL     1       1.750   7.390  20.351  0.00  0.00    +0.000 A 
ATOM      9 CL   UNL     1       0.850   8.660  21.080  0.00  0.00    +0.000 Cl
ATOM     10  C   UNL     1       1.631   6.088  20.826  0.00  0.00    +0.000 A 
ATOM     11  C   UNL     1       2.395   5.055  20.265  0.00  0.00    +0.000 A 
ATOM     12  N   UNL     1       2.025   3.730  20.571  0.00  0.00    +0.000 N 
ATOM     13  H   UNL     1       1.898   3.589  21.576  0.00  0.00    +0.000 HD
ENDROOT
BRANCH   1  15
ATOM     14  O   UNL     1       1.076   2.738  18.130  0.00  0.00    +0.000 OA
ATOM     15  C   UNL     1       2.136   2.289  18.540  0.00  0.00    +0.000 C 
BRANCH  15  16
ATOM     16  OXT UNL     1       2.903   1.426  17.833  0.00  0.00    +0.000 OA
ATOM     17  HXT UNL     1       3.597   1.078  18.442  0.00  0.00    +0.000 HD
ENDBRANCH  15  16
ENDBRANCH   1  15
BRANCH   3  18
ATOM     18  N   UNL     1       5.820   4.666  19.164  0.00  0.00    +0.000 NA
ATOM     19  H   UNL     1       6.054   4.975  20.107  0.00  0.00    +0.000 HD
BRANCH  18  20
ATOM     20  S   UNL     1       7.023   5.182  18.139  0.00  0.00    +0.000 S 
ATOM     21  O   UNL     1       7.079   6.624  18.205  0.00  0.00    +0.000 OA
ATOM     22  O   UNL     1       8.176   4.396  18.529  0.00  0.00    +0.000 OA
BRANCH  20  23
ATOM     23  C   UNL     1       6.615   4.673  16.492  0.00  0.00    +0.000 A 
ATOM     24  C   UNL     1       5.555   3.810  16.216  0.00  0.00    +0.000 A 
ATOM     25  C   UNL     1       5.241   3.517  14.885  0.00  0.00    +0.000 A 
ATOM     26  C   UNL     1       5.990   4.069  13.843  0.00  0.00    +0.000 A 
ATOM     27  C   UNL     1       7.058   4.918  14.123  0.00  0.00    +0.000 A 
ATOM     28  C   UNL     1       7.373   5.227  15.445  0.00  0.00    +0.000 A 
ENDBRANCH  20  23
ENDBRANCH  18  20
ENDBRANCH   3  18
TORSDOF 5
ENDMDL
MODEL 2
REMARK VINA RESULT:      -8.1      0.305      1.159
REMARK  Name = 
REMARK  5 active torsions:
REMARK  status: ('A' for Active; 'I' for Inactive)
REMARK    1  A    between atoms: C_2  and  OXT_3
REMARK    2  A    between atoms: C_2  and  CA_4
REMARK    3  A    between atoms: C_6  and  N_7
REMARK    4  A    between atoms: N_7  and  S_8
REMARK    5  A    between atoms: S_8  and  C_11
REMARK                            x       y       z     vdW  Elec       q    Type
REMARK                         _______ _______ _______ _____ _____    ______ ____
ROOT
ATOM      1  CA  UNL     1       2.868   2.405  19.800  0.00  0.00    +0.000 C 
ATOM      2  C   UNL     1       4.314   2.808  19.652  0.00  0.00    +0.000 C 
ATOM      3  C   UNL     1       4.477   4.131  18.848  0.00  0.00    +0.000 C 
ATOM      4  C   UNL     1       3.410   5.131  19.262  0.00  0.00    +0.000 A 
ATOM      5  C   UNL     1       3.281   6.399  18.674  0.00  0.00    +0.000 A 
ATOM      6 CL   UNL     1       3.797   6.707  17.054  0.00  0.00    +0.000 Cl
ATOM      7  C   UNL     1       2.548   7.413  19.291  0.00  0.00    +0.000 A 
ATOM      8  C   UNL     1       1.799   7.117  20.417  0.00  0.00    +0.000 A 
ATOM      9 CL   UNL     1       0.890   8.353  21.191  0.00  0.00    +0.000 Cl
ATOM     10  C   UNL     1       1.698   5.800  20.852  0.00  0.00    +0.000 A 
ATOM     11  C   UNL     1       2.470   4.793  20.254  0.00  0.00    +0.000 A 
ATOM     12  N   UNL     1       2.117   3.456  20.521  0.00  0.00    +0.000 N 
ATOM     13  H   UNL     1       1.998   3.282  21.522  0.00  0.00    +0.000 HD
ENDROOT
BRANCH   1  15
ATOM     14  O   UNL     1       2.854   1.938  17.403  0.00  0.00    +0.000 OA
ATOM     15  C   UNL     1       2.231   2.080  18.444  0.00  0.00    +0.000 C 
BRANCH  15  16
ATOM     16  OXT UNL     1       0.888   1.941  18.534  0.00  0.00    +0.000 OA
ATOM     17  HXT UNL     1       0.480   2.782  18.218  0.00  0.00    +0.000 HD
ENDBRANCH  15  16
ENDBRANCH   1  15
BRANCH   3  18
ATOM     18  N   UNL     1       5.892   4.477  19.120  0.00  0.00    +0.000 NA
ATOM     19  H   UNL     1       6.147   4.672  20.088  0.00  0.00    +0.000 HD
BRANCH  18  20
ATOM     20  S   UNL     1       7.047   5.158  18.137  0.00  0.00    +0.000 S 
ATOM     21  O   UNL     1       7.008   6.591  18.326  0.00  0.00    +0.000 OA
ATOM     22  O   UNL     1       8.254   4.421  18.453  0.00  0.00    +0.000 OA
BRANCH  20  23
ATOM     23  C   UNL     1       6.656   4.765  16.455  0.00  0.00    +0.000 A 
ATOM     24  C   UNL     1       7.327   5.337  15.375  0.00  0.00    +0.000 A 
ATOM     25  C   UNL     1       7.018   4.918  14.078  0.00  0.00    +0.000 A 
ATOM     26  C   UNL     1       6.039   3.946  13.863  0.00  0.00    +0.000 A 
ATOM     27  C   UNL     1       5.359   3.387  14.942  0.00  0.00    +0.000 A 
ATOM     28  C   UNL     1       5.665   3.789  16.241  0.00  0.00    +0.000 A 
ENDBRANCH  20  23
ENDBRANCH  18  20
ENDBRANCH   3  18
TORSDOF 5
ENDMDL
MODEL 3
REMARK VINA RESULT:      -7.8      2.762      6.020
REMARK  Name = 
REMARK  5 active torsions:
REMARK  status: ('A' for Active; 'I' for Inactive)
REMARK    1  A    between atoms: C_2  and  OXT_3
REMARK    2  A    between atoms: C_2  and  CA_4
REMARK    3  A    between atoms: C_6  and  N_7
REMARK    4  A    between atoms: N_7  and  S_8
REMARK    5  A    between atoms: S_8  and  C_11
REMARK                            x       y       z     vdW  Elec       q    Type
REMARK                         _______ _______ _______ _____ _____    ______ ____
ROOT
ATOM      1  CA  UNL     1       3.505   2.344  18.925  0.00  0.00    +0.000 C 
ATOM      2  C   UNL     1       3.116   3.712  19.429  0.00  0.00    +0.000 C 
ATOM      3  C   UNL     1       4.322   4.696  19.452  0.00  0.00    +0.000 C 
ATOM      4  C   UNL     1       5.168   4.517  18.202  0.00  0.00    +0.000 A 
ATOM      5  C   UNL     1       6.349   5.240  17.968  0.00  0.00    +0.000 A 
ATOM      6 CL   UNL     1       7.315   5.850  19.264  0.00  0.00    +0.000 Cl
ATOM      7  C   UNL     1       6.906   5.325  16.692  0.00  0.00    +0.000 A 
ATOM      8  C   UNL     1       6.381   4.550  15.672  0.00  0.00    +0.000 A 
ATOM      9 CL   UNL     1       7.054   4.641  14.093  0.00  0.00    +0.000 Cl
ATOM     10  C   UNL     1       5.385   3.621  15.953  0.00  0.00    +0.000 A 
ATOM     11  C   UNL     1       4.800   3.571  17.227  0.00  0.00    +0.000 A 
ATOM     12  N   UNL     1       4.026   2.438  17.544  0.00  0.00    +0.000 N 
ATOM     13  H   UNL     1       3.340   2.225  16.816  0.00  0.00    +0.000 HD
ENDROOT
BRANCH   1  15
ATOM     14  O   UNL     1       4.844   2.100  20.954  0.00  0.00    +0.000 OA
ATOM     15  C   UNL     1       4.505   1.661  19.865  0.00  0.00    +0.000 C 
BRANCH  15  16
ATOM     16  OXT UNL     1       4.959   0.490  19.360  0.00  0.00    +0.000 OA
ATOM     17  HXT UNL     1       4.456  -0.238  19.797  0.00  0.00    +0.000 HD
ENDBRANCH  15  16
ENDBRANCH   1  15
BRANCH   3  18
ATOM     18  N   UNL     1       3.646   5.999  19.649  0.00  0.00    +0.000 NA
ATOM     19  H   UNL     1       3.307   6.212  20.587  0.00  0.00    +0.000 HD
BRANCH  18  20
ATOM     20  S   UNL     1       2.824   6.965  18.573  0.00  0.00    +0.000 S 
ATOM     21  O   UNL     1       3.797   7.674  17.774  0.00  0.00    +0.000 OA
ATOM     22  O   UNL     1       1.888   6.061  17.936  0.00  0.00    +0.000 OA
BRANCH  20  23
ATOM     23  C   UNL     1       1.845   8.121  19.491  0.00  0.00    +0.000 A 
ATOM     24  C   UNL     1       1.326   9.282  18.920  0.00  0.00    +0.000 A 
ATOM     25  C   UNL     1       0.494  10.107  19.685  0.00  0.00    +0.000 A 
ATOM     26  C   UNL     1       0.199   9.780  21.009  0.00  0.00    +0.000 A 
ATOM     27  C   UNL     1       0.731   8.628  21.581  0.00  0.00    +0.000 A 
ATOM     28  C   UNL     1       1.552   7.791  20.826  0.00  0.00    +0.000 A 
ENDBRANCH  20  23
ENDBRANCH  18  20
ENDBRANCH   3  18
TORSDOF 5
ENDMDL
MODEL 4
REMARK VINA RESULT:      -7.4      2.805      5.998
REMARK  Name = 
REMARK  5 active torsions:
REMARK  status: ('A' for Active; 'I' for Inactive)
REMARK    1  A    between atoms: C_2  and  OXT_3
REMARK    2  A    between atoms: C_2  and  CA_4
REMARK    3  A    between atoms: C_6  and  N_7
REMARK    4  A    between atoms: N_7  and  S_8
REMARK    5  A    between atoms: S_8  and  C_11
REMARK                            x       y       z     vdW  Elec       q    Type
REMARK                         _______ _______ _______ _____ _____    ______ ____
ROOT
ATOM      1  CA  UNL     1       3.082   2.766  19.349  0.00  0.00    +0.000 C 
ATOM      2  C   UNL     1       2.852   4.218  19.688  0.00  0.00    +0.000 C 
ATOM      3  C   UNL     1       4.151   5.066  19.559  0.00  0.00    +0.000 C 
ATOM      4  C   UNL     1       4.928   4.650  18.320  0.00  0.00    +0.000 A 
ATOM      5  C   UNL     1       6.165   5.211  17.968  0.00  0.00    +0.000 A 
ATOM      6 CL   UNL     1       7.236   5.868  19.155  0.00  0.00    +0.000 Cl
ATOM      7  C   UNL     1       6.680   5.082  16.679  0.00  0.00    +0.000 A 
ATOM      8  C   UNL     1       6.041   4.248  15.776  0.00  0.00    +0.000 A 
ATOM      9 CL   UNL     1       6.661   4.076  14.182  0.00  0.00    +0.000 Cl
ATOM     10  C   UNL     1       4.968   3.470  16.195  0.00  0.00    +0.000 A 
ATOM     11  C   UNL     1       4.430   3.636  17.480  0.00  0.00    +0.000 A 
ATOM     12  N   UNL     1       3.557   2.637  17.954  0.00  0.00    +0.000 N 
ATOM     13  H   UNL     1       2.826   2.411  17.276  0.00  0.00    +0.000 HD
ENDROOT
BRANCH   1  15
ATOM     14  O   UNL     1       3.889   2.092  21.553  0.00  0.00    +0.000 OA
ATOM     15  C   UNL     1       4.042   2.101  20.341  0.00  0.00    +0.000 C 
BRANCH  15  16
ATOM     16  OXT UNL     1       5.079   1.495  19.716  0.00  0.00    +0.000 OA
ATOM     17  HXT UNL     1       4.822   0.556  19.556  0.00  0.00    +0.000 HD
ENDBRANCH  15  16
ENDBRANCH   1  15
BRANCH   3  18
ATOM     18  N   UNL     1       3.618   6.447  19.608  0.00  0.00    +0.000 NA
ATOM     19  H   UNL     1       3.447   6.849  20.530  0.00  0.00    +0.000 HD
BRANCH  18  20
ATOM     20  S   UNL     1       2.716   7.299  18.501  0.00  0.00    +0.000 S 
ATOM     21  O   UNL     1       3.626   8.054  17.670  0.00  0.00    +0.000 OA
ATOM     22  O   UNL     1       1.856   6.297  17.905  0.00  0.00    +0.000 OA
BRANCH  20  23
ATOM     23  C   UNL     1       1.649   8.406  19.379  0.00  0.00    +0.000 A 
ATOM     24  C   UNL     1       1.339   8.237  20.728  0.00  0.00    +0.000 A 
ATOM     25  C   UNL     1       0.554   9.196  21.376  0.00  0.00    +0.000 A 
ATOM     26  C   UNL     1       0.072  10.305  20.676  0.00  0.00    +0.000 A 
ATOM     27  C   UNL     1       0.370  10.463  19.326  0.00  0.00    +0.000 A 
ATOM     28  C   UNL     1       1.161   9.520  18.672  0.00  0.00    +0.000 A 
ENDBRANCH  20  23
ENDBRANCH  18  20
ENDBRANCH   3  18
TORSDOF 5
ENDMDL
MODEL 5
REMARK VINA RESULT:      -7.3      2.034      2.729
REMARK  Name = 
REMARK  5 active torsions:
REMARK  status: ('A' for Active; 'I' for Inactive)
REMARK    1  A    between atoms: C_2  and  OXT_3
REMARK    2  A    between atoms: C_2  and  CA_4
REMARK    3  A    between atoms: C_6  and  N_7
REMARK    4  A    between atoms: N_7  and  S_8
REMARK    5  A    between atoms: S_8  and  C_11
REMARK                            x       y       z     vdW  Elec       q    Type
REMARK                         _______ _______ _______ _____ _____    ______ ____
ROOT
ATOM      1  CA  UNL     1       2.876   2.639  20.155  0.00  0.00    +0.000 C 
ATOM      2  C   UNL     1       4.322   2.992  19.909  0.00  0.00    +0.000 C 
ATOM      3  C   UNL     1       4.477   4.170  18.903  0.00  0.00    +0.000 C 
ATOM      4  C   UNL     1       3.431   5.237  19.180  0.00  0.00    +0.000 A 
ATOM      5  C   UNL     1       3.299   6.399  18.403  0.00  0.00    +0.000 A 
ATOM      6 CL   UNL     1       3.775   6.441  16.743  0.00  0.00    +0.000 Cl
ATOM      7  C   UNL     1       2.593   7.507  18.870  0.00  0.00    +0.000 A 
ATOM      8  C   UNL     1       1.871   7.403  20.047  0.00  0.00    +0.000 A 
ATOM      9 CL   UNL     1       0.995   8.758  20.638  0.00  0.00    +0.000 Cl
ATOM     10  C   UNL     1       1.768   6.172  20.687  0.00  0.00    +0.000 A 
ATOM     11  C   UNL     1       2.514   5.073  20.236  0.00  0.00    +0.000 A 
ATOM     12  N   UNL     1       2.155   3.800  20.719  0.00  0.00    +0.000 N 
ATOM     13  H   UNL     1       2.061   3.787  21.737  0.00  0.00    +0.000 HD
ENDROOT
BRANCH   1  15
ATOM     14  O   UNL     1       1.087   2.443  18.504  0.00  0.00    +0.000 OA
ATOM     15  C   UNL     1       2.200   2.113  18.883  0.00  0.00    +0.000 C 
BRANCH  15  16
ATOM     16  OXT UNL     1       2.993   1.250  18.206  0.00  0.00    +0.000 OA
ATOM     17  HXT UNL     1       2.828   0.347  18.568  0.00  0.00    +0.000 HD
ENDBRANCH  15  16
ENDBRANCH   1  15
BRANCH   3  18
ATOM     18  N   UNL     1       5.902   4.535  19.083  0.00  0.00    +0.000 NA
ATOM     19  H   UNL     1       6.159   4.995  19.956  0.00  0.00    +0.000 HD
BRANCH  18  20
ATOM     20  S   UNL     1       7.084   4.862  17.960  0.00  0.00    +0.000 S 
ATOM     21  O   UNL     1       8.232   4.040  18.267  0.00  0.00    +0.000 OA
ATOM     22  O   UNL     1       6.409   4.714  16.687  0.00  0.00    +0.000 OA
BRANCH  20  23
ATOM     23  C   UNL     1       7.522   6.574  18.089  0.00  0.00    +0.000 A 
ATOM     24  C   UNL     1       8.443   7.044  19.024  0.00  0.00    +0.000 A 
ATOM     25  C   UNL     1       8.800   8.396  19.013  0.00  0.00    +0.000 A 
ATOM     26  C   UNL     1       8.229   9.270  18.086  0.00  0.00    +0.000 A 
ATOM     27  C   UNL     1       7.298   8.801  17.164  0.00  0.00    +0.000 A 
ATOM     28  C   UNL     1       6.942   7.453  17.157  0.00  0.00    +0.000 A 
ENDBRANCH  20  23
ENDBRANCH  18  20
ENDBRANCH   3  18
TORSDOF 5
ENDMDL
MODEL 6
REMARK VINA RESULT:      -7.0      2.043      2.788
REMARK  Name = 
REMARK  5 active torsions:
REMARK  status: ('A' for Active; 'I' for Inactive)
REMARK    1  A    between atoms: C_2  and  OXT_3
REMARK    2  A    between atoms: C_2  and  CA_4
REMARK    3  A    between atoms: C_6  and  N_7
REMARK    4  A    between atoms: N_7  and  S_8
REMARK    5  A    between atoms: S_8  and  C_11
REMARK                            x       y       z     vdW  Elec       q    Type
REMARK                         _______ _______ _______ _____ _____    ______ ____
ROOT
ATOM      1  CA  UNL     1       2.729   2.700  19.794  0.00  0.00    +0.000 C 
ATOM      2  C   UNL     1       4.178   3.059  19.575  0.00  0.00    +0.000 C 
ATOM      3  C   UNL     1       4.342   4.347  18.717  0.00  0.00    +0.000 C 
ATOM      4  C   UNL     1       3.318   5.389  19.134  0.00  0.00    +0.000 A 
ATOM      5  C   UNL     1       3.197   6.638  18.505  0.00  0.00    +0.000 A 
ATOM      6 CL   UNL     1       3.656   6.874  16.856  0.00  0.00    +0.000 Cl
ATOM      7  C   UNL     1       2.515   7.693  19.112  0.00  0.00    +0.000 A 
ATOM      8  C   UNL     1       1.804   7.457  20.276  0.00  0.00    +0.000 A 
ATOM      9 CL   UNL     1       0.956   8.744  21.038  0.00  0.00    +0.000 Cl
ATOM     10  C   UNL     1       1.687   6.160  20.763  0.00  0.00    +0.000 A 
ATOM     11  C   UNL     1       2.409   5.112  20.174  0.00  0.00    +0.000 A 
ATOM     12  N   UNL     1       2.034   3.795  20.504  0.00  0.00    +0.000 N 
ATOM     13  H   UNL     1       1.950   3.661  21.514  0.00  0.00    +0.000 HD
ENDROOT
BRANCH   1  15
ATOM     14  O   UNL     1       2.592   1.856  17.506  0.00  0.00    +0.000 OA
ATOM     15  C   UNL     1       2.032   2.343  18.477  0.00  0.00    +0.000 C 
BRANCH  15  16
ATOM     16  OXT UNL     1       0.705   2.606  18.516  0.00  0.00    +0.000 OA
ATOM     17  HXT UNL     1       0.232   1.744  18.603  0.00  0.00    +0.000 HD
ENDBRANCH  15  16
ENDBRANCH   1  15
BRANCH   3  18
ATOM     18  N   UNL     1       5.775   4.666  18.922  0.00  0.00    +0.000 NA
ATOM     19  H   UNL     1       6.029   5.135  19.791  0.00  0.00    +0.000 HD
BRANCH  18  20
ATOM     20  S   UNL     1       6.993   4.927  17.820  0.00  0.00    +0.000 S 
ATOM     21  O   UNL     1       8.115   4.093  18.187  0.00  0.00    +0.000 OA
ATOM     22  O   UNL     1       6.348   4.747  16.536  0.00  0.00    +0.000 OA
BRANCH  20  23
ATOM     23  C   UNL     1       7.464   6.633  17.900  0.00  0.00    +0.000 A 
ATOM     24  C   UNL     1       6.878   7.611  17.097  0.00  0.00    +0.000 A 
ATOM     25  C   UNL     1       7.244   8.949  17.272  0.00  0.00    +0.000 A 
ATOM     26  C   UNL     1       8.197   9.302  18.230  0.00  0.00    +0.000 A 
ATOM     27  C   UNL     1       8.791   8.322  19.020  0.00  0.00    +0.000 A 
ATOM     28  C   UNL     1       8.427   6.986  18.863  0.00  0.00    +0.000 A 
ENDBRANCH  20  23
ENDBRANCH  18  20
ENDBRANCH   3  18
TORSDOF 5
ENDMDL
MODEL 7
REMARK VINA RESULT:      -7.0      2.397      5.492
REMARK  Name = 
REMARK  5 active torsions:
REMARK  status: ('A' for Active; 'I' for Inactive)
REMARK    1  A    between atoms: C_2  and  OXT_3
REMARK    2  A    between atoms: C_2  and  CA_4
REMARK    3  A    between atoms: C_6  and  N_7
REMARK    4  A    between atoms: N_7  and  S_8
REMARK    5  A    between atoms: S_8  and  C_11
REMARK                            x       y       z     vdW  Elec       q    Type
REMARK                         _______ _______ _______ _____ _____    ______ ____
ROOT
ATOM      1  CA  UNL     1       7.299   5.915  17.413  0.00  0.00    +0.000 C 
ATOM      2  C   UNL     1       6.676   4.541  17.419  0.00  0.00    +0.000 C 
ATOM      3  C   UNL     1       5.487   4.438  18.417  0.00  0.00    +0.000 C 
ATOM      4  C   UNL     1       4.638   5.697  18.354  0.00  0.00    +0.000 A 
ATOM      5  C   UNL     1       3.519   5.908  19.175  0.00  0.00    +0.000 A 
ATOM      6 CL   UNL     1       3.381   5.168  20.731  0.00  0.00    +0.000 Cl
ATOM      7  C   UNL     1       2.567   6.879  18.868  0.00  0.00    +0.000 A 
ATOM      8  C   UNL     1       2.811   7.761  17.829  0.00  0.00    +0.000 A 
ATOM      9 CL   UNL     1       1.648   8.964  17.435  0.00  0.00    +0.000 Cl
ATOM     10  C   UNL     1       4.041   7.740  17.181  0.00  0.00    +0.000 A 
ATOM     11  C   UNL     1       4.977   6.735  17.465  0.00  0.00    +0.000 A 
ATOM     12  N   UNL     1       6.297   6.928  17.014  0.00  0.00    +0.000 N 
ATOM     13  H   UNL     1       6.331   7.193  16.027  0.00  0.00    +0.000 HD
ENDROOT
BRANCH   1  15
ATOM     14  O   UNL     1       8.012   5.475  19.707  0.00  0.00    +0.000 OA
ATOM     15  C   UNL     1       7.938   6.250  18.765  0.00  0.00    +0.000 C 
BRANCH  15  16
ATOM     16  OXT UNL     1       8.440   7.507  18.793  0.00  0.00    +0.000 OA
ATOM     17  HXT UNL     1       8.653   7.722  19.732  0.00  0.00    +0.000 HD
ENDBRANCH  15  16
ENDBRANCH   1  15
BRANCH   3  18
ATOM     18  N   UNL     1       4.859   3.160  18.008  0.00  0.00    +0.000 NA
ATOM     19  H   UNL     1       4.388   3.139  17.104  0.00  0.00    +0.000 HD
BRANCH  18  20
ATOM     20  S   UNL     1       4.270   1.902  18.923  0.00  0.00    +0.000 S 
ATOM     21  O   UNL     1       4.171   0.738  18.072  0.00  0.00    +0.000 OA
ATOM     22  O   UNL     1       5.139   1.876  20.082  0.00  0.00    +0.000 OA
BRANCH  20  23
ATOM     23  C   UNL     1       2.664   2.346  19.521  0.00  0.00    +0.000 A 
ATOM     24  C   UNL     1       2.345   2.357  20.878  0.00  0.00    +0.000 A 
ATOM     25  C   UNL     1       1.080   2.797  21.281  0.00  0.00    +0.000 A 
ATOM     26  C   UNL     1       0.140   3.208  20.334  0.00  0.00    +0.000 A 
ATOM     27  C   UNL     1       0.455   3.181  18.978  0.00  0.00    +0.000 A 
ATOM     28  C   UNL     1       1.716   2.756  18.564  0.00  0.00    +0.000 A 
ENDBRANCH  20  23
ENDBRANCH  18  20
ENDBRANCH   3  18
TORSDOF 5
ENDMDL
MODEL 8
REMARK VINA RESULT:      -6.8      9.407     11.273
REMARK  Name = 
REMARK  5 active torsions:
REMARK  status: ('A' for Active; 'I' for Inactive)
REMARK    1  A    between atoms: C_2  and  OXT_3
REMARK    2  A    between atoms: C_2  and  CA_4
REMARK    3  A    between atoms: C_6  and  N_7
REMARK    4  A    between atoms: N_7  and  S_8
REMARK    5  A    between atoms: S_8  and  C_11
REMARK                            x       y       z     vdW  Elec       q    Type
REMARK                         _______ _______ _______ _____ _____    ______ ____
ROOT
ATOM      1  CA  UNL     1      -6.386  12.192  18.799  0.00  0.00    +0.000 C 
ATOM      2  C   UNL     1      -5.258  12.985  19.411  0.00  0.00    +0.000 C 
ATOM      3  C   UNL     1      -3.923  12.185  19.439  0.00  0.00    +0.000 C 
ATOM      4  C   UNL     1      -3.744  11.418  18.139  0.00  0.00    +0.000 A 
ATOM      5  C   UNL     1      -2.651  10.573  17.893  0.00  0.00    +0.000 A 
ATOM      6 CL   UNL     1      -1.807   9.782  19.178  0.00  0.00    +0.000 Cl
ATOM      7  C   UNL     1      -2.323  10.168  16.600  0.00  0.00    +0.000 A 
ATOM      8  C   UNL     1      -3.184  10.469  15.558  0.00  0.00    +0.000 A 
ATOM      9 CL   UNL     1      -2.797   9.978  13.957  0.00  0.00    +0.000 Cl
ATOM     10  C   UNL     1      -4.409  11.069  15.827  0.00  0.00    +0.000 A 
ATOM     11  C   UNL     1      -4.715  11.511  17.123  0.00  0.00    +0.000 A 
ATOM     12  N   UNL     1      -6.057  11.831  17.403  0.00  0.00    +0.000 N 
ATOM     13  H   UNL     1      -6.459  12.454  16.698  0.00  0.00    +0.000 HD
ENDROOT
BRANCH   1  15
ATOM     14  O   UNL     1      -6.690  10.918  20.860  0.00  0.00    +0.000 OA
ATOM     15  C   UNL     1      -6.727  10.956  19.640  0.00  0.00    +0.000 C 
BRANCH  15  16
ATOM     16  OXT UNL     1      -7.102   9.906  18.872  0.00  0.00    +0.000 OA
ATOM     17  HXT UNL     1      -6.703  10.033  17.979  0.00  0.00    +0.000 HD
ENDBRANCH  15  16
ENDBRANCH   1  15
BRANCH   3  18
ATOM     18  N   UNL     1      -2.940  13.248  19.755  0.00  0.00    +0.000 NA
ATOM     19  H   UNL     1      -2.348  13.578  18.993  0.00  0.00    +0.000 HD
BRANCH  18  20
ATOM     20  S   UNL     1      -2.202  13.647  21.190  0.00  0.00    +0.000 S 
ATOM     21  O   UNL     1      -1.334  14.777  20.949  0.00  0.00    +0.000 OA
ATOM     22  O   UNL     1      -3.300  13.767  22.127  0.00  0.00    +0.000 OA
BRANCH  20  23
ATOM     23  C   UNL     1      -1.243  12.260  21.732  0.00  0.00    +0.000 A 
ATOM     24  C   UNL     1      -1.639  11.440  22.788  0.00  0.00    +0.000 A 
ATOM     25  C   UNL     1      -0.871  10.316  23.107  0.00  0.00    +0.000 A 
ATOM     26  C   UNL     1       0.288  10.024  22.386  0.00  0.00    +0.000 A 
ATOM     27  C   UNL     1       0.690  10.852  21.342  0.00  0.00    +0.000 A 
ATOM     28  C   UNL     1      -0.073  11.970  21.006  0.00  0.00    +0.000 A 
ENDBRANCH  20  23
ENDBRANCH  18  20
ENDBRANCH   3  18
TORSDOF 5
ENDMDL
MODEL 9
REMARK VINA RESULT:      -6.8      2.846      6.127
REMARK  Name = 
REMARK  5 active torsions:
REMARK  status: ('A' for Active; 'I' for Inactive)
REMARK    1  A    between atoms: C_2  and  OXT_3
REMARK    2  A    between atoms: C_2  and  CA_4
REMARK    3  A    between atoms: C_6  and  N_7
REMARK    4  A    between atoms: N_7  and  S_8
REMARK    5  A    between atoms: S_8  and  C_11
REMARK                            x       y       z     vdW  Elec       q    Type
REMARK                         _______ _______ _______ _____ _____    ______ ____
ROOT
ATOM      1  CA  UNL     1       2.207   3.096  18.207  0.00  0.00    +0.000 C 
ATOM      2  C   UNL     1       2.063   4.459  18.837  0.00  0.00    +0.000 C 
ATOM      3  C   UNL     1       3.440   5.101  19.174  0.00  0.00    +0.000 C 
ATOM      4  C   UNL     1       4.428   4.843  18.047  0.00  0.00    +0.000 A 
ATOM      5  C   UNL     1       5.766   5.267  18.091  0.00  0.00    +0.000 A 
ATOM      6 CL   UNL     1       6.604   5.480  19.587  0.00  0.00    +0.000 Cl
ATOM      7  C   UNL     1       6.542   5.338  16.935  0.00  0.00    +0.000 A 
ATOM      8  C   UNL     1       6.040   4.827  15.750  0.00  0.00    +0.000 A 
ATOM      9 CL   UNL     1       6.982   4.905  14.315  0.00  0.00    +0.000 Cl
ATOM     10  C   UNL     1       4.823   4.154  15.750  0.00  0.00    +0.000 A 
ATOM     11  C   UNL     1       4.028   4.123  16.906  0.00  0.00    +0.000 A 
ATOM     12  N   UNL     1       2.969   3.195  16.944  0.00  0.00    +0.000 N 
ATOM     13  H   UNL     1       2.391   3.236  16.101  0.00  0.00    +0.000 HD
ENDROOT
BRANCH   1  15
ATOM     14  O   UNL     1       2.825   2.199  20.394  0.00  0.00    +0.000 OA
ATOM     15  C   UNL     1       2.842   2.092  19.177  0.00  0.00    +0.000 C 
BRANCH  15  16
ATOM     16  OXT UNL     1       3.408   1.048  18.528  0.00  0.00    +0.000 OA
ATOM     17  HXT UNL     1       2.715   0.641  17.956  0.00  0.00    +0.000 HD
ENDBRANCH  15  16
ENDBRANCH   1  15
BRANCH   3  18
ATOM     18  N   UNL     1       3.059   6.506  19.451  0.00  0.00    +0.000 NA
ATOM     19  H   UNL     1       2.785   6.735  20.406  0.00  0.00    +0.000 HD
BRANCH  18  20
ATOM     20  S   UNL     1       2.451   7.681  18.444  0.00  0.00    +0.000 S 
ATOM     21  O   UNL     1       3.565   8.395  17.864  0.00  0.00    +0.000 OA
ATOM     22  O   UNL     1       1.528   6.964  17.588  0.00  0.00    +0.000 OA
BRANCH  20  23
ATOM     23  C   UNL     1       1.466   8.792  19.410  0.00  0.00    +0.000 A 
ATOM     24  C   UNL     1       0.826   9.901  18.857  0.00  0.00    +0.000 A 
ATOM     25  C   UNL     1      -0.001  10.687  19.665  0.00  0.00    +0.000 A 
ATOM     26  C   UNL     1      -0.174  10.375  21.015  0.00  0.00    +0.000 A 
ATOM     27  C   UNL     1       0.477   9.276  21.568  0.00  0.00    +0.000 A 
ATOM     28  C   UNL     1       1.295   8.478  20.770  0.00  0.00    +0.000 A 
ENDBRANCH  20  23
ENDBRANCH  18  20
ENDBRANCH   3  18
TORSDOF 5
ENDMDL
