MODEL 1
REMARK VINA RESULT:      -8.6      0.000      0.000
REMARK  Name = 
REMARK  6 active torsions:
REMARK  status: ('A' for Active; 'I' for Inactive)
REMARK    1  A    between atoms: C_1  and  C_2
REMARK    2  A    between atoms: C_2  and  O_3
REMARK    3  A    between atoms: O_3  and  C_4
REMARK    4  A    between atoms: C_4  and  C_6
REMARK    5  A    between atoms: C_6  and  N_7
REMARK    6  A    between atoms: C_8  and  C_10
REMARK                            x       y       z     vdW  Elec       q    Type
REMARK                         _______ _______ _______ _____ _____    ______ ____
ROOT
ATOM      1  C   UNL     1       5.365   4.923  16.329  0.00  0.00    +0.000 A 
ATOM      2  C   UNL     1       5.158   3.962  17.314  0.00  0.00    +0.000 A 
ATOM      3  C   UNL     1       4.330   4.261  18.397  0.00  0.00    +0.000 A 
ATOM      4  C   UNL     1       3.681   5.518  18.507  0.00  0.00    +0.000 A 
ATOM      5  C   UNL     1       2.830   5.910  19.572  0.00  0.00    +0.000 A 
ATOM      6 CL   UNL     1       2.497   4.787  20.862  0.00  0.00    +0.000 Cl
ATOM      7  C   UNL     1       2.237   7.181  19.608  0.00  0.00    +0.000 A 
ATOM      8  C   UNL     1       2.482   8.022  18.523  0.00  0.00    +0.000 A 
ATOM      9  N   UNL     1       3.298   7.675  17.498  0.00  0.00    +0.000 NA
ATOM     10  C   UNL     1       3.881   6.468  17.490  0.00  0.00    +0.000 A 
ATOM     11  C   UNL     1       4.712   6.159  16.426  0.00  0.00    +0.000 A 
ATOM     12  C   UNL     1       1.892   9.407  18.439  0.00  0.00    +0.000 C 
ATOM     13  C   UNL     1       0.695   9.610  19.365  0.00  0.00    +0.000 C 
ATOM     14  C   UNL     1       1.040   9.111  20.759  0.00  0.00    +0.000 C 
ATOM     15  C   UNL     1       1.317   7.608  20.725  0.00  0.00    +0.000 C 
ENDROOT
BRANCH   1  17
ATOM     16  N   UNL     1       5.655   4.048  14.084  0.00  0.00    +0.000 N 
ATOM     17  C   UNL     1       6.266   4.608  15.184  0.00  0.00    +0.000 C 
ATOM     18  O   UNL     1       7.458   4.867  15.233  0.00  0.00    +0.000 OA
ATOM     19  H   UNL     1       4.645   3.976  14.027  0.00  0.00    +0.000 HD
BRANCH  16  20
ATOM     20  C   UNL     1       6.400   3.697  12.888  0.00  0.00    +0.000 C 
BRANCH  20  21
ATOM     21  C   UNL     1       5.489   2.956  11.923  0.00  0.00    +0.000 C 
ATOM     22  O   UNL     1       5.711   1.830  11.494  0.00  0.00    +0.000 OA
BRANCH  21  23
ATOM     23  O   UNL     1       4.464   3.765  11.535  0.00  0.00    +0.000 OA
BRANCH  23  25
ATOM     24  C   UNL     1       2.978   4.145   9.716  0.00  0.00    +0.000 C 
ATOM     25  C   UNL     1       3.465   3.124  10.730  0.00  0.00    +0.000 C 
ENDBRANCH  23  25
ENDBRANCH  21  23
ENDBRANCH  20  21
ENDBRANCH  16  20
ENDBRANCH   1  17
TORSDOF 5
ENDMDL
MODEL 2
REMARK VINA RESULT:      -8.4      2.135      3.211
REMARK  Name = 
REMARK  6 active torsions:
REMARK  status: ('A' for Active; 'I' for Inactive)
REMARK    1  A    between atoms: C_1  and  C_2
REMARK    2  A    between atoms: C_2  and  O_3
REMARK    3  A    between atoms: O_3  and  C_4
REMARK    4  A    between atoms: C_4  and  C_6
REMARK    5  A    between atoms: C_6  and  N_7
REMARK    6  A    between atoms: C_8  and  C_10
REMARK                            x       y       z     vdW  Elec       q    Type
REMARK                         _______ _______ _______ _____ _____    ______ ____
ROOT
ATOM      1  C   UNL     1       5.600   5.045  15.702  0.00  0.00    +0.000 A 
ATOM      2  C   UNL     1       5.204   6.352  15.968  0.00  0.00    +0.000 A 
ATOM      3  C   UNL     1       4.391   6.609  17.073  0.00  0.00    +0.000 A 
ATOM      4  C   UNL     1       3.973   5.567  17.942  0.00  0.00    +0.000 A 
ATOM      5  C   UNL     1       3.146   5.733  19.081  0.00  0.00    +0.000 A 
ATOM      6 CL   UNL     1       2.589   7.327  19.512  0.00  0.00    +0.000 Cl
ATOM      7  C   UNL     1       2.770   4.643  19.882  0.00  0.00    +0.000 A 
ATOM      8  C   UNL     1       3.290   3.397  19.533  0.00  0.00    +0.000 A 
ATOM      9  N   UNL     1       4.077   3.210  18.445  0.00  0.00    +0.000 NA
ATOM     10  C   UNL     1       4.404   4.256  17.673  0.00  0.00    +0.000 A 
ATOM     11  C   UNL     1       5.204   4.017  16.568  0.00  0.00    +0.000 A 
ATOM     12  C   UNL     1       2.971   2.152  20.322  0.00  0.00    +0.000 C 
ATOM     13  C   UNL     1       2.443   2.445  21.724  0.00  0.00    +0.000 C 
ATOM     14  C   UNL     1       1.341   3.490  21.644  0.00  0.00    +0.000 C 
ATOM     15  C   UNL     1       1.903   4.805  21.105  0.00  0.00    +0.000 C 
ENDROOT
BRANCH   1  17
ATOM     16  N   UNL     1       6.030   3.740  13.702  0.00  0.00    +0.000 N 
ATOM     17  C   UNL     1       6.452   4.772  14.509  0.00  0.00    +0.000 C 
ATOM     18  O   UNL     1       7.436   5.455  14.272  0.00  0.00    +0.000 OA
ATOM     19  H   UNL     1       5.135   3.288  13.855  0.00  0.00    +0.000 HD
BRANCH  16  20
ATOM     20  C   UNL     1       6.750   3.364  12.499  0.00  0.00    +0.000 C 
BRANCH  20  21
ATOM     21  C   UNL     1       5.794   2.694  11.525  0.00  0.00    +0.000 C 
ATOM     22  O   UNL     1       5.991   1.600  11.010  0.00  0.00    +0.000 OA
BRANCH  21  23
ATOM     23  O   UNL     1       4.758   3.531  11.239  0.00  0.00    +0.000 OA
BRANCH  23  25
ATOM     24  C   UNL     1       2.968   3.845   9.703  0.00  0.00    +0.000 C 
ATOM     25  C   UNL     1       3.597   2.885  10.697  0.00  0.00    +0.000 C 
ENDBRANCH  23  25
ENDBRANCH  21  23
ENDBRANCH  20  21
ENDBRANCH  16  20
ENDBRANCH   1  17
TORSDOF 5
ENDMDL
MODEL 3
REMARK VINA RESULT:      -8.0      2.329      3.578
REMARK  Name = 
REMARK  6 active torsions:
REMARK  status: ('A' for Active; 'I' for Inactive)
REMARK    1  A    between atoms: C_1  and  C_2
REMARK    2  A    between atoms: C_2  and  O_3
REMARK    3  A    between atoms: O_3  and  C_4
REMARK    4  A    between atoms: C_4  and  C_6
REMARK    5  A    between atoms: C_6  and  N_7
REMARK    6  A    between atoms: C_8  and  C_10
REMARK                            x       y       z     vdW  Elec       q    Type
REMARK                         _______ _______ _______ _____ _____    ______ ____
ROOT
ATOM      1  C   UNL     1       5.603   5.139  15.669  0.00  0.00    +0.000 A 
ATOM      2  C   UNL     1       5.201   6.441  15.949  0.00  0.00    +0.000 A 
ATOM      3  C   UNL     1       4.374   6.681  17.048  0.00  0.00    +0.000 A 
ATOM      4  C   UNL     1       3.948   5.626  17.897  0.00  0.00    +0.000 A 
ATOM      5  C   UNL     1       3.106   5.774  19.028  0.00  0.00    +0.000 A 
ATOM      6 CL   UNL     1       2.541   7.361  19.475  0.00  0.00    +0.000 Cl
ATOM      7  C   UNL     1       2.723   4.672  19.807  0.00  0.00    +0.000 A 
ATOM      8  C   UNL     1       3.249   3.432  19.447  0.00  0.00    +0.000 A 
ATOM      9  N   UNL     1       4.049   3.262  18.367  0.00  0.00    +0.000 NA
ATOM     10  C   UNL     1       4.384   4.320  17.613  0.00  0.00    +0.000 A 
ATOM     11  C   UNL     1       5.198   4.098  16.515  0.00  0.00    +0.000 A 
ATOM     12  C   UNL     1       2.922   2.175  20.214  0.00  0.00    +0.000 C 
ATOM     13  C   UNL     1       2.376   2.447  21.613  0.00  0.00    +0.000 C 
ATOM     14  C   UNL     1       1.274   3.491  21.535  0.00  0.00    +0.000 C 
ATOM     15  C   UNL     1       1.840   4.815  21.023  0.00  0.00    +0.000 C 
ENDROOT
BRANCH   1  17
ATOM     16  N   UNL     1       5.995   3.950  13.590  0.00  0.00    +0.000 N 
ATOM     17  C   UNL     1       6.469   4.885  14.483  0.00  0.00    +0.000 C 
ATOM     18  O   UNL     1       7.510   5.502  14.323  0.00  0.00    +0.000 OA
ATOM     19  H   UNL     1       5.062   3.562  13.685  0.00  0.00    +0.000 HD
BRANCH  16  20
ATOM     20  C   UNL     1       6.722   3.605  12.382  0.00  0.00    +0.000 C 
BRANCH  20  21
ATOM     21  C   UNL     1       5.898   2.631  11.556  0.00  0.00    +0.000 C 
ATOM     22  O   UNL     1       4.707   2.774  11.308  0.00  0.00    +0.000 OA
BRANCH  21  23
ATOM     23  O   UNL     1       6.650   1.542  11.232  0.00  0.00    +0.000 OA
BRANCH  23  25
ATOM     24  C   UNL     1       6.243  -0.781  11.548  0.00  0.00    +0.000 C 
ATOM     25  C   UNL     1       5.907   0.436  10.702  0.00  0.00    +0.000 C 
ENDBRANCH  23  25
ENDBRANCH  21  23
ENDBRANCH  20  21
ENDBRANCH  16  20
ENDBRANCH   1  17
TORSDOF 5
ENDMDL
MODEL 4
REMARK VINA RESULT:      -8.0      1.007      1.520
REMARK  Name = 
REMARK  6 active torsions:
REMARK  status: ('A' for Active; 'I' for Inactive)
REMARK    1  A    between atoms: C_1  and  C_2
REMARK    2  A    between atoms: C_2  and  O_3
REMARK    3  A    between atoms: O_3  and  C_4
REMARK    4  A    between atoms: C_4  and  C_6
REMARK    5  A    between atoms: C_6  and  N_7
REMARK    6  A    between atoms: C_8  and  C_10
REMARK                            x       y       z     vdW  Elec       q    Type
REMARK                         _______ _______ _______ _____ _____    ______ ____
ROOT
ATOM      1  C   UNL     1       5.389   5.249  16.374  0.00  0.00    +0.000 A 
ATOM      2  C   UNL     1       5.188   4.246  17.316  0.00  0.00    +0.000 A 
ATOM      3  C   UNL     1       4.327   4.478  18.390  0.00  0.00    +0.000 A 
ATOM      4  C   UNL     1       3.640   5.712  18.533  0.00  0.00    +0.000 A 
ATOM      5  C   UNL     1       2.755   6.038  19.591  0.00  0.00    +0.000 A 
ATOM      6 CL   UNL     1       2.425   4.857  20.830  0.00  0.00    +0.000 Cl
ATOM      7  C   UNL     1       2.124   7.290  19.662  0.00  0.00    +0.000 A 
ATOM      8  C   UNL     1       2.370   8.179  18.616  0.00  0.00    +0.000 A 
ATOM      9  N   UNL     1       3.218   7.895  17.598  0.00  0.00    +0.000 NA
ATOM     10  C   UNL     1       3.836   6.706  17.558  0.00  0.00    +0.000 A 
ATOM     11  C   UNL     1       4.699   6.462  16.503  0.00  0.00    +0.000 A 
ATOM     12  C   UNL     1       1.741   9.549  18.571  0.00  0.00    +0.000 C 
ATOM     13  C   UNL     1       0.519   9.682  19.475  0.00  0.00    +0.000 C 
ATOM     14  C   UNL     1       0.847   9.139  20.857  0.00  0.00    +0.000 C 
ATOM     15  C   UNL     1       1.167   7.647  20.772  0.00  0.00    +0.000 C 
ENDROOT
BRANCH   1  17
ATOM     16  N   UNL     1       5.824   4.235  14.213  0.00  0.00    +0.000 N 
ATOM     17  C   UNL     1       6.324   5.004  15.239  0.00  0.00    +0.000 C 
ATOM     18  O   UNL     1       7.444   5.491  15.233  0.00  0.00    +0.000 OA
ATOM     19  H   UNL     1       4.846   3.965  14.190  0.00  0.00    +0.000 HD
BRANCH  16  20
ATOM     20  C   UNL     1       6.613   3.920  13.036  0.00  0.00    +0.000 C 
BRANCH  20  21
ATOM     21  C   UNL     1       5.779   3.087  12.075  0.00  0.00    +0.000 C 
ATOM     22  O   UNL     1       4.605   3.313  11.809  0.00  0.00    +0.000 OA
BRANCH  21  23
ATOM     23  O   UNL     1       6.496   2.009  11.651  0.00  0.00    +0.000 OA
BRANCH  23  25
ATOM     24  C   UNL     1       6.220  -0.340  11.392  0.00  0.00    +0.000 C 
ATOM     25  C   UNL     1       5.734   1.025  10.937  0.00  0.00    +0.000 C 
ENDBRANCH  23  25
ENDBRANCH  21  23
ENDBRANCH  20  21
ENDBRANCH  16  20
ENDBRANCH   1  17
TORSDOF 5
ENDMDL
MODEL 5
REMARK VINA RESULT:      -7.9      4.105      5.703
REMARK  Name = 
REMARK  6 active torsions:
REMARK  status: ('A' for Active; 'I' for Inactive)
REMARK    1  A    between atoms: C_1  and  C_2
REMARK    2  A    between atoms: C_2  and  O_3
REMARK    3  A    between atoms: O_3  and  C_4
REMARK    4  A    between atoms: C_4  and  C_6
REMARK    5  A    between atoms: C_6  and  N_7
REMARK    6  A    between atoms: C_8  and  C_10
REMARK                            x       y       z     vdW  Elec       q    Type
REMARK                         _______ _______ _______ _____ _____    ______ ____
ROOT
ATOM      1  C   UNL     1       2.846   6.942  18.788  0.00  0.00    +0.000 A 
ATOM      2  C   UNL     1       2.835   7.890  17.770  0.00  0.00    +0.000 A 
ATOM      3  C   UNL     1       2.100   9.065  17.936  0.00  0.00    +0.000 A 
ATOM      4  C   UNL     1       1.374   9.320  19.129  0.00  0.00    +0.000 A 
ATOM      5  C   UNL     1       0.597  10.478  19.382  0.00  0.00    +0.000 A 
ATOM      6 CL   UNL     1       0.510  11.735  18.177  0.00  0.00    +0.000 Cl
ATOM      7  C   UNL     1      -0.100  10.646  20.589  0.00  0.00    +0.000 A 
ATOM      8  C   UNL     1       0.049   9.644  21.546  0.00  0.00    +0.000 A 
ATOM      9  N   UNL     1       0.779   8.523  21.326  0.00  0.00    +0.000 NA
ATOM     10  C   UNL     1       1.417   8.363  20.158  0.00  0.00    +0.000 A 
ATOM     11  C   UNL     1       2.146   7.199  19.974  0.00  0.00    +0.000 A 
ATOM     12  C   UNL     1      -0.638   9.714  22.887  0.00  0.00    +0.000 C 
ATOM     13  C   UNL     1      -1.100  11.122  23.254  0.00  0.00    +0.000 C 
ATOM     14  C   UNL     1      -1.851  11.732  22.082  0.00  0.00    +0.000 C 
ATOM     15  C   UNL     1      -0.919  11.879  20.880  0.00  0.00    +0.000 C 
ENDROOT
BRANCH   1  17
ATOM     16  N   UNL     1       3.176   4.861  17.585  0.00  0.00    +0.000 N 
ATOM     17  C   UNL     1       3.618   5.681  18.599  0.00  0.00    +0.000 C 
ATOM     18  O   UNL     1       4.591   5.431  19.292  0.00  0.00    +0.000 OA
ATOM     19  H   UNL     1       2.452   5.167  16.942  0.00  0.00    +0.000 HD
BRANCH  16  20
ATOM     20  C   UNL     1       3.833   3.605  17.273  0.00  0.00    +0.000 C 
BRANCH  20  21
ATOM     21  C   UNL     1       3.087   2.463  17.944  0.00  0.00    +0.000 C 
ATOM     22  O   UNL     1       3.581   1.370  18.195  0.00  0.00    +0.000 OA
BRANCH  21  23
ATOM     23  O   UNL     1       1.779   2.801  18.122  0.00  0.00    +0.000 OA
BRANCH  23  25
ATOM     24  C   UNL     1       0.911   3.662  20.163  0.00  0.00    +0.000 C 
ATOM     25  C   UNL     1       1.220   2.398  19.380  0.00  0.00    +0.000 C 
ENDBRANCH  23  25
ENDBRANCH  21  23
ENDBRANCH  20  21
ENDBRANCH  16  20
ENDBRANCH   1  17
TORSDOF 5
ENDMDL
MODEL 6
REMARK VINA RESULT:      -7.8      4.362      5.836
REMARK  Name = 
REMARK  6 active torsions:
REMARK  status: ('A' for Active; 'I' for Inactive)
REMARK    1  A    between atoms: C_1  and  C_2
REMARK    2  A    between atoms: C_2  and  O_3
REMARK    3  A    between atoms: O_3  and  C_4
REMARK    4  A    between atoms: C_4  and  C_6
REMARK    5  A    between atoms: C_6  and  N_7
REMARK    6  A    between atoms: C_8  and  C_10
REMARK                            x       y       z     vdW  Elec       q    Type
REMARK                         _______ _______ _______ _____ _____    ______ ____
ROOT
ATOM      1  C   UNL     1       2.997   6.832  18.489  0.00  0.00    +0.000 A 
ATOM      2  C   UNL     1       3.025   7.873  17.566  0.00  0.00    +0.000 A 
ATOM      3  C   UNL     1       2.318   9.046  17.837  0.00  0.00    +0.000 A 
ATOM      4  C   UNL     1       1.583   9.205  19.041  0.00  0.00    +0.000 A 
ATOM      5  C   UNL     1       0.832  10.354  19.396  0.00  0.00    +0.000 A 
ATOM      6 CL   UNL     1       0.795  11.722  18.317  0.00  0.00    +0.000 Cl
ATOM      7  C   UNL     1       0.124  10.424  20.605  0.00  0.00    +0.000 A 
ATOM      8  C   UNL     1       0.233   9.331  21.463  0.00  0.00    +0.000 A 
ATOM      9  N   UNL     1       0.937   8.217  21.144  0.00  0.00    +0.000 NA
ATOM     10  C   UNL     1       1.586   8.153  19.973  0.00  0.00    +0.000 A 
ATOM     11  C   UNL     1       2.287   6.993  19.686  0.00  0.00    +0.000 A 
ATOM     12  C   UNL     1      -0.470   9.290  22.797  0.00  0.00    +0.000 C 
ATOM     13  C   UNL     1      -0.900  10.668  23.293  0.00  0.00    +0.000 C 
ATOM     14  C   UNL     1      -1.619  11.409  22.177  0.00  0.00    +0.000 C 
ATOM     15  C   UNL     1      -0.667  11.645  21.005  0.00  0.00    +0.000 C 
ENDROOT
BRANCH   1  17
ATOM     16  N   UNL     1       4.210   4.886  19.282  0.00  0.00    +0.000 N 
ATOM     17  C   UNL     1       3.738   5.574  18.187  0.00  0.00    +0.000 C 
ATOM     18  O   UNL     1       3.875   5.187  17.037  0.00  0.00    +0.000 OA
ATOM     19  H   UNL     1       3.958   5.164  20.224  0.00  0.00    +0.000 HD
BRANCH  16  20
ATOM     20  C   UNL     1       4.940   3.638  19.148  0.00  0.00    +0.000 C 
BRANCH  20  21
ATOM     21  C   UNL     1       4.333   2.594  20.071  0.00  0.00    +0.000 C 
ATOM     22  O   UNL     1       4.973   1.707  20.623  0.00  0.00    +0.000 OA
BRANCH  21  23
ATOM     23  O   UNL     1       2.978   2.730  20.101  0.00  0.00    +0.000 OA
BRANCH  23  25
ATOM     24  C   UNL     1       0.901   2.624  18.945  0.00  0.00    +0.000 C 
ATOM     25  C   UNL     1       2.278   1.999  19.085  0.00  0.00    +0.000 C 
ENDBRANCH  23  25
ENDBRANCH  21  23
ENDBRANCH  20  21
ENDBRANCH  16  20
ENDBRANCH   1  17
TORSDOF 5
ENDMDL
MODEL 7
REMARK VINA RESULT:      -7.7      3.036      4.864
REMARK  Name = 
REMARK  6 active torsions:
REMARK  status: ('A' for Active; 'I' for Inactive)
REMARK    1  A    between atoms: C_1  and  C_2
REMARK    2  A    between atoms: C_2  and  O_3
REMARK    3  A    between atoms: O_3  and  C_4
REMARK    4  A    between atoms: C_4  and  C_6
REMARK    5  A    between atoms: C_6  and  N_7
REMARK    6  A    between atoms: C_8  and  C_10
REMARK                            x       y       z     vdW  Elec       q    Type
REMARK                         _______ _______ _______ _____ _____    ______ ____
ROOT
ATOM      1  C   UNL     1       2.945   6.688  18.508  0.00  0.00    +0.000 A 
ATOM      2  C   UNL     1       3.037   7.730  17.591  0.00  0.00    +0.000 A 
ATOM      3  C   UNL     1       2.386   8.936  17.858  0.00  0.00    +0.000 A 
ATOM      4  C   UNL     1       1.644   9.127  19.053  0.00  0.00    +0.000 A 
ATOM      5  C   UNL     1       0.947  10.310  19.403  0.00  0.00    +0.000 A 
ATOM      6 CL   UNL     1       0.992  11.683  18.331  0.00  0.00    +0.000 Cl
ATOM      7  C   UNL     1       0.226  10.410  20.604  0.00  0.00    +0.000 A 
ATOM      8  C   UNL     1       0.270   9.309  21.458  0.00  0.00    +0.000 A 
ATOM      9  N   UNL     1       0.921   8.163  21.143  0.00  0.00    +0.000 NA
ATOM     10  C   UNL     1       1.582   8.071  19.980  0.00  0.00    +0.000 A 
ATOM     11  C   UNL     1       2.228   6.879  19.696  0.00  0.00    +0.000 A 
ATOM     12  C   UNL     1      -0.453   9.299  22.782  0.00  0.00    +0.000 C 
ATOM     13  C   UNL     1      -0.820  10.694  23.279  0.00  0.00    +0.000 C 
ATOM     14  C   UNL     1      -1.486  11.475  22.157  0.00  0.00    +0.000 C 
ATOM     15  C   UNL     1      -0.508  11.668  20.999  0.00  0.00    +0.000 C 
ENDROOT
BRANCH   1  17
ATOM     16  N   UNL     1       5.001   5.440  18.189  0.00  0.00    +0.000 N 
ATOM     17  C   UNL     1       3.626   5.396  18.210  0.00  0.00    +0.000 C 
ATOM     18  O   UNL     1       2.981   4.374  18.031  0.00  0.00    +0.000 OA
ATOM     19  H   UNL     1       5.503   6.273  18.479  0.00  0.00    +0.000 HD
BRANCH  16  20
ATOM     20  C   UNL     1       5.803   4.259  17.924  0.00  0.00    +0.000 C 
BRANCH  20  21
ATOM     21  C   UNL     1       6.982   4.635  17.041  0.00  0.00    +0.000 C 
ATOM     22  O   UNL     1       8.148   4.355  17.293  0.00  0.00    +0.000 OA
BRANCH  21  23
ATOM     23  O   UNL     1       6.558   5.408  16.003  0.00  0.00    +0.000 OA
BRANCH  23  25
ATOM     24  C   UNL     1       5.915   4.031  14.172  0.00  0.00    +0.000 C 
ATOM     25  C   UNL     1       6.988   4.963  14.708  0.00  0.00    +0.000 C 
ENDBRANCH  23  25
ENDBRANCH  21  23
ENDBRANCH  20  21
ENDBRANCH  16  20
ENDBRANCH   1  17
TORSDOF 5
ENDMDL
MODEL 8
REMARK VINA RESULT:      -7.5      3.368      5.143
REMARK  Name = 
REMARK  6 active torsions:
REMARK  status: ('A' for Active; 'I' for Inactive)
REMARK    1  A    between atoms: C_1  and  C_2
REMARK    2  A    between atoms: C_2  and  O_3
REMARK    3  A    between atoms: O_3  and  C_4
REMARK    4  A    between atoms: C_4  and  C_6
REMARK    5  A    between atoms: C_6  and  N_7
REMARK    6  A    between atoms: C_8  and  C_10
REMARK                            x       y       z     vdW  Elec       q    Type
REMARK                         _______ _______ _______ _____ _____    ______ ____
ROOT
ATOM      1  C   UNL     1       2.902   6.820  18.471  0.00  0.00    +0.000 A 
ATOM      2  C   UNL     1       2.493   6.365  19.721  0.00  0.00    +0.000 A 
ATOM      3  C   UNL     1       1.722   7.199  20.533  0.00  0.00    +0.000 A 
ATOM      4  C   UNL     1       1.333   8.495  20.104  0.00  0.00    +0.000 A 
ATOM      5  C   UNL     1       0.559   9.410  20.862  0.00  0.00    +0.000 A 
ATOM      6 CL   UNL     1      -0.010   8.949  22.443  0.00  0.00    +0.000 Cl
ATOM      7  C   UNL     1       0.229  10.680  20.365  0.00  0.00    +0.000 A 
ATOM      8  C   UNL     1       0.654  10.981  19.072  0.00  0.00    +0.000 A 
ATOM      9  N   UNL     1       1.401  10.128  18.330  0.00  0.00    +0.000 NA
ATOM     10  C   UNL     1       1.735   8.928  18.829  0.00  0.00    +0.000 A 
ATOM     11  C   UNL     1       2.505   8.092  18.038  0.00  0.00    +0.000 A 
ATOM     12  C   UNL     1       0.351  12.307  18.421  0.00  0.00    +0.000 C 
ATOM     13  C   UNL     1      -0.798  13.058  19.090  0.00  0.00    +0.000 C 
ATOM     14  C   UNL     1      -0.581  13.082  20.595  0.00  0.00    +0.000 C 
ATOM     15  C   UNL     1      -0.607  11.660  21.152  0.00  0.00    +0.000 C 
ENDROOT
BRANCH   1  17
ATOM     16  N   UNL     1       4.646   6.578  16.801  0.00  0.00    +0.000 N 
ATOM     17  C   UNL     1       3.741   5.934  17.615  0.00  0.00    +0.000 C 
ATOM     18  O   UNL     1       3.634   4.719  17.674  0.00  0.00    +0.000 OA
ATOM     19  H   UNL     1       4.802   7.577  16.880  0.00  0.00    +0.000 HD
BRANCH  16  20
ATOM     20  C   UNL     1       5.539   5.849  15.919  0.00  0.00    +0.000 C 
BRANCH  20  21
ATOM     21  C   UNL     1       6.945   5.864  16.498  0.00  0.00    +0.000 C 
ATOM     22  O   UNL     1       7.561   4.861  16.837  0.00  0.00    +0.000 OA
BRANCH  21  23
ATOM     23  O   UNL     1       7.362   7.149  16.676  0.00  0.00    +0.000 OA
BRANCH  23  25
ATOM     24  C   UNL     1       8.234   8.913  18.013  0.00  0.00    +0.000 C 
ATOM     25  C   UNL     1       7.860   7.441  17.989  0.00  0.00    +0.000 C 
ENDBRANCH  23  25
ENDBRANCH  21  23
ENDBRANCH  20  21
ENDBRANCH  16  20
ENDBRANCH   1  17
TORSDOF 5
ENDMDL
MODEL 9
REMARK VINA RESULT:      -7.5      4.163      6.115
REMARK  Name = 
REMARK  6 active torsions:
REMARK  status: ('A' for Active; 'I' for Inactive)
REMARK    1  A    between atoms: C_1  and  C_2
REMARK    2  A    between atoms: C_2  and  O_3
REMARK    3  A    between atoms: O_3  and  C_4
REMARK    4  A    between atoms: C_4  and  C_6
REMARK    5  A    between atoms: C_6  and  N_7
REMARK    6  A    between atoms: C_8  and  C_10
REMARK                            x       y       z     vdW  Elec       q    Type
REMARK                         _______ _______ _______ _____ _____    ______ ____
ROOT
ATOM      1  C   UNL     1       2.444   7.236  19.311  0.00  0.00    +0.000 A 
ATOM      2  C   UNL     1       2.342   8.012  18.161  0.00  0.00    +0.000 A 
ATOM      3  C   UNL     1       1.560   9.168  18.183  0.00  0.00    +0.000 A 
ATOM      4  C   UNL     1       0.878   9.578  19.359  0.00  0.00    +0.000 A 
ATOM      5  C   UNL     1       0.059  10.729  19.471  0.00  0.00    +0.000 A 
ATOM      6 CL   UNL     1      -0.141  11.778  18.094  0.00  0.00    +0.000 Cl
ATOM      7  C   UNL     1      -0.588  11.055  20.673  0.00  0.00    +0.000 A 
ATOM      8  C   UNL     1      -0.349  10.221  21.764  0.00  0.00    +0.000 A 
ATOM      9  N   UNL     1       0.423   9.110  21.681  0.00  0.00    +0.000 NA
ATOM     10  C   UNL     1       1.013   8.795  20.519  0.00  0.00    +0.000 A 
ATOM     11  C   UNL     1       1.787   7.647  20.478  0.00  0.00    +0.000 A 
ATOM     12  C   UNL     1      -0.976  10.472  23.112  0.00  0.00    +0.000 C 
ATOM     13  C   UNL     1      -1.487  11.901  23.282  0.00  0.00    +0.000 C 
ATOM     14  C   UNL     1      -2.319  12.291  22.071  0.00  0.00    +0.000 C 
ATOM     15  C   UNL     1      -1.451  12.285  20.814  0.00  0.00    +0.000 C 
ENDROOT
BRANCH   1  17
ATOM     16  N   UNL     1       4.181   5.912  18.253  0.00  0.00    +0.000 N 
ATOM     17  C   UNL     1       3.264   5.992  19.277  0.00  0.00    +0.000 C 
ATOM     18  O   UNL     1       3.133   5.130  20.133  0.00  0.00    +0.000 OA
ATOM     19  H   UNL     1       4.358   6.705  17.646  0.00  0.00    +0.000 HD
BRANCH  16  20
ATOM     20  C   UNL     1       5.059   4.766  18.097  0.00  0.00    +0.000 C 
BRANCH  20  21
ATOM     21  C   UNL     1       6.414   5.079  18.710  0.00  0.00    +0.000 C 
ATOM     22  O   UNL     1       6.597   5.299  19.901  0.00  0.00    +0.000 OA
BRANCH  21  23
ATOM     23  O   UNL     1       7.356   5.181  17.731  0.00  0.00    +0.000 OA
BRANCH  23  25
ATOM     24  C   UNL     1       7.625   7.542  17.604  0.00  0.00    +0.000 C 
ATOM     25  C   UNL     1       7.186   6.299  16.849  0.00  0.00    +0.000 C 
ENDBRANCH  23  25
ENDBRANCH  21  23
ENDBRANCH  20  21
ENDBRANCH  16  20
ENDBRANCH   1  17
TORSDOF 5
ENDMDL
