MODEL 1
REMARK VINA RESULT:      -6.2      0.000      0.000
REMARK  Name = 
REMARK  8 active torsions:
REMARK  status: ('A' for Active; 'I' for Inactive)
REMARK    1  A    between atoms: C_1  and  C_2
REMARK    2  A    between atoms: C_6  and  C_7
REMARK    3  A    between atoms: C_7  and  C_8
REMARK    4  A    between atoms: C_8  and  N_9
REMARK    5  A    between atoms: N_9  and  C_10
REMARK    6  A    between atoms: N_9  and  C_11
REMARK    7  A    between atoms: C_11  and  C_12
REMARK    8  A    between atoms: C_12  and  N_13
REMARK                            x       y       z     vdW  Elec       q    Type
REMARK                         _______ _______ _______ _____ _____    ______ ____
ROOT
ATOM      1  N   UNL     1       2.774   6.317  19.531  0.00  0.00    +0.000 NA
ATOM      2  C   UNL     1       2.176   7.645  19.717  0.00  0.00    +0.000 C 
ENDROOT
BRANCH   1   3
ATOM      3  C   UNL     1       3.113   6.072  18.110  0.00  0.00    +0.000 C 
BRANCH   3   4
ATOM      4  C   UNL     1       4.245   6.933  17.519  0.00  0.00    +0.000 C 
BRANCH   4  10
ATOM      5  C   UNL     1       7.483   7.420  17.517  0.00  0.00    +0.000 C 
ATOM      6  C   UNL     1       6.728   6.242  17.009  0.00  0.00    +0.000 A 
ATOM      7  N   UNL     1       7.460   5.187  16.484  0.00  0.00    +0.000 NA
ATOM      8  C   UNL     1       6.650   4.229  16.098  0.00  0.00    +0.000 A 
ATOM      9  S   UNL     1       4.980   4.521  16.319  0.00  0.00    +0.000 S 
ATOM     10  C   UNL     1       5.354   6.054  17.006  0.00  0.00    +0.000 A 
ENDBRANCH   4  10
ENDBRANCH   3   4
ENDBRANCH   1   3
BRANCH   1  11
ATOM     11  C   UNL     1       1.806   5.293  20.009  0.00  0.00    +0.000 C 
BRANCH  11  12
ATOM     12  C   UNL     1       2.450   4.078  20.703  0.00  0.00    +0.000 C 
BRANCH  12  13
ATOM     13  N   UNL     1       2.750   3.010  19.780  0.00  0.00    +0.000 N 
ATOM     14  C   UNL     1       3.996   2.488  19.510  0.00  0.00    +0.000 A 
ATOM     15  C   UNL     1       3.863   1.534  18.582  0.00  0.00    +0.000 A 
ATOM     16  N   UNL     1       2.535   1.421  18.251  0.00  0.00    +0.000 N 
ATOM     17  C   UNL     1       1.785   2.342  18.997  0.00  0.00    +0.000 A 
ATOM     18  O   UNL     1       0.581   2.507  18.962  0.00  0.00    +0.000 OA
ATOM     19  H   UNL     1       2.127   0.795  17.574  0.00  0.00    +0.000 HD
ENDBRANCH  12  13
ENDBRANCH  11  12
ENDBRANCH   1  11
TORSDOF 6
ENDMDL
MODEL 2
REMARK VINA RESULT:      -6.1      1.250      1.510
REMARK  Name = 
REMARK  8 active torsions:
REMARK  status: ('A' for Active; 'I' for Inactive)
REMARK    1  A    between atoms: C_1  and  C_2
REMARK    2  A    between atoms: C_6  and  C_7
REMARK    3  A    between atoms: C_7  and  C_8
REMARK    4  A    between atoms: C_8  and  N_9
REMARK    5  A    between atoms: N_9  and  C_10
REMARK    6  A    between atoms: N_9  and  C_11
REMARK    7  A    between atoms: C_11  and  C_12
REMARK    8  A    between atoms: C_12  and  N_13
REMARK                            x       y       z     vdW  Elec       q    Type
REMARK                         _______ _______ _______ _____ _____    ______ ____
ROOT
ATOM      1  N   UNL     1       3.056   6.831  18.876  0.00  0.00    +0.000 NA
ATOM      2  C   UNL     1       2.179   7.982  18.624  0.00  0.00    +0.000 C 
ENDROOT
BRANCH   1   3
ATOM      3  C   UNL     1       3.581   6.265  17.611  0.00  0.00    +0.000 C 
BRANCH   3   4
ATOM      4  C   UNL     1       4.879   6.893  17.068  0.00  0.00    +0.000 C 
BRANCH   4  10
ATOM      5  C   UNL     1       6.330   5.068  14.770  0.00  0.00    +0.000 C 
ATOM      6  C   UNL     1       6.649   5.146  16.222  0.00  0.00    +0.000 A 
ATOM      7  N   UNL     1       7.707   4.381  16.690  0.00  0.00    +0.000 NA
ATOM      8  C   UNL     1       7.864   4.576  17.979  0.00  0.00    +0.000 A 
ATOM      9  S   UNL     1       6.768   5.662  18.714  0.00  0.00    +0.000 S 
ATOM     10  C   UNL     1       6.018   5.917  17.187  0.00  0.00    +0.000 A 
ENDBRANCH   4  10
ENDBRANCH   3   4
ENDBRANCH   1   3
BRANCH   1  11
ATOM     11  C   UNL     1       2.279   5.799  19.614  0.00  0.00    +0.000 C 
BRANCH  11  12
ATOM     12  C   UNL     1       3.131   4.668  20.221  0.00  0.00    +0.000 C 
BRANCH  12  13
ATOM     13  N   UNL     1       2.980   3.421  19.511  0.00  0.00    +0.000 N 
ATOM     14  C   UNL     1       3.941   2.791  18.751  0.00  0.00    +0.000 A 
ATOM     15  C   UNL     1       3.410   1.676  18.236  0.00  0.00    +0.000 A 
ATOM     16  N   UNL     1       2.110   1.568  18.664  0.00  0.00    +0.000 N 
ATOM     17  C   UNL     1       1.793   2.660  19.486  0.00  0.00    +0.000 A 
ATOM     18  O   UNL     1       0.733   2.876  20.042  0.00  0.00    +0.000 OA
ATOM     19  H   UNL     1       1.451   0.839  18.434  0.00  0.00    +0.000 HD
ENDBRANCH  12  13
ENDBRANCH  11  12
ENDBRANCH   1  11
TORSDOF 6
ENDMDL
MODEL 3
REMARK VINA RESULT:      -6.1      2.831      5.539
REMARK  Name = 
REMARK  8 active torsions:
REMARK  status: ('A' for Active; 'I' for Inactive)
REMARK    1  A    between atoms: C_1  and  C_2
REMARK    2  A    between atoms: C_6  and  C_7
REMARK    3  A    between atoms: C_7  and  C_8
REMARK    4  A    between atoms: C_8  and  N_9
REMARK    5  A    between atoms: N_9  and  C_10
REMARK    6  A    between atoms: N_9  and  C_11
REMARK    7  A    between atoms: C_11  and  C_12
REMARK    8  A    between atoms: C_12  and  N_13
REMARK                            x       y       z     vdW  Elec       q    Type
REMARK                         _______ _______ _______ _____ _____    ______ ____
ROOT
ATOM      1  N   UNL     1       2.677   6.334  18.220  0.00  0.00    +0.000 NA
ATOM      2  C   UNL     1       2.447   6.845  19.577  0.00  0.00    +0.000 C 
ENDROOT
BRANCH   1   3
ATOM      3  C   UNL     1       1.907   5.093  17.973  0.00  0.00    +0.000 C 
BRANCH   3   4
ATOM      4  C   UNL     1       2.656   3.766  18.204  0.00  0.00    +0.000 C 
BRANCH   4  10
ATOM      5  C   UNL     1       4.695   2.215  20.242  0.00  0.00    +0.000 C 
ATOM      6  C   UNL     1       3.288   2.633  20.488  0.00  0.00    +0.000 A 
ATOM      7  N   UNL     1       2.749   2.372  21.739  0.00  0.00    +0.000 NA
ATOM      8  C   UNL     1       1.515   2.815  21.796  0.00  0.00    +0.000 A 
ATOM      9  S   UNL     1       0.915   3.555  20.377  0.00  0.00    +0.000 S 
ATOM     10  C   UNL     1       2.432   3.282  19.610  0.00  0.00    +0.000 A 
ENDBRANCH   4  10
ENDBRANCH   3   4
ENDBRANCH   1   3
BRANCH   1  11
ATOM     11  C   UNL     1       4.133   6.074  18.055  0.00  0.00    +0.000 C 
BRANCH  11  12
ATOM     12  C   UNL     1       4.751   6.682  16.781  0.00  0.00    +0.000 C 
BRANCH  12  13
ATOM     13  N   UNL     1       5.693   5.793  16.146  0.00  0.00    +0.000 N 
ATOM     14  C   UNL     1       5.410   4.862  15.171  0.00  0.00    +0.000 A 
ATOM     15  C   UNL     1       6.540   4.218  14.859  0.00  0.00    +0.000 A 
ATOM     16  N   UNL     1       7.564   4.730  15.617  0.00  0.00    +0.000 N 
ATOM     17  C   UNL     1       7.069   5.743  16.451  0.00  0.00    +0.000 A 
ATOM     18  O   UNL     1       7.701   6.414  17.245  0.00  0.00    +0.000 OA
ATOM     19  H   UNL     1       8.530   4.440  15.612  0.00  0.00    +0.000 HD
ENDBRANCH  12  13
ENDBRANCH  11  12
ENDBRANCH   1  11
TORSDOF 6
ENDMDL
MODEL 4
REMARK VINA RESULT:      -6.0      2.691      6.132
REMARK  Name = 
REMARK  8 active torsions:
REMARK  status: ('A' for Active; 'I' for Inactive)
REMARK    1  A    between atoms: C_1  and  C_2
REMARK    2  A    between atoms: C_6  and  C_7
REMARK    3  A    between atoms: C_7  and  C_8
REMARK    4  A    between atoms: C_8  and  N_9
REMARK    5  A    between atoms: N_9  and  C_10
REMARK    6  A    between atoms: N_9  and  C_11
REMARK    7  A    between atoms: C_11  and  C_12
REMARK    8  A    between atoms: C_12  and  N_13
REMARK                            x       y       z     vdW  Elec       q    Type
REMARK                         _______ _______ _______ _____ _____    ______ ____
ROOT
ATOM      1  N   UNL     1       4.247   4.700  18.256  0.00  0.00    +0.000 NA
ATOM      2  C   UNL     1       3.776   5.974  18.817  0.00  0.00    +0.000 C 
ENDROOT
BRANCH   1   3
ATOM      3  C   UNL     1       5.023   3.926  19.253  0.00  0.00    +0.000 C 
BRANCH   3   4
ATOM      4  C   UNL     1       4.450   2.551  19.646  0.00  0.00    +0.000 C 
BRANCH   4  10
ATOM      5  C   UNL     1       2.130   3.376  21.803  0.00  0.00    +0.000 C 
ATOM      6  C   UNL     1       1.960   2.908  20.401  0.00  0.00    +0.000 A 
ATOM      7  N   UNL     1       0.667   2.823  19.904  0.00  0.00    +0.000 NA
ATOM      8  C   UNL     1       0.693   2.413  18.658  0.00  0.00    +0.000 A 
ATOM      9  S   UNL     1       2.239   2.091  18.004  0.00  0.00    +0.000 S 
ATOM     10  C   UNL     1       2.953   2.551  19.501  0.00  0.00    +0.000 A 
ENDBRANCH   4  10
ENDBRANCH   3   4
ENDBRANCH   1   3
BRANCH   1  11
ATOM     11  C   UNL     1       5.092   4.994  17.067  0.00  0.00    +0.000 C 
BRANCH  11  12
ATOM     12  C   UNL     1       6.604   4.805  17.293  0.00  0.00    +0.000 C 
BRANCH  12  13
ATOM     13  N   UNL     1       7.249   6.011  17.751  0.00  0.00    +0.000 N 
ATOM     14  C   UNL     1       7.236   7.236  17.120  0.00  0.00    +0.000 A 
ATOM     15  C   UNL     1       7.968   8.092  17.842  0.00  0.00    +0.000 A 
ATOM     16  N   UNL     1       8.451   7.437  18.948  0.00  0.00    +0.000 N 
ATOM     17  C   UNL     1       8.012   6.105  18.934  0.00  0.00    +0.000 A 
ATOM     18  O   UNL     1       8.245   5.247  19.764  0.00  0.00    +0.000 OA
ATOM     19  H   UNL     1       9.043   7.817  19.671  0.00  0.00    +0.000 HD
ENDBRANCH  12  13
ENDBRANCH  11  12
ENDBRANCH   1  11
TORSDOF 6
ENDMDL
MODEL 5
REMARK VINA RESULT:      -6.0      1.944      2.360
REMARK  Name = 
REMARK  8 active torsions:
REMARK  status: ('A' for Active; 'I' for Inactive)
REMARK    1  A    between atoms: C_1  and  C_2
REMARK    2  A    between atoms: C_6  and  C_7
REMARK    3  A    between atoms: C_7  and  C_8
REMARK    4  A    between atoms: C_8  and  N_9
REMARK    5  A    between atoms: N_9  and  C_10
REMARK    6  A    between atoms: N_9  and  C_11
REMARK    7  A    between atoms: C_11  and  C_12
REMARK    8  A    between atoms: C_12  and  N_13
REMARK                            x       y       z     vdW  Elec       q    Type
REMARK                         _______ _______ _______ _____ _____    ______ ____
ROOT
ATOM      1  N   UNL     1       3.129   7.450  18.263  0.00  0.00    +0.000 NA
ATOM      2  C   UNL     1       2.315   8.580  17.797  0.00  0.00    +0.000 C 
ENDROOT
BRANCH   1   3
ATOM      3  C   UNL     1       4.221   7.143  17.310  0.00  0.00    +0.000 C 
BRANCH   3   4
ATOM      4  C   UNL     1       4.362   5.670  16.882  0.00  0.00    +0.000 C 
BRANCH   4  10
ATOM      5  C   UNL     1       6.558   4.342  14.850  0.00  0.00    +0.000 C 
ATOM      6  C   UNL     1       6.702   4.627  16.304  0.00  0.00    +0.000 A 
ATOM      7  N   UNL     1       7.918   4.328  16.900  0.00  0.00    +0.000 NA
ATOM      8  C   UNL     1       7.885   4.652  18.171  0.00  0.00    +0.000 A 
ATOM      9  S   UNL     1       6.417   5.316  18.740  0.00  0.00    +0.000 S 
ATOM     10  C   UNL     1       5.758   5.181  17.156  0.00  0.00    +0.000 A 
ENDBRANCH   4  10
ENDBRANCH   3   4
ENDBRANCH   1   3
BRANCH   1  11
ATOM     11  C   UNL     1       2.242   6.266  18.423  0.00  0.00    +0.000 C 
BRANCH  11  12
ATOM     12  C   UNL     1       2.305   5.603  19.812  0.00  0.00    +0.000 C 
BRANCH  12  13
ATOM     13  N   UNL     1       1.890   4.222  19.785  0.00  0.00    +0.000 N 
ATOM     14  C   UNL     1       1.424   3.529  18.689  0.00  0.00    +0.000 A 
ATOM     15  C   UNL     1       1.118   2.285  19.073  0.00  0.00    +0.000 A 
ATOM     16  N   UNL     1       1.392   2.156  20.413  0.00  0.00    +0.000 N 
ATOM     17  C   UNL     1       1.893   3.369  20.908  0.00  0.00    +0.000 A 
ATOM     18  O   UNL     1       2.245   3.606  22.048  0.00  0.00    +0.000 OA
ATOM     19  H   UNL     1       1.256   1.338  20.987  0.00  0.00    +0.000 HD
ENDBRANCH  12  13
ENDBRANCH  11  12
ENDBRANCH   1  11
TORSDOF 6
ENDMDL
MODEL 6
REMARK VINA RESULT:      -5.9      1.313      1.648
REMARK  Name = 
REMARK  8 active torsions:
REMARK  status: ('A' for Active; 'I' for Inactive)
REMARK    1  A    between atoms: C_1  and  C_2
REMARK    2  A    between atoms: C_6  and  C_7
REMARK    3  A    between atoms: C_7  and  C_8
REMARK    4  A    between atoms: C_8  and  N_9
REMARK    5  A    between atoms: N_9  and  C_10
REMARK    6  A    between atoms: N_9  and  C_11
REMARK    7  A    between atoms: C_11  and  C_12
REMARK    8  A    between atoms: C_12  and  N_13
REMARK                            x       y       z     vdW  Elec       q    Type
REMARK                         _______ _______ _______ _____ _____    ______ ____
ROOT
ATOM      1  N   UNL     1       3.658   6.451  19.118  0.00  0.00    +0.000 NA
ATOM      2  C   UNL     1       2.375   6.891  19.683  0.00  0.00    +0.000 C 
ENDROOT
BRANCH   1   3
ATOM      3  C   UNL     1       3.572   6.287  17.648  0.00  0.00    +0.000 C 
BRANCH   3   4
ATOM      4  C   UNL     1       4.669   6.979  16.818  0.00  0.00    +0.000 C 
BRANCH   4  10
ATOM      5  C   UNL     1       7.526   6.346  18.287  0.00  0.00    +0.000 C 
ATOM      6  C   UNL     1       6.953   5.706  17.071  0.00  0.00    +0.000 A 
ATOM      7  N   UNL     1       7.684   4.690  16.474  0.00  0.00    +0.000 NA
ATOM      8  C   UNL     1       7.036   4.225  15.432  0.00  0.00    +0.000 A 
ATOM      9  S   UNL     1       5.535   4.966  15.088  0.00  0.00    +0.000 S 
ATOM     10  C   UNL     1       5.745   5.992  16.453  0.00  0.00    +0.000 A 
ENDBRANCH   4  10
ENDBRANCH   3   4
ENDBRANCH   1   3
BRANCH   1  11
ATOM     11  C   UNL     1       4.035   5.160  19.755  0.00  0.00    +0.000 C 
BRANCH  11  12
ATOM     12  C   UNL     1       2.891   4.463  20.515  0.00  0.00    +0.000 C 
BRANCH  12  13
ATOM     13  N   UNL     1       2.282   3.404  19.746  0.00  0.00    +0.000 N 
ATOM     14  C   UNL     1       0.980   3.362  19.300  0.00  0.00    +0.000 A 
ATOM     15  C   UNL     1       0.792   2.208  18.649  0.00  0.00    +0.000 A 
ATOM     16  N   UNL     1       1.968   1.500  18.656  0.00  0.00    +0.000 N 
ATOM     17  C   UNL     1       2.951   2.230  19.343  0.00  0.00    +0.000 A 
ATOM     18  O   UNL     1       4.108   1.905  19.531  0.00  0.00    +0.000 OA
ATOM     19  H   UNL     1       2.135   0.591  18.254  0.00  0.00    +0.000 HD
ENDBRANCH  12  13
ENDBRANCH  11  12
ENDBRANCH   1  11
TORSDOF 6
ENDMDL
MODEL 7
REMARK VINA RESULT:      -5.9      3.487      6.443
REMARK  Name = 
REMARK  8 active torsions:
REMARK  status: ('A' for Active; 'I' for Inactive)
REMARK    1  A    between atoms: C_1  and  C_2
REMARK    2  A    between atoms: C_6  and  C_7
REMARK    3  A    between atoms: C_7  and  C_8
REMARK    4  A    between atoms: C_8  and  N_9
REMARK    5  A    between atoms: N_9  and  C_10
REMARK    6  A    between atoms: N_9  and  C_11
REMARK    7  A    between atoms: C_11  and  C_12
REMARK    8  A    between atoms: C_12  and  N_13
REMARK                            x       y       z     vdW  Elec       q    Type
REMARK                         _______ _______ _______ _____ _____    ______ ____
ROOT
ATOM      1  N   UNL     1       4.910   5.125  17.120  0.00  0.00    +0.000 NA
ATOM      2  C   UNL     1       4.826   6.438  16.467  0.00  0.00    +0.000 C 
ENDROOT
BRANCH   1   3
ATOM      3  C   UNL     1       5.315   5.253  18.539  0.00  0.00    +0.000 C 
BRANCH   3   4
ATOM      4  C   UNL     1       4.942   4.080  19.465  0.00  0.00    +0.000 C 
BRANCH   4  10
ATOM      5  C   UNL     1       2.998   1.956  17.907  0.00  0.00    +0.000 C 
ATOM      6  C   UNL     1       2.613   3.017  18.876  0.00  0.00    +0.000 A 
ATOM      7  N   UNL     1       1.270   3.132  19.204  0.00  0.00    +0.000 NA
ATOM      8  C   UNL     1       1.103   4.098  20.076  0.00  0.00    +0.000 A 
ATOM      9  S   UNL     1       2.516   4.934  20.552  0.00  0.00    +0.000 S 
ATOM     10  C   UNL     1       3.447   3.918  19.521  0.00  0.00    +0.000 A 
ENDBRANCH   4  10
ENDBRANCH   3   4
ENDBRANCH   1   3
BRANCH   1  11
ATOM     11  C   UNL     1       5.897   4.293  16.379  0.00  0.00    +0.000 C 
BRANCH  11  12
ATOM     12  C   UNL     1       6.891   5.095  15.518  0.00  0.00    +0.000 C 
BRANCH  12  13
ATOM     13  N   UNL     1       6.894   4.673  14.139  0.00  0.00    +0.000 N 
ATOM     14  C   UNL     1       6.045   3.753  13.563  0.00  0.00    +0.000 A 
ATOM     15  C   UNL     1       6.381   3.614  12.276  0.00  0.00    +0.000 A 
ATOM     16  N   UNL     1       7.439   4.446  12.003  0.00  0.00    +0.000 N 
ATOM     17  C   UNL     1       7.797   5.147  13.164  0.00  0.00    +0.000 A 
ATOM     18  O   UNL     1       8.683   5.972  13.279  0.00  0.00    +0.000 OA
ATOM     19  H   UNL     1       7.918   4.554  11.122  0.00  0.00    +0.000 HD
ENDBRANCH  12  13
ENDBRANCH  11  12
ENDBRANCH   1  11
TORSDOF 6
ENDMDL
MODEL 8
REMARK VINA RESULT:      -5.9      2.418      4.626
REMARK  Name = 
REMARK  8 active torsions:
REMARK  status: ('A' for Active; 'I' for Inactive)
REMARK    1  A    between atoms: C_1  and  C_2
REMARK    2  A    between atoms: C_6  and  C_7
REMARK    3  A    between atoms: C_7  and  C_8
REMARK    4  A    between atoms: C_8  and  N_9
REMARK    5  A    between atoms: N_9  and  C_10
REMARK    6  A    between atoms: N_9  and  C_11
REMARK    7  A    between atoms: C_11  and  C_12
REMARK    8  A    between atoms: C_12  and  N_13
REMARK                            x       y       z     vdW  Elec       q    Type
REMARK                         _______ _______ _______ _____ _____    ______ ____
ROOT
ATOM      1  N   UNL     1       1.896   3.518  20.421  0.00  0.00    +0.000 NA
ATOM      2  C   UNL     1       1.268   2.800  21.538  0.00  0.00    +0.000 C 
ENDROOT
BRANCH   1   3
ATOM      3  C   UNL     1       1.576   4.964  20.461  0.00  0.00    +0.000 C 
BRANCH   3   4
ATOM      4  C   UNL     1       2.754   5.932  20.238  0.00  0.00    +0.000 C 
BRANCH   4  10
ATOM      5  C   UNL     1       1.047   8.423  21.503  0.00  0.00    +0.000 C 
ATOM      6  C   UNL     1       1.556   8.266  20.113  0.00  0.00    +0.000 A 
ATOM      7  N   UNL     1       1.317   9.301  19.221  0.00  0.00    +0.000 NA
ATOM      8  C   UNL     1       1.841   9.014  18.053  0.00  0.00    +0.000 A 
ATOM      9  S   UNL     1       2.635   7.505  17.934  0.00  0.00    +0.000 S 
ATOM     10  C   UNL     1       2.270   7.199  19.588  0.00  0.00    +0.000 A 
ENDBRANCH   4  10
ENDBRANCH   3   4
ENDBRANCH   1   3
BRANCH   1  11
ATOM     11  C   UNL     1       1.411   2.923  19.146  0.00  0.00    +0.000 C 
BRANCH  11  12
ATOM     12  C   UNL     1       2.504   2.239  18.303  0.00  0.00    +0.000 C 
BRANCH  12  13
ATOM     13  N   UNL     1       3.715   3.018  18.232  0.00  0.00    +0.000 N 
ATOM     14  C   UNL     1       4.025   3.966  17.281  0.00  0.00    +0.000 A 
ATOM     15  C   UNL     1       5.245   4.446  17.542  0.00  0.00    +0.000 A 
ATOM     16  N   UNL     1       5.733   3.826  18.666  0.00  0.00    +0.000 N 
ATOM     17  C   UNL     1       4.785   2.908  19.144  0.00  0.00    +0.000 A 
ATOM     18  O   UNL     1       4.885   2.195  20.125  0.00  0.00    +0.000 OA
ATOM     19  H   UNL     1       6.631   3.971  19.102  0.00  0.00    +0.000 HD
ENDBRANCH  12  13
ENDBRANCH  11  12
ENDBRANCH   1  11
TORSDOF 6
ENDMDL
MODEL 9
REMARK VINA RESULT:      -5.9      1.181      1.272
REMARK  Name = 
REMARK  8 active torsions:
REMARK  status: ('A' for Active; 'I' for Inactive)
REMARK    1  A    between atoms: C_1  and  C_2
REMARK    2  A    between atoms: C_6  and  C_7
REMARK    3  A    between atoms: C_7  and  C_8
REMARK    4  A    between atoms: C_8  and  N_9
REMARK    5  A    between atoms: N_9  and  C_10
REMARK    6  A    between atoms: N_9  and  C_11
REMARK    7  A    between atoms: C_11  and  C_12
REMARK    8  A    between atoms: C_12  and  N_13
REMARK                            x       y       z     vdW  Elec       q    Type
REMARK                         _______ _______ _______ _____ _____    ______ ____
ROOT
ATOM      1  N   UNL     1       2.882   6.905  18.960  0.00  0.00    +0.000 NA
ATOM      2  C   UNL     1       2.287   7.737  17.906  0.00  0.00    +0.000 C 
ENDROOT
BRANCH   1   3
ATOM      3  C   UNL     1       4.257   6.486  18.605  0.00  0.00    +0.000 C 
BRANCH   3   4
ATOM      4  C   UNL     1       4.780   6.949  17.232  0.00  0.00    +0.000 C 
BRANCH   4  10
ATOM      5  C   UNL     1       7.685   6.117  18.492  0.00  0.00    +0.000 C 
ATOM      6  C   UNL     1       7.044   5.616  17.246  0.00  0.00    +0.000 A 
ATOM      7  N   UNL     1       7.724   4.653  16.515  0.00  0.00    +0.000 NA
ATOM      8  C   UNL     1       7.019   4.309  15.463  0.00  0.00    +0.000 A 
ATOM      9  S   UNL     1       5.521   5.108  15.268  0.00  0.00    +0.000 S 
ATOM     10  C   UNL     1       5.815   5.985  16.719  0.00  0.00    +0.000 A 
ENDBRANCH   4  10
ENDBRANCH   3   4
ENDBRANCH   1   3
BRANCH   1  11
ATOM     11  C   UNL     1       2.018   5.710  19.160  0.00  0.00    +0.000 C 
BRANCH  11  12
ATOM     12  C   UNL     1       1.838   4.834  17.905  0.00  0.00    +0.000 C 
BRANCH  12  13
ATOM     13  N   UNL     1       2.294   3.480  18.107  0.00  0.00    +0.000 N 
ATOM     14  C   UNL     1       3.567   3.003  17.882  0.00  0.00    +0.000 A 
ATOM     15  C   UNL     1       3.584   1.695  18.160  0.00  0.00    +0.000 A 
ATOM     16  N   UNL     1       2.333   1.315  18.578  0.00  0.00    +0.000 N 
ATOM     17  C   UNL     1       1.476   2.426  18.565  0.00  0.00    +0.000 A 
ATOM     18  O   UNL     1       0.302   2.451  18.883  0.00  0.00    +0.000 OA
ATOM     19  H   UNL     1       2.034   0.390  18.848  0.00  0.00    +0.000 HD
ENDBRANCH  12  13
ENDBRANCH  11  12
ENDBRANCH   1  11
TORSDOF 6
ENDMDL
