MODEL 1
REMARK VINA RESULT:      -8.6      0.000      0.000
REMARK  Name = 
REMARK  9 active torsions:
REMARK  status: ('A' for Active; 'I' for Inactive)
REMARK    1  A    between atoms: C_1  and  C_2
REMARK    2  A    between atoms: C_2  and  C_3
REMARK    3  A    between atoms: C_6  and  N_7
REMARK    4  A    between atoms: C_9  and  C_10
REMARK    5  A    between atoms: C_10  and  O_12
REMARK    6  A    between atoms: O_12  and  C_13
REMARK    7  A    between atoms: C_13  and  C_14
REMARK    8  A    between atoms: N_16  and  C_17
REMARK    9  A    between atoms: C_20  and  N_21
REMARK                            x       y       z     vdW  Elec       q    Type
REMARK                         _______ _______ _______ _____ _____    ______ ____
ROOT
ATOM      1  C   UNL     1       7.655   4.698  17.322  0.00  0.00    +0.000 C 
ATOM      2  O   UNL     1       8.412   3.950  17.927  0.00  0.00    +0.000 OA
ENDROOT
BRANCH   1   5
ATOM      3  N   UNL     1       4.661   5.731  17.028  0.00  0.00    +0.000 N 
ATOM      4  C   UNL     1       5.139   4.428  17.430  0.00  0.00    +0.000 C 
ATOM      5  C   UNL     1       6.399   4.216  16.617  0.00  0.00    +0.000 C 
ATOM      6  C   UNL     1       6.128   4.975  15.337  0.00  0.00    +0.000 C 
ATOM      7  C   UNL     1       5.201   6.083  15.781  0.00  0.00    +0.000 C 
ATOM      8  O   UNL     1       4.996   7.071  15.095  0.00  0.00    +0.000 OA
BRANCH   3  12
ATOM      9  C   UNL     1       1.940   8.043  19.370  0.00  0.00    +0.000 A 
ATOM     10  C   UNL     1       2.389   6.798  19.816  0.00  0.00    +0.000 A 
ATOM     11  C   UNL     1       3.282   6.041  19.046  0.00  0.00    +0.000 A 
ATOM     12  C   UNL     1       3.765   6.505  17.818  0.00  0.00    +0.000 A 
ATOM     13  C   UNL     1       3.317   7.765  17.387  0.00  0.00    +0.000 A 
ATOM     14  C   UNL     1       2.416   8.522  18.149  0.00  0.00    +0.000 A 
BRANCH   9  16
ATOM     15  C   UNL     1       1.150   8.569  21.692  0.00  0.00    +0.000 C 
ATOM     16  C   UNL     1       0.989   8.856  20.206  0.00  0.00    +0.000 C 
ENDBRANCH   9  16
ENDBRANCH   3  12
ENDBRANCH   1   5
BRANCH   1  17
ATOM     17  O   UNL     1       7.833   6.043  17.225  0.00  0.00    +0.000 OA
BRANCH  17  18
ATOM     18  C   UNL     1       8.015   6.717  18.480  0.00  0.00    +0.000 C 
BRANCH  18  19
ATOM     19  C   UNL     1       8.188   8.218  18.217  0.00  0.00    +0.000 C 
ATOM     20  O   UNL     1       7.724   8.732  17.199  0.00  0.00    +0.000 OA
ATOM     21  N   UNL     1       8.914   8.903  19.178  0.00  0.00    +0.000 N 
ATOM     22  H   UNL     1       9.407   8.359  19.877  0.00  0.00    +0.000 HD
BRANCH  21  23
ATOM     23  C   UNL     1       9.144  10.300  19.172  0.00  0.00    +0.000 A 
ATOM     24  C   UNL     1       9.479  11.019  20.328  0.00  0.00    +0.000 A 
ATOM     25  C   UNL     1       9.680  12.400  20.293  0.00  0.00    +0.000 A 
ATOM     26  C   UNL     1       9.555  13.080  19.082  0.00  0.00    +0.000 A 
ATOM     27  C   UNL     1       9.239  12.380  17.909  0.00  0.00    +0.000 A 
ATOM     28  C   UNL     1       9.042  10.991  17.959  0.00  0.00    +0.000 A 
BRANCH  26  29
ATOM     29  N   UNL     1       9.768  14.531  19.047  0.00  0.00    +0.000 N 
ATOM     30  O   UNL     1       8.774  15.258  18.903  0.00  0.00    +0.000 OA
ATOM     31  O   UNL     1      10.932  14.946  19.164  0.00  0.00    +0.000 OA
ENDBRANCH  26  29
ENDBRANCH  21  23
ENDBRANCH  18  19
ENDBRANCH  17  18
ENDBRANCH   1  17
TORSDOF 8
ENDMDL
MODEL 2
REMARK VINA RESULT:      -8.3      1.801      2.478
REMARK  Name = 
REMARK  9 active torsions:
REMARK  status: ('A' for Active; 'I' for Inactive)
REMARK    1  A    between atoms: C_1  and  C_2
REMARK    2  A    between atoms: C_2  and  C_3
REMARK    3  A    between atoms: C_6  and  N_7
REMARK    4  A    between atoms: C_9  and  C_10
REMARK    5  A    between atoms: C_10  and  O_12
REMARK    6  A    between atoms: O_12  and  C_13
REMARK    7  A    between atoms: C_13  and  C_14
REMARK    8  A    between atoms: N_16  and  C_17
REMARK    9  A    between atoms: C_20  and  N_21
REMARK                            x       y       z     vdW  Elec       q    Type
REMARK                         _______ _______ _______ _____ _____    ______ ____
ROOT
ATOM      1  C   UNL     1       5.554   4.629  17.355  0.00  0.00    +0.000 C 
ATOM      2  O   UNL     1       5.238   4.436  16.188  0.00  0.00    +0.000 OA
ENDROOT
BRANCH   1   5
ATOM      3  N   UNL     1       2.932   5.702  18.800  0.00  0.00    +0.000 N 
ATOM      4  C   UNL     1       4.207   5.346  19.376  0.00  0.00    +0.000 C 
ATOM      5  C   UNL     1       4.700   4.190  18.530  0.00  0.00    +0.000 C 
ATOM      6  C   UNL     1       3.425   3.502  18.092  0.00  0.00    +0.000 C 
ATOM      7  C   UNL     1       2.419   4.630  18.053  0.00  0.00    +0.000 C 
ATOM      8  O   UNL     1       1.355   4.528  17.466  0.00  0.00    +0.000 OA
BRANCH   3  12
ATOM      9  C   UNL     1       1.135   9.528  19.407  0.00  0.00    +0.000 A 
ATOM     10  C   UNL     1       1.582   9.141  18.143  0.00  0.00    +0.000 A 
ATOM     11  C   UNL     1       2.171   7.885  17.946  0.00  0.00    +0.000 A 
ATOM     12  C   UNL     1       2.320   6.973  18.996  0.00  0.00    +0.000 A 
ATOM     13  C   UNL     1       1.854   7.368  20.260  0.00  0.00    +0.000 A 
ATOM     14  C   UNL     1       1.273   8.628  20.465  0.00  0.00    +0.000 A 
BRANCH   9  16
ATOM     15  C   UNL     1       0.351  11.217  21.088  0.00  0.00    +0.000 C 
ATOM     16  C   UNL     1       0.494  10.874  19.612  0.00  0.00    +0.000 C 
ENDBRANCH   9  16
ENDBRANCH   3  12
ENDBRANCH   1   5
BRANCH   1  17
ATOM     17  O   UNL     1       6.708   5.238  17.738  0.00  0.00    +0.000 OA
BRANCH  17  18
ATOM     18  C   UNL     1       7.091   6.363  16.931  0.00  0.00    +0.000 C 
BRANCH  18  19
ATOM     19  C   UNL     1       7.785   7.399  17.823  0.00  0.00    +0.000 C 
ATOM     20  O   UNL     1       8.321   7.059  18.878  0.00  0.00    +0.000 OA
ATOM     21  N   UNL     1       7.724   8.705  17.363  0.00  0.00    +0.000 N 
ATOM     22  H   UNL     1       7.106   8.905  16.585  0.00  0.00    +0.000 HD
BRANCH  21  23
ATOM     23  C   UNL     1       8.346   9.812  17.989  0.00  0.00    +0.000 A 
ATOM     24  C   UNL     1       9.193   9.680  19.098  0.00  0.00    +0.000 A 
ATOM     25  C   UNL     1       9.774  10.795  19.706  0.00  0.00    +0.000 A 
ATOM     26  C   UNL     1       9.518  12.066  19.194  0.00  0.00    +0.000 A 
ATOM     27  C   UNL     1       8.689  12.222  18.075  0.00  0.00    +0.000 A 
ATOM     28  C   UNL     1       8.113  11.093  17.472  0.00  0.00    +0.000 A 
BRANCH  26  29
ATOM     29  N   UNL     1      10.132  13.236  19.833  0.00  0.00    +0.000 N 
ATOM     30  O   UNL     1       9.918  14.349  19.330  0.00  0.00    +0.000 OA
ATOM     31  O   UNL     1      10.828  13.042  20.841  0.00  0.00    +0.000 OA
ENDBRANCH  26  29
ENDBRANCH  21  23
ENDBRANCH  18  19
ENDBRANCH  17  18
ENDBRANCH   1  17
TORSDOF 8
ENDMDL
MODEL 3
REMARK VINA RESULT:      -8.3      0.700      1.479
REMARK  Name = 
REMARK  9 active torsions:
REMARK  status: ('A' for Active; 'I' for Inactive)
REMARK    1  A    between atoms: C_1  and  C_2
REMARK    2  A    between atoms: C_2  and  C_3
REMARK    3  A    between atoms: C_6  and  N_7
REMARK    4  A    between atoms: C_9  and  C_10
REMARK    5  A    between atoms: C_10  and  O_12
REMARK    6  A    between atoms: O_12  and  C_13
REMARK    7  A    between atoms: C_13  and  C_14
REMARK    8  A    between atoms: N_16  and  C_17
REMARK    9  A    between atoms: C_20  and  N_21
REMARK                            x       y       z     vdW  Elec       q    Type
REMARK                         _______ _______ _______ _____ _____    ______ ____
ROOT
ATOM      1  C   UNL     1       7.178   4.720  17.400  0.00  0.00    +0.000 C 
ATOM      2  O   UNL     1       8.254   4.164  17.220  0.00  0.00    +0.000 OA
ENDROOT
BRANCH   1   5
ATOM      3  N   UNL     1       4.273   5.973  17.073  0.00  0.00    +0.000 N 
ATOM      4  C   UNL     1       4.648   4.618  17.406  0.00  0.00    +0.000 C 
ATOM      5  C   UNL     1       5.922   4.370  16.625  0.00  0.00    +0.000 C 
ATOM      6  C   UNL     1       5.750   5.223  15.387  0.00  0.00    +0.000 C 
ATOM      7  C   UNL     1       4.882   6.363  15.870  0.00  0.00    +0.000 C 
ATOM      8  O   UNL     1       4.770   7.403  15.242  0.00  0.00    +0.000 OA
BRANCH   3  12
ATOM      9  C   UNL     1       1.692   8.337  19.519  0.00  0.00    +0.000 A 
ATOM     10  C   UNL     1       2.086   8.782  18.256  0.00  0.00    +0.000 A 
ATOM     11  C   UNL     1       2.932   8.004  17.455  0.00  0.00    +0.000 A 
ATOM     12  C   UNL     1       3.402   6.757  17.880  0.00  0.00    +0.000 A 
ATOM     13  C   UNL     1       2.987   6.313  19.147  0.00  0.00    +0.000 A 
ATOM     14  C   UNL     1       2.148   7.092  19.956  0.00  0.00    +0.000 A 
BRANCH   9  16
ATOM     15  C   UNL     1       0.679  10.604  19.869  0.00  0.00    +0.000 C 
ATOM     16  C   UNL     1       0.775   9.171  20.372  0.00  0.00    +0.000 C 
ENDBRANCH   9  16
ENDBRANCH   3  12
ENDBRANCH   1   5
BRANCH   1  17
ATOM     17  O   UNL     1       6.975   5.697  18.324  0.00  0.00    +0.000 OA
BRANCH  17  18
ATOM     18  C   UNL     1       8.174   6.309  18.826  0.00  0.00    +0.000 C 
BRANCH  18  19
ATOM     19  C   UNL     1       8.180   7.789  18.425  0.00  0.00    +0.000 C 
ATOM     20  O   UNL     1       7.555   8.173  17.437  0.00  0.00    +0.000 OA
ATOM     21  N   UNL     1       8.953   8.612  19.229  0.00  0.00    +0.000 N 
ATOM     22  H   UNL     1       9.572   8.173  19.901  0.00  0.00    +0.000 HD
BRANCH  21  23
ATOM     23  C   UNL     1       9.055  10.017  19.085  0.00  0.00    +0.000 A 
ATOM     24  C   UNL     1       8.833  10.673  17.867  0.00  0.00    +0.000 A 
ATOM     25  C   UNL     1       8.963  12.059  17.753  0.00  0.00    +0.000 A 
ATOM     26  C   UNL     1       9.311  12.809  18.876  0.00  0.00    +0.000 A 
ATOM     27  C   UNL     1       9.521  12.177  20.109  0.00  0.00    +0.000 A 
ATOM     28  C   UNL     1       9.385  10.784  20.210  0.00  0.00    +0.000 A 
BRANCH  26  29
ATOM     29  N   UNL     1       9.444  14.266  18.754  0.00  0.00    +0.000 N 
ATOM     30  O   UNL     1       9.088  14.961  19.716  0.00  0.00    +0.000 OA
ATOM     31  O   UNL     1       9.909  14.715  17.695  0.00  0.00    +0.000 OA
ENDBRANCH  26  29
ENDBRANCH  21  23
ENDBRANCH  18  19
ENDBRANCH  17  18
ENDBRANCH   1  17
TORSDOF 8
ENDMDL
MODEL 4
REMARK VINA RESULT:      -8.2      4.451      7.204
REMARK  Name = 
REMARK  9 active torsions:
REMARK  status: ('A' for Active; 'I' for Inactive)
REMARK    1  A    between atoms: C_1  and  C_2
REMARK    2  A    between atoms: C_2  and  C_3
REMARK    3  A    between atoms: C_6  and  N_7
REMARK    4  A    between atoms: C_9  and  C_10
REMARK    5  A    between atoms: C_10  and  O_12
REMARK    6  A    between atoms: O_12  and  C_13
REMARK    7  A    between atoms: C_13  and  C_14
REMARK    8  A    between atoms: N_16  and  C_17
REMARK    9  A    between atoms: C_20  and  N_21
REMARK                            x       y       z     vdW  Elec       q    Type
REMARK                         _______ _______ _______ _____ _____    ______ ____
ROOT
ATOM      1  C   UNL     1       0.938   3.539  20.439  0.00  0.00    +0.000 C 
ATOM      2  O   UNL     1       0.964   2.773  21.394  0.00  0.00    +0.000 OA
ENDROOT
BRANCH   1   5
ATOM      3  N   UNL     1       3.156   3.604  18.160  0.00  0.00    +0.000 N 
ATOM      4  C   UNL     1       1.780   4.042  18.105  0.00  0.00    +0.000 C 
ATOM      5  C   UNL     1       1.034   3.073  18.998  0.00  0.00    +0.000 C 
ATOM      6  C   UNL     1       1.818   1.786  18.858  0.00  0.00    +0.000 C 
ATOM      7  C   UNL     1       3.224   2.265  18.576  0.00  0.00    +0.000 C 
ATOM      8  O   UNL     1       4.193   1.535  18.694  0.00  0.00    +0.000 OA
BRANCH   3  12
ATOM      9  C   UNL     1       6.471   6.104  17.163  0.00  0.00    +0.000 A 
ATOM     10  C   UNL     1       5.654   5.569  16.166  0.00  0.00    +0.000 A 
ATOM     11  C   UNL     1       4.566   4.750  16.495  0.00  0.00    +0.000 A 
ATOM     12  C   UNL     1       4.252   4.449  17.825  0.00  0.00    +0.000 A 
ATOM     13  C   UNL     1       5.073   5.004  18.820  0.00  0.00    +0.000 A 
ATOM     14  C   UNL     1       6.168   5.817  18.495  0.00  0.00    +0.000 A 
BRANCH   9  16
ATOM     15  C   UNL     1       7.946   7.991  17.909  0.00  0.00    +0.000 C 
ATOM     16  C   UNL     1       7.632   6.992  16.804  0.00  0.00    +0.000 C 
ENDBRANCH   9  16
ENDBRANCH   3  12
ENDBRANCH   1   5
BRANCH   1  17
ATOM     17  O   UNL     1       0.802   4.887  20.551  0.00  0.00    +0.000 OA
BRANCH  17  18
ATOM     18  C   UNL     1       2.010   5.587  20.888  0.00  0.00    +0.000 C 
BRANCH  18  19
ATOM     19  C   UNL     1       1.951   6.996  20.283  0.00  0.00    +0.000 C 
ATOM     20  O   UNL     1       2.664   7.296  19.326  0.00  0.00    +0.000 OA
ATOM     21  N   UNL     1       1.080   7.870  20.914  0.00  0.00    +0.000 N 
ATOM     22  H   UNL     1       0.681   7.584  21.800  0.00  0.00    +0.000 HD
BRANCH  21  23
ATOM     23  C   UNL     1       0.819   9.196  20.490  0.00  0.00    +0.000 A 
ATOM     24  C   UNL     1       0.533   9.524  19.158  0.00  0.00    +0.000 A 
ATOM     25  C   UNL     1       0.300  10.845  18.769  0.00  0.00    +0.000 A 
ATOM     26  C   UNL     1       0.343  11.859  19.725  0.00  0.00    +0.000 A 
ATOM     27  C   UNL     1       0.610  11.553  21.067  0.00  0.00    +0.000 A 
ATOM     28  C   UNL     1       0.839  10.220  21.445  0.00  0.00    +0.000 A 
BRANCH  26  29
ATOM     29  N   UNL     1       0.096  13.246  19.315  0.00  0.00    +0.000 N 
ATOM     30  O   UNL     1      -1.042  13.706  19.486  0.00  0.00    +0.000 OA
ATOM     31  O   UNL     1       1.043  13.877  18.820  0.00  0.00    +0.000 OA
ENDBRANCH  26  29
ENDBRANCH  21  23
ENDBRANCH  18  19
ENDBRANCH  17  18
ENDBRANCH   1  17
TORSDOF 8
ENDMDL
MODEL 5
REMARK VINA RESULT:      -8.0      4.613      7.851
REMARK  Name = 
REMARK  9 active torsions:
REMARK  status: ('A' for Active; 'I' for Inactive)
REMARK    1  A    between atoms: C_1  and  C_2
REMARK    2  A    between atoms: C_2  and  C_3
REMARK    3  A    between atoms: C_6  and  N_7
REMARK    4  A    between atoms: C_9  and  C_10
REMARK    5  A    between atoms: C_10  and  O_12
REMARK    6  A    between atoms: O_12  and  C_13
REMARK    7  A    between atoms: C_13  and  C_14
REMARK    8  A    between atoms: N_16  and  C_17
REMARK    9  A    between atoms: C_20  and  N_21
REMARK                            x       y       z     vdW  Elec       q    Type
REMARK                         _______ _______ _______ _____ _____    ______ ____
ROOT
ATOM      1  C   UNL     1       5.487   4.827  18.887  0.00  0.00    +0.000 C 
ATOM      2  O   UNL     1       5.524   3.607  18.795  0.00  0.00    +0.000 OA
ENDROOT
BRANCH   1   5
ATOM      3  N   UNL     1       6.422   5.481  15.918  0.00  0.00    +0.000 N 
ATOM      4  C   UNL     1       7.220   5.108  17.063  0.00  0.00    +0.000 C 
ATOM      5  C   UNL     1       6.515   5.740  18.244  0.00  0.00    +0.000 C 
ATOM      6  C   UNL     1       5.892   6.989  17.659  0.00  0.00    +0.000 C 
ATOM      7  C   UNL     1       5.639   6.607  16.218  0.00  0.00    +0.000 C 
ATOM      8  O   UNL     1       4.884   7.243  15.502  0.00  0.00    +0.000 OA
BRANCH   3  12
ATOM      9  C   UNL     1       6.580   3.347  12.223  0.00  0.00    +0.000 A 
ATOM     10  C   UNL     1       5.606   3.052  13.178  0.00  0.00    +0.000 A 
ATOM     11  C   UNL     1       5.555   3.753  14.389  0.00  0.00    +0.000 A 
ATOM     12  C   UNL     1       6.463   4.777  14.681  0.00  0.00    +0.000 A 
ATOM     13  C   UNL     1       7.430   5.074  13.707  0.00  0.00    +0.000 A 
ATOM     14  C   UNL     1       7.491   4.368  12.497  0.00  0.00    +0.000 A 
BRANCH   9  16
ATOM     15  C   UNL     1       6.468   1.096  11.121  0.00  0.00    +0.000 C 
ATOM     16  C   UNL     1       6.624   2.597  10.919  0.00  0.00    +0.000 C 
ENDBRANCH   9  16
ENDBRANCH   3  12
ENDBRANCH   1   5
BRANCH   1  17
ATOM     17  O   UNL     1       4.517   5.508  19.554  0.00  0.00    +0.000 OA
BRANCH  17  18
ATOM     18  C   UNL     1       3.284   4.791  19.719  0.00  0.00    +0.000 C 
BRANCH  18  19
ATOM     19  C   UNL     1       2.196   5.772  20.173  0.00  0.00    +0.000 C 
ATOM     20  O   UNL     1       1.125   5.358  20.617  0.00  0.00    +0.000 OA
ATOM     21  N   UNL     1       2.510   7.112  20.011  0.00  0.00    +0.000 N 
ATOM     22  H   UNL     1       3.335   7.344  19.470  0.00  0.00    +0.000 HD
BRANCH  21  23
ATOM     23  C   UNL     1       1.685   8.190  20.417  0.00  0.00    +0.000 A 
ATOM     24  C   UNL     1       1.185   9.143  19.520  0.00  0.00    +0.000 A 
ATOM     25  C   UNL     1       0.391  10.206  19.956  0.00  0.00    +0.000 A 
ATOM     26  C   UNL     1       0.078  10.317  21.310  0.00  0.00    +0.000 A 
ATOM     27  C   UNL     1       0.553   9.366  22.224  0.00  0.00    +0.000 A 
ATOM     28  C   UNL     1       1.348   8.301  21.772  0.00  0.00    +0.000 A 
BRANCH  26  29
ATOM     29  N   UNL     1      -0.758  11.434  21.766  0.00  0.00    +0.000 N 
ATOM     30  O   UNL     1      -0.433  12.009  22.815  0.00  0.00    +0.000 OA
ATOM     31  O   UNL     1      -1.741  11.737  21.073  0.00  0.00    +0.000 OA
ENDBRANCH  26  29
ENDBRANCH  21  23
ENDBRANCH  18  19
ENDBRANCH  17  18
ENDBRANCH   1  17
TORSDOF 8
ENDMDL
MODEL 6
REMARK VINA RESULT:      -8.0      1.362      1.841
REMARK  Name = 
REMARK  9 active torsions:
REMARK  status: ('A' for Active; 'I' for Inactive)
REMARK    1  A    between atoms: C_1  and  C_2
REMARK    2  A    between atoms: C_2  and  C_3
REMARK    3  A    between atoms: C_6  and  N_7
REMARK    4  A    between atoms: C_9  and  C_10
REMARK    5  A    between atoms: C_10  and  O_12
REMARK    6  A    between atoms: O_12  and  C_13
REMARK    7  A    between atoms: C_13  and  C_14
REMARK    8  A    between atoms: N_16  and  C_17
REMARK    9  A    between atoms: C_20  and  N_21
REMARK                            x       y       z     vdW  Elec       q    Type
REMARK                         _______ _______ _______ _____ _____    ______ ____
ROOT
ATOM      1  C   UNL     1       7.018   5.828  16.490  0.00  0.00    +0.000 C 
ATOM      2  O   UNL     1       7.395   5.682  15.334  0.00  0.00    +0.000 OA
ENDROOT
BRANCH   1   5
ATOM      3  N   UNL     1       4.499   5.076  18.280  0.00  0.00    +0.000 N 
ATOM      4  C   UNL     1       5.897   5.105  18.643  0.00  0.00    +0.000 C 
ATOM      5  C   UNL     1       6.626   4.669  17.389  0.00  0.00    +0.000 C 
ATOM      6  C   UNL     1       5.651   3.724  16.721  0.00  0.00    +0.000 C 
ATOM      7  C   UNL     1       4.303   4.249  17.163  0.00  0.00    +0.000 C 
ATOM      8  O   UNL     1       3.268   3.933  16.600  0.00  0.00    +0.000 OA
BRANCH   3  12
ATOM      9  C   UNL     1       1.527   7.246  20.447  0.00  0.00    +0.000 A 
ATOM     10  C   UNL     1       2.203   7.833  19.376  0.00  0.00    +0.000 A 
ATOM     11  C   UNL     1       3.177   7.120  18.666  0.00  0.00    +0.000 A 
ATOM     12  C   UNL     1       3.499   5.797  18.991  0.00  0.00    +0.000 A 
ATOM     13  C   UNL     1       2.802   5.213  20.062  0.00  0.00    +0.000 A 
ATOM     14  C   UNL     1       1.833   5.926  20.781  0.00  0.00    +0.000 A 
BRANCH   9  16
ATOM     15  C   UNL     1       1.076   9.136  22.033  0.00  0.00    +0.000 C 
ATOM     16  C   UNL     1       0.474   8.014  21.199  0.00  0.00    +0.000 C 
ENDBRANCH   9  16
ENDBRANCH   3  12
ENDBRANCH   1   5
BRANCH   1  17
ATOM     17  O   UNL     1       6.924   7.034  17.111  0.00  0.00    +0.000 OA
BRANCH  17  18
ATOM     18  C   UNL     1       7.915   7.268  18.124  0.00  0.00    +0.000 C 
BRANCH  18  19
ATOM     19  C   UNL     1       8.163   8.777  18.236  0.00  0.00    +0.000 C 
ATOM     20  O   UNL     1       7.506   9.571  17.563  0.00  0.00    +0.000 OA
ATOM     21  N   UNL     1       9.178   9.142  19.107  0.00  0.00    +0.000 N 
ATOM     22  H   UNL     1       9.777   8.409  19.469  0.00  0.00    +0.000 HD
BRANCH  21  23
ATOM     23  C   UNL     1       9.537  10.477  19.414  0.00  0.00    +0.000 A 
ATOM     24  C   UNL     1       9.301  11.057  20.667  0.00  0.00    +0.000 A 
ATOM     25  C   UNL     1       9.649  12.383  20.931  0.00  0.00    +0.000 A 
ATOM     26  C   UNL     1      10.255  13.145  19.932  0.00  0.00    +0.000 A 
ATOM     27  C   UNL     1      10.517  12.581  18.677  0.00  0.00    +0.000 A 
ATOM     28  C   UNL     1      10.164  11.246  18.425  0.00  0.00    +0.000 A 
BRANCH  26  29
ATOM     29  N   UNL     1      10.621  14.538  20.213  0.00  0.00    +0.000 N 
ATOM     30  O   UNL     1      10.639  14.904  21.398  0.00  0.00    +0.000 OA
ATOM     31  O   UNL     1      10.894  15.268  19.248  0.00  0.00    +0.000 OA
ENDBRANCH  26  29
ENDBRANCH  21  23
ENDBRANCH  18  19
ENDBRANCH  17  18
ENDBRANCH   1  17
TORSDOF 8
ENDMDL
MODEL 7
REMARK VINA RESULT:      -8.0      4.403      7.769
REMARK  Name = 
REMARK  9 active torsions:
REMARK  status: ('A' for Active; 'I' for Inactive)
REMARK    1  A    between atoms: C_1  and  C_2
REMARK    2  A    between atoms: C_2  and  C_3
REMARK    3  A    between atoms: C_6  and  N_7
REMARK    4  A    between atoms: C_9  and  C_10
REMARK    5  A    between atoms: C_10  and  O_12
REMARK    6  A    between atoms: O_12  and  C_13
REMARK    7  A    between atoms: C_13  and  C_14
REMARK    8  A    between atoms: N_16  and  C_17
REMARK    9  A    between atoms: C_20  and  N_21
REMARK                            x       y       z     vdW  Elec       q    Type
REMARK                         _______ _______ _______ _____ _____    ______ ____
ROOT
ATOM      1  C   UNL     1       5.656   4.795  19.259  0.00  0.00    +0.000 C 
ATOM      2  O   UNL     1       5.582   3.594  19.490  0.00  0.00    +0.000 OA
ENDROOT
BRANCH   1   5
ATOM      3  N   UNL     1       6.587   5.302  16.261  0.00  0.00    +0.000 N 
ATOM      4  C   UNL     1       7.315   4.693  17.349  0.00  0.00    +0.000 C 
ATOM      5  C   UNL     1       6.853   5.438  18.584  0.00  0.00    +0.000 C 
ATOM      6  C   UNL     1       6.547   6.827  18.066  0.00  0.00    +0.000 C 
ATOM      7  C   UNL     1       6.136   6.579  16.632  0.00  0.00    +0.000 C 
ATOM      8  O   UNL     1       5.537   7.414  15.976  0.00  0.00    +0.000 OA
BRANCH   3  12
ATOM      9  C   UNL     1       5.959   3.407  12.486  0.00  0.00    +0.000 A 
ATOM     10  C   UNL     1       7.112   4.155  12.728  0.00  0.00    +0.000 A 
ATOM     11  C   UNL     1       7.317   4.776  13.967  0.00  0.00    +0.000 A 
ATOM     12  C   UNL     1       6.387   4.660  15.006  0.00  0.00    +0.000 A 
ATOM     13  C   UNL     1       5.238   3.893  14.756  0.00  0.00    +0.000 A 
ATOM     14  C   UNL     1       5.024   3.278  13.514  0.00  0.00    +0.000 A 
BRANCH   9  16
ATOM     15  C   UNL     1       6.212   1.284  11.175  0.00  0.00    +0.000 C 
ATOM     16  C   UNL     1       5.749   2.733  11.157  0.00  0.00    +0.000 C 
ENDBRANCH   9  16
ENDBRANCH   3  12
ENDBRANCH   1   5
BRANCH   1  17
ATOM     17  O   UNL     1       4.675   5.687  19.560  0.00  0.00    +0.000 OA
BRANCH  17  18
ATOM     18  C   UNL     1       3.362   5.309  19.115  0.00  0.00    +0.000 C 
BRANCH  18  19
ATOM     19  C   UNL     1       2.322   6.144  19.872  0.00  0.00    +0.000 C 
ATOM     20  O   UNL     1       1.511   5.602  20.623  0.00  0.00    +0.000 OA
ATOM     21  N   UNL     1       2.362   7.505  19.614  0.00  0.00    +0.000 N 
ATOM     22  H   UNL     1       2.941   7.825  18.846  0.00  0.00    +0.000 HD
BRANCH  21  23
ATOM     23  C   UNL     1       1.540   8.471  20.246  0.00  0.00    +0.000 A 
ATOM     24  C   UNL     1       1.260   8.448  21.619  0.00  0.00    +0.000 A 
ATOM     25  C   UNL     1       0.429   9.404  22.207  0.00  0.00    +0.000 A 
ATOM     26  C   UNL     1      -0.127  10.409  21.416  0.00  0.00    +0.000 A 
ATOM     27  C   UNL     1       0.153  10.462  20.044  0.00  0.00    +0.000 A 
ATOM     28  C   UNL     1       0.993   9.497  19.466  0.00  0.00    +0.000 A 
BRANCH  26  29
ATOM     29  N   UNL     1      -0.998  11.413  22.037  0.00  0.00    +0.000 N 
ATOM     30  O   UNL     1      -0.888  11.599  23.258  0.00  0.00    +0.000 OA
ATOM     31  O   UNL     1      -1.793  12.019  21.303  0.00  0.00    +0.000 OA
ENDBRANCH  26  29
ENDBRANCH  21  23
ENDBRANCH  18  19
ENDBRANCH  17  18
ENDBRANCH   1  17
TORSDOF 8
ENDMDL
MODEL 8
REMARK VINA RESULT:      -8.0      4.413      7.749
REMARK  Name = 
REMARK  9 active torsions:
REMARK  status: ('A' for Active; 'I' for Inactive)
REMARK    1  A    between atoms: C_1  and  C_2
REMARK    2  A    between atoms: C_2  and  C_3
REMARK    3  A    between atoms: C_6  and  N_7
REMARK    4  A    between atoms: C_9  and  C_10
REMARK    5  A    between atoms: C_10  and  O_12
REMARK    6  A    between atoms: O_12  and  C_13
REMARK    7  A    between atoms: C_13  and  C_14
REMARK    8  A    between atoms: N_16  and  C_17
REMARK    9  A    between atoms: C_20  and  N_21
REMARK                            x       y       z     vdW  Elec       q    Type
REMARK                         _______ _______ _______ _____ _____    ______ ____
ROOT
ATOM      1  C   UNL     1       5.666   4.757  19.174  0.00  0.00    +0.000 C 
ATOM      2  O   UNL     1       5.554   3.556  19.384  0.00  0.00    +0.000 OA
ENDROOT
BRANCH   1   5
ATOM      3  N   UNL     1       6.613   5.261  16.180  0.00  0.00    +0.000 N 
ATOM      4  C   UNL     1       7.324   4.624  17.265  0.00  0.00    +0.000 C 
ATOM      5  C   UNL     1       6.880   5.374  18.504  0.00  0.00    +0.000 C 
ATOM      6  C   UNL     1       6.611   6.773  17.996  0.00  0.00    +0.000 C 
ATOM      7  C   UNL     1       6.196   6.546  16.560  0.00  0.00    +0.000 C 
ATOM      8  O   UNL     1       5.620   7.402  15.909  0.00  0.00    +0.000 OA
BRANCH   3  12
ATOM      9  C   UNL     1       5.992   3.343  12.415  0.00  0.00    +0.000 A 
ATOM     10  C   UNL     1       5.009   3.309  13.406  0.00  0.00    +0.000 A 
ATOM     11  C   UNL     1       5.215   3.939  14.640  0.00  0.00    +0.000 A 
ATOM     12  C   UNL     1       6.397   4.633  14.921  0.00  0.00    +0.000 A 
ATOM     13  C   UNL     1       7.373   4.672  13.911  0.00  0.00    +0.000 A 
ATOM     14  C   UNL     1       7.175   4.035  12.678  0.00  0.00    +0.000 A 
BRANCH   9  16
ATOM     15  C   UNL     1       6.574   1.394  10.948  0.00  0.00    +0.000 C 
ATOM     16  C   UNL     1       5.762   2.674  11.087  0.00  0.00    +0.000 C 
ENDBRANCH   9  16
ENDBRANCH   3  12
ENDBRANCH   1   5
BRANCH   1  17
ATOM     17  O   UNL     1       4.716   5.675  19.496  0.00  0.00    +0.000 OA
BRANCH  17  18
ATOM     18  C   UNL     1       3.378   5.312  19.122  0.00  0.00    +0.000 C 
BRANCH  18  19
ATOM     19  C   UNL     1       2.389   6.161  19.930  0.00  0.00    +0.000 C 
ATOM     20  O   UNL     1       1.712   5.654  20.824  0.00  0.00    +0.000 OA
ATOM     21  N   UNL     1       2.310   7.491  19.549  0.00  0.00    +0.000 N 
ATOM     22  H   UNL     1       2.768   7.766  18.688  0.00  0.00    +0.000 HD
BRANCH  21  23
ATOM     23  C   UNL     1       1.514   8.470  20.193  0.00  0.00    +0.000 A 
ATOM     24  C   UNL     1       1.254   8.452  21.570  0.00  0.00    +0.000 A 
ATOM     25  C   UNL     1       0.448   9.420  22.171  0.00  0.00    +0.000 A 
ATOM     26  C   UNL     1      -0.105  10.434  21.388  0.00  0.00    +0.000 A 
ATOM     27  C   UNL     1       0.155  10.483  20.012  0.00  0.00    +0.000 A 
ATOM     28  C   UNL     1       0.970   9.504  19.421  0.00  0.00    +0.000 A 
BRANCH  26  29
ATOM     29  N   UNL     1      -0.950  11.452  22.022  0.00  0.00    +0.000 N 
ATOM     30  O   UNL     1      -1.956  11.834  21.405  0.00  0.00    +0.000 OA
ATOM     31  O   UNL     1      -0.610  11.869  23.140  0.00  0.00    +0.000 OA
ENDBRANCH  26  29
ENDBRANCH  21  23
ENDBRANCH  18  19
ENDBRANCH  17  18
ENDBRANCH   1  17
TORSDOF 8
ENDMDL
MODEL 9
REMARK VINA RESULT:      -8.0      6.038     10.134
REMARK  Name = 
REMARK  9 active torsions:
REMARK  status: ('A' for Active; 'I' for Inactive)
REMARK    1  A    between atoms: C_1  and  C_2
REMARK    2  A    between atoms: C_2  and  C_3
REMARK    3  A    between atoms: C_6  and  N_7
REMARK    4  A    between atoms: C_9  and  C_10
REMARK    5  A    between atoms: C_10  and  O_12
REMARK    6  A    between atoms: O_12  and  C_13
REMARK    7  A    between atoms: C_13  and  C_14
REMARK    8  A    between atoms: N_16  and  C_17
REMARK    9  A    between atoms: C_20  and  N_21
REMARK                            x       y       z     vdW  Elec       q    Type
REMARK                         _______ _______ _______ _____ _____    ______ ____
ROOT
ATOM      1  C   UNL     1      -0.451  11.174  22.230  0.00  0.00    +0.000 C 
ATOM      2  O   UNL     1      -0.716  10.855  23.382  0.00  0.00    +0.000 OA
ENDROOT
BRANCH   1   5
ATOM      3  N   UNL     1      -2.258  12.223  19.832  0.00  0.00    +0.000 N 
ATOM      4  C   UNL     1      -0.876  12.523  20.129  0.00  0.00    +0.000 C 
ATOM      5  C   UNL     1      -0.804  12.529  21.642  0.00  0.00    +0.000 C 
ATOM      6  C   UNL     1      -2.178  13.001  22.062  0.00  0.00    +0.000 C 
ATOM      7  C   UNL     1      -3.069  12.517  20.940  0.00  0.00    +0.000 C 
ATOM      8  O   UNL     1      -4.280  12.448  21.058  0.00  0.00    +0.000 OA
BRANCH   3  12
ATOM      9  C   UNL     1      -3.547  10.644  16.080  0.00  0.00    +0.000 A 
ATOM     10  C   UNL     1      -4.408  11.411  16.867  0.00  0.00    +0.000 A 
ATOM     11  C   UNL     1      -3.983  11.928  18.097  0.00  0.00    +0.000 A 
ATOM     12  C   UNL     1      -2.686  11.710  18.575  0.00  0.00    +0.000 A 
ATOM     13  C   UNL     1      -1.825  10.949  17.768  0.00  0.00    +0.000 A 
ATOM     14  C   UNL     1      -2.249  10.421  16.540  0.00  0.00    +0.000 A 
BRANCH   9  16
ATOM     15  C   UNL     1      -2.836   9.787  13.833  0.00  0.00    +0.000 C 
ATOM     16  C   UNL     1      -4.006  10.099  14.754  0.00  0.00    +0.000 C 
ENDBRANCH   9  16
ENDBRANCH   3  12
ENDBRANCH   1   5
BRANCH   1  17
ATOM     17  O   UNL     1       0.202  10.369  21.350  0.00  0.00    +0.000 OA
BRANCH  17  18
ATOM     18  C   UNL     1       0.851   9.233  21.943  0.00  0.00    +0.000 C 
BRANCH  18  19
ATOM     19  C   UNL     1       1.319   8.291  20.827  0.00  0.00    +0.000 C 
ATOM     20  O   UNL     1       1.484   8.711  19.681  0.00  0.00    +0.000 OA
ATOM     21  N   UNL     1       1.499   6.971  21.209  0.00  0.00    +0.000 N 
ATOM     22  H   UNL     1       1.161   6.692  22.123  0.00  0.00    +0.000 HD
BRANCH  21  23
ATOM     23  C   UNL     1       1.985   5.945  20.363  0.00  0.00    +0.000 A 
ATOM     24  C   UNL     1       1.440   4.654  20.346  0.00  0.00    +0.000 A 
ATOM     25  C   UNL     1       1.955   3.657  19.515  0.00  0.00    +0.000 A 
ATOM     26  C   UNL     1       3.029   3.953  18.675  0.00  0.00    +0.000 A 
ATOM     27  C   UNL     1       3.580   5.242  18.662  0.00  0.00    +0.000 A 
ATOM     28  C   UNL     1       3.050   6.235  19.501  0.00  0.00    +0.000 A 
BRANCH  26  29
ATOM     29  N   UNL     1       3.568   2.905  17.801  0.00  0.00    +0.000 N 
ATOM     30  O   UNL     1       4.474   3.218  17.014  0.00  0.00    +0.000 OA
ATOM     31  O   UNL     1       3.086   1.767  17.902  0.00  0.00    +0.000 OA
ENDBRANCH  26  29
ENDBRANCH  21  23
ENDBRANCH  18  19
ENDBRANCH  17  18
ENDBRANCH   1  17
TORSDOF 8
ENDMDL
