MODEL 1
REMARK VINA RESULT:      -7.7      0.000      0.000
REMARK  Name = 
REMARK  10 active torsions:
REMARK  status: ('A' for Active; 'I' for Inactive)
REMARK    1  A    between atoms: C_2  and  C_3
REMARK    2  A    between atoms: C_4  and  C_5
REMARK    3  A    between atoms: C_5  and  O_6
REMARK    4  A    between atoms: O_6  and  C_7
REMARK    5  A    between atoms: C_10  and  S_11
REMARK    6  A    between atoms: S_11  and  N_14
REMARK    7  A    between atoms: C_18  and  C_19
REMARK    8  A    between atoms: C_18  and  C_20
REMARK    9  A    between atoms: C_21  and  C_22
REMARK   10  A    between atoms: N_24  and  O_25
REMARK                            x       y       z     vdW  Elec       q    Type
REMARK                         _______ _______ _______ _____ _____    ______ ____
ROOT
ATOM      1  S   UNL     1       2.896   5.834  18.395  0.00  0.00    +0.000 S 
ATOM      2  O   UNL     1       1.777   5.355  17.614  0.00  0.00    +0.000 OA
ATOM      3  O   UNL     1       4.202   6.033  17.802  0.00  0.00    +0.000 OA
ENDROOT
BRANCH   1   4
ATOM      4  N   UNL     1       3.105   4.778  19.752  0.00  0.00    +0.000 NA
ATOM      5  C   UNL     1       1.876   4.560  20.548  0.00  0.00    +0.000 C 
ATOM      6  C   UNL     1       0.836   3.707  19.835  0.00  0.00    +0.000 C 
ATOM      7  S   UNL     1       1.298   2.370  18.654  0.00  0.00    +0.000 S 
ATOM      8  C   UNL     1       3.140   2.520  18.393  0.00  0.00    +0.000 C 
ATOM      9  C   UNL     1       3.563   1.016  18.378  0.00  0.00    +0.000 C 
ATOM     10  C   UNL     1       3.563   2.943  16.961  0.00  0.00    +0.000 C 
ATOM     11  C   UNL     1       3.845   3.420  19.474  0.00  0.00    +0.000 C 
BRANCH  11  12
ATOM     12  C   UNL     1       4.155   2.560  20.750  0.00  0.00    +0.000 C 
ATOM     13  O   UNL     1       3.371   2.349  21.678  0.00  0.00    +0.000 OA
ATOM     14  N   UNL     1       5.384   1.935  20.777  0.00  0.00    +0.000 N 
ATOM     15  H   UNL     1       6.094   1.959  20.054  0.00  0.00    +0.000 HD
BRANCH  14  16
ATOM     16  O   UNL     1       5.588   0.996  21.818  0.00  0.00    +0.000 OA
ATOM     17  H   UNL     1       5.745   0.156  21.331  0.00  0.00    +0.000 HD
ENDBRANCH  14  16
ENDBRANCH  11  12
ENDBRANCH   1   4
BRANCH   1  21
ATOM     18  C   UNL     1       1.056   9.818  19.867  0.00  0.00    +0.000 A 
ATOM     19  C   UNL     1       1.531   9.722  18.556  0.00  0.00    +0.000 A 
ATOM     20  C   UNL     1       2.154   8.532  18.103  0.00  0.00    +0.000 A 
ATOM     21  C   UNL     1       2.311   7.448  18.974  0.00  0.00    +0.000 A 
ATOM     22  C   UNL     1       1.754   7.527  20.261  0.00  0.00    +0.000 A 
ATOM     23  C   UNL     1       1.159   8.711  20.709  0.00  0.00    +0.000 A 
BRANCH  18  24
ATOM     24  O   UNL     1       0.599  10.951  20.476  0.00  0.00    +0.000 OA
BRANCH  24  25
ATOM     25  C   UNL     1      -0.811  11.178  20.564  0.00  0.00    +0.000 C 
BRANCH  25  27
ATOM     26  C   UNL     1      -1.889  10.603  18.017  0.00  0.00    +0.000 C 
ATOM     27  C   UNL     1      -1.391  10.868  19.193  0.00  0.00    +0.000 C 
BRANCH  26  29
ATOM     28  C   UNL     1      -2.878  10.040  15.527  0.00  0.00    +0.000 C 
ATOM     29  C   UNL     1      -2.450  10.287  16.618  0.00  0.00    +0.000 C 
ENDBRANCH  26  29
ENDBRANCH  25  27
ENDBRANCH  24  25
ENDBRANCH  18  24
ENDBRANCH   1  21
TORSDOF 8
ENDMDL
MODEL 2
REMARK VINA RESULT:      -7.6      1.566      2.610
REMARK  Name = 
REMARK  10 active torsions:
REMARK  status: ('A' for Active; 'I' for Inactive)
REMARK    1  A    between atoms: C_2  and  C_3
REMARK    2  A    between atoms: C_4  and  C_5
REMARK    3  A    between atoms: C_5  and  O_6
REMARK    4  A    between atoms: O_6  and  C_7
REMARK    5  A    between atoms: C_10  and  S_11
REMARK    6  A    between atoms: S_11  and  N_14
REMARK    7  A    between atoms: C_18  and  C_19
REMARK    8  A    between atoms: C_18  and  C_20
REMARK    9  A    between atoms: C_21  and  C_22
REMARK   10  A    between atoms: N_24  and  O_25
REMARK                            x       y       z     vdW  Elec       q    Type
REMARK                         _______ _______ _______ _____ _____    ______ ____
ROOT
ATOM      1  S   UNL     1       2.791   6.026  18.664  0.00  0.00    +0.000 S 
ATOM      2  O   UNL     1       1.684   5.596  17.839  0.00  0.00    +0.000 OA
ATOM      3  O   UNL     1       4.100   6.281  18.100  0.00  0.00    +0.000 OA
ENDROOT
BRANCH   1   4
ATOM      4  N   UNL     1       2.999   4.872  19.940  0.00  0.00    +0.000 NA
ATOM      5  C   UNL     1       1.762   4.571  20.695  0.00  0.00    +0.000 C 
ATOM      6  C   UNL     1       0.751   3.755  19.900  0.00  0.00    +0.000 C 
ATOM      7  S   UNL     1       1.260   2.522  18.628  0.00  0.00    +0.000 S 
ATOM      8  C   UNL     1       3.102   2.727  18.413  0.00  0.00    +0.000 C 
ATOM      9  C   UNL     1       3.557   1.237  18.290  0.00  0.00    +0.000 C 
ATOM     10  C   UNL     1       3.540   3.267  17.025  0.00  0.00    +0.000 C 
ATOM     11  C   UNL     1       3.772   3.554  19.572  0.00  0.00    +0.000 C 
BRANCH  11  12
ATOM     12  C   UNL     1       4.078   2.604  20.784  0.00  0.00    +0.000 C 
ATOM     13  O   UNL     1       3.280   2.300  21.673  0.00  0.00    +0.000 OA
ATOM     14  N   UNL     1       5.323   2.012  20.791  0.00  0.00    +0.000 N 
ATOM     15  H   UNL     1       6.048   2.112  20.090  0.00  0.00    +0.000 HD
BRANCH  14  16
ATOM     16  O   UNL     1       5.531   0.999  21.760  0.00  0.00    +0.000 OA
ATOM     17  H   UNL     1       6.123   0.367  21.295  0.00  0.00    +0.000 HD
ENDBRANCH  14  16
ENDBRANCH  11  12
ENDBRANCH   1   4
BRANCH   1  21
ATOM     18  C   UNL     1       0.905   9.852  20.462  0.00  0.00    +0.000 A 
ATOM     19  C   UNL     1       1.236   9.819  19.104  0.00  0.00    +0.000 A 
ATOM     20  C   UNL     1       1.870   8.682  18.547  0.00  0.00    +0.000 A 
ATOM     21  C   UNL     1       2.184   7.586  19.359  0.00  0.00    +0.000 A 
ATOM     22  C   UNL     1       1.771   7.597  20.700  0.00  0.00    +0.000 A 
ATOM     23  C   UNL     1       1.163   8.730  21.251  0.00  0.00    +0.000 A 
BRANCH  18  24
ATOM     24  O   UNL     1       0.456  10.939  21.156  0.00  0.00    +0.000 OA
BRANCH  24  25
ATOM     25  C   UNL     1      -0.595  11.736  20.602  0.00  0.00    +0.000 C 
BRANCH  25  27
ATOM     26  C   UNL     1      -2.492  12.128  22.658  0.00  0.00    +0.000 C 
ATOM     27  C   UNL     1      -1.616  11.947  21.709  0.00  0.00    +0.000 C 
BRANCH  26  29
ATOM     28  C   UNL     1      -4.300  12.529  24.675  0.00  0.00    +0.000 C 
ATOM     29  C   UNL     1      -3.506  12.357  23.793  0.00  0.00    +0.000 C 
ENDBRANCH  26  29
ENDBRANCH  25  27
ENDBRANCH  24  25
ENDBRANCH  18  24
ENDBRANCH   1  21
TORSDOF 8
ENDMDL
MODEL 3
REMARK VINA RESULT:      -7.4      3.853      7.183
REMARK  Name = 
REMARK  10 active torsions:
REMARK  status: ('A' for Active; 'I' for Inactive)
REMARK    1  A    between atoms: C_2  and  C_3
REMARK    2  A    between atoms: C_4  and  C_5
REMARK    3  A    between atoms: C_5  and  O_6
REMARK    4  A    between atoms: O_6  and  C_7
REMARK    5  A    between atoms: C_10  and  S_11
REMARK    6  A    between atoms: S_11  and  N_14
REMARK    7  A    between atoms: C_18  and  C_19
REMARK    8  A    between atoms: C_18  and  C_20
REMARK    9  A    between atoms: C_21  and  C_22
REMARK   10  A    between atoms: N_24  and  O_25
REMARK                            x       y       z     vdW  Elec       q    Type
REMARK                         _______ _______ _______ _____ _____    ______ ____
ROOT
ATOM      1  S   UNL     1       5.323   4.559  18.876  0.00  0.00    +0.000 S 
ATOM      2  O   UNL     1       5.102   3.157  19.154  0.00  0.00    +0.000 OA
ATOM      3  O   UNL     1       6.362   5.310  19.550  0.00  0.00    +0.000 OA
ENDROOT
BRANCH   1   4
ATOM      4  N   UNL     1       3.833   5.406  19.128  0.00  0.00    +0.000 NA
ATOM      5  C   UNL     1       2.987   5.522  17.920  0.00  0.00    +0.000 C 
ATOM      6  C   UNL     1       2.356   4.204  17.492  0.00  0.00    +0.000 C 
ATOM      7  S   UNL     1       1.883   2.898  18.704  0.00  0.00    +0.000 S 
ATOM      8  C   UNL     1       2.562   3.449  20.353  0.00  0.00    +0.000 C 
ATOM      9  C   UNL     1       1.388   3.054  21.306  0.00  0.00    +0.000 C 
ATOM     10  C   UNL     1       3.696   2.554  20.922  0.00  0.00    +0.000 C 
ATOM     11  C   UNL     1       2.981   4.965  20.373  0.00  0.00    +0.000 C 
BRANCH  11  12
ATOM     12  C   UNL     1       1.719   5.854  20.662  0.00  0.00    +0.000 C 
ATOM     13  O   UNL     1       0.555   5.449  20.707  0.00  0.00    +0.000 OA
ATOM     14  N   UNL     1       1.965   7.176  20.964  0.00  0.00    +0.000 N 
ATOM     15  H   UNL     1       2.870   7.625  21.037  0.00  0.00    +0.000 HD
BRANCH  14  16
ATOM     16  O   UNL     1       0.858   7.930  21.427  0.00  0.00    +0.000 OA
ATOM     17  H   UNL     1       1.196   8.853  21.407  0.00  0.00    +0.000 HD
ENDBRANCH  14  16
ENDBRANCH  11  12
ENDBRANCH   1   4
BRANCH   1  21
ATOM     18  C   UNL     1       6.553   4.253  14.424  0.00  0.00    +0.000 A 
ATOM     19  C   UNL     1       7.055   5.297  15.207  0.00  0.00    +0.000 A 
ATOM     20  C   UNL     1       6.644   5.445  16.554  0.00  0.00    +0.000 A 
ATOM     21  C   UNL     1       5.718   4.553  17.107  0.00  0.00    +0.000 A 
ATOM     22  C   UNL     1       5.287   3.461  16.336  0.00  0.00    +0.000 A 
ATOM     23  C   UNL     1       5.680   3.331  15.001  0.00  0.00    +0.000 A 
BRANCH  18  24
ATOM     24  O   UNL     1       6.730   4.100  13.078  0.00  0.00    +0.000 OA
BRANCH  24  25
ATOM     25  C   UNL     1       6.181   2.950  12.428  0.00  0.00    +0.000 C 
BRANCH  25  27
ATOM     26  C   UNL     1       4.117   3.878  10.737  0.00  0.00    +0.000 C 
ATOM     27  C   UNL     1       5.070   3.449  11.518  0.00  0.00    +0.000 C 
BRANCH  26  29
ATOM     28  C   UNL     1       2.135   4.756   9.064  0.00  0.00    +0.000 C 
ATOM     29  C   UNL     1       3.006   4.372   9.793  0.00  0.00    +0.000 C 
ENDBRANCH  26  29
ENDBRANCH  25  27
ENDBRANCH  24  25
ENDBRANCH  18  24
ENDBRANCH   1  21
TORSDOF 8
ENDMDL
MODEL 4
REMARK VINA RESULT:      -7.3      3.002      3.983
REMARK  Name = 
REMARK  10 active torsions:
REMARK  status: ('A' for Active; 'I' for Inactive)
REMARK    1  A    between atoms: C_2  and  C_3
REMARK    2  A    between atoms: C_4  and  C_5
REMARK    3  A    between atoms: C_5  and  O_6
REMARK    4  A    between atoms: O_6  and  C_7
REMARK    5  A    between atoms: C_10  and  S_11
REMARK    6  A    between atoms: S_11  and  N_14
REMARK    7  A    between atoms: C_18  and  C_19
REMARK    8  A    between atoms: C_18  and  C_20
REMARK    9  A    between atoms: C_21  and  C_22
REMARK   10  A    between atoms: N_24  and  O_25
REMARK                            x       y       z     vdW  Elec       q    Type
REMARK                         _______ _______ _______ _____ _____    ______ ____
ROOT
ATOM      1  S   UNL     1       3.326   6.646  18.031  0.00  0.00    +0.000 S 
ATOM      2  O   UNL     1       2.428   5.667  17.458  0.00  0.00    +0.000 OA
ATOM      3  O   UNL     1       3.866   7.730  17.238  0.00  0.00    +0.000 OA
ENDROOT
BRANCH   1   4
ATOM      4  N   UNL     1       4.668   5.807  18.735  0.00  0.00    +0.000 NA
ATOM      5  C   UNL     1       4.333   4.472  19.277  0.00  0.00    +0.000 C 
ATOM      6  C   UNL     1       4.042   3.436  18.199  0.00  0.00    +0.000 C 
ATOM      7  S   UNL     1       4.861   3.473  16.548  0.00  0.00    +0.000 S 
ATOM      8  C   UNL     1       5.809   5.079  16.474  0.00  0.00    +0.000 C 
ATOM      9  C   UNL     1       7.125   4.618  15.769  0.00  0.00    +0.000 C 
ATOM     10  C   UNL     1       5.278   6.101  15.432  0.00  0.00    +0.000 C 
ATOM     11  C   UNL     1       5.987   5.757  17.882  0.00  0.00    +0.000 C 
BRANCH  11  12
ATOM     12  C   UNL     1       7.226   5.128  18.613  0.00  0.00    +0.000 C 
ATOM     13  O   UNL     1       7.993   4.293  18.129  0.00  0.00    +0.000 OA
ATOM     14  N   UNL     1       7.505   5.624  19.869  0.00  0.00    +0.000 N 
ATOM     15  H   UNL     1       7.008   6.359  20.357  0.00  0.00    +0.000 HD
BRANCH  14  16
ATOM     16  O   UNL     1       8.734   5.215  20.446  0.00  0.00    +0.000 OA
ATOM     17  H   UNL     1       9.208   6.066  20.580  0.00  0.00    +0.000 HD
ENDBRANCH  14  16
ENDBRANCH  11  12
ENDBRANCH   1   4
BRANCH   1  21
ATOM     18  C   UNL     1       0.469   8.335  21.258  0.00  0.00    +0.000 A 
ATOM     19  C   UNL     1       0.887   9.159  20.208  0.00  0.00    +0.000 A 
ATOM     20  C   UNL     1       1.809   8.682  19.244  0.00  0.00    +0.000 A 
ATOM     21  C   UNL     1       2.320   7.383  19.346  0.00  0.00    +0.000 A 
ATOM     22  C   UNL     1       1.829   6.539  20.355  0.00  0.00    +0.000 A 
ATOM     23  C   UNL     1       0.934   7.021  21.316  0.00  0.00    +0.000 A 
BRANCH  18  24
ATOM     24  O   UNL     1      -0.271   8.721  22.338  0.00  0.00    +0.000 OA
BRANCH  24  25
ATOM     25  C   UNL     1       0.127   9.878  23.081  0.00  0.00    +0.000 C 
BRANCH  25  27
ATOM     26  C   UNL     1      -2.096  11.619  23.128  0.00  0.00    +0.000 C 
ATOM     27  C   UNL     1      -1.070  10.815  23.107  0.00  0.00    +0.000 C 
BRANCH  26  29
ATOM     28  C   UNL     1      -4.243  13.317  23.226  0.00  0.00    +0.000 C 
ATOM     29  C   UNL     1      -3.301  12.577  23.182  0.00  0.00    +0.000 C 
ENDBRANCH  26  29
ENDBRANCH  25  27
ENDBRANCH  24  25
ENDBRANCH  18  24
ENDBRANCH   1  21
TORSDOF 8
ENDMDL
MODEL 5
REMARK VINA RESULT:      -7.2      1.683      1.998
REMARK  Name = 
REMARK  10 active torsions:
REMARK  status: ('A' for Active; 'I' for Inactive)
REMARK    1  A    between atoms: C_2  and  C_3
REMARK    2  A    between atoms: C_4  and  C_5
REMARK    3  A    between atoms: C_5  and  O_6
REMARK    4  A    between atoms: O_6  and  C_7
REMARK    5  A    between atoms: C_10  and  S_11
REMARK    6  A    between atoms: S_11  and  N_14
REMARK    7  A    between atoms: C_18  and  C_19
REMARK    8  A    between atoms: C_18  and  C_20
REMARK    9  A    between atoms: C_21  and  C_22
REMARK   10  A    between atoms: N_24  and  O_25
REMARK                            x       y       z     vdW  Elec       q    Type
REMARK                         _______ _______ _______ _____ _____    ______ ____
ROOT
ATOM      1  S   UNL     1       3.347   6.236  18.574  0.00  0.00    +0.000 S 
ATOM      2  O   UNL     1       3.455   6.111  17.137  0.00  0.00    +0.000 OA
ATOM      3  O   UNL     1       4.521   6.265  19.421  0.00  0.00    +0.000 OA
ENDROOT
BRANCH   1   4
ATOM      4  N   UNL     1       2.325   4.964  19.156  0.00  0.00    +0.000 NA
ATOM      5  C   UNL     1       1.475   4.343  18.116  0.00  0.00    +0.000 C 
ATOM      6  C   UNL     1       2.256   3.486  17.128  0.00  0.00    +0.000 C 
ATOM      7  S   UNL     1       3.775   2.561  17.610  0.00  0.00    +0.000 S 
ATOM      8  C   UNL     1       4.195   3.116  19.341  0.00  0.00    +0.000 C 
ATOM      9  C   UNL     1       4.629   1.764  19.993  0.00  0.00    +0.000 C 
ATOM     10  C   UNL     1       5.517   3.922  19.464  0.00  0.00    +0.000 C 
ATOM     11  C   UNL     1       3.012   3.871  20.052  0.00  0.00    +0.000 C 
BRANCH  11  12
ATOM     12  C   UNL     1       2.031   2.824  20.689  0.00  0.00    +0.000 C 
ATOM     13  O   UNL     1       1.495   1.888  20.090  0.00  0.00    +0.000 OA
ATOM     14  N   UNL     1       1.827   2.932  22.049  0.00  0.00    +0.000 N 
ATOM     15  H   UNL     1       2.257   3.601  22.676  0.00  0.00    +0.000 HD
BRANCH  14  16
ATOM     16  O   UNL     1       1.115   1.872  22.663  0.00  0.00    +0.000 OA
ATOM     17  H   UNL     1       0.228   2.267  22.824  0.00  0.00    +0.000 HD
ENDBRANCH  14  16
ENDBRANCH  11  12
ENDBRANCH   1   4
BRANCH   1  21
ATOM     18  C   UNL     1       0.856  10.108  19.052  0.00  0.00    +0.000 A 
ATOM     19  C   UNL     1       1.507   9.853  17.842  0.00  0.00    +0.000 A 
ATOM     20  C   UNL     1       2.324   8.706  17.694  0.00  0.00    +0.000 A 
ATOM     21  C   UNL     1       2.497   7.825  18.768  0.00  0.00    +0.000 A 
ATOM     22  C   UNL     1       1.772   8.048  19.949  0.00  0.00    +0.000 A 
ATOM     23  C   UNL     1       0.982   9.192  20.097  0.00  0.00    +0.000 A 
BRANCH  18  24
ATOM     24  O   UNL     1       0.188  11.253  19.381  0.00  0.00    +0.000 OA
BRANCH  24  25
ATOM     25  C   UNL     1      -1.237  11.219  19.506  0.00  0.00    +0.000 C 
BRANCH  25  27
ATOM     26  C   UNL     1      -2.264  10.608  16.946  0.00  0.00    +0.000 C 
ATOM     27  C   UNL     1      -1.790  10.891  18.128  0.00  0.00    +0.000 C 
BRANCH  26  29
ATOM     28  C   UNL     1      -3.229  10.051  14.444  0.00  0.00    +0.000 C 
ATOM     29  C   UNL     1      -2.810  10.298  15.540  0.00  0.00    +0.000 C 
ENDBRANCH  26  29
ENDBRANCH  25  27
ENDBRANCH  24  25
ENDBRANCH  18  24
ENDBRANCH   1  21
TORSDOF 8
ENDMDL
MODEL 6
REMARK VINA RESULT:      -7.2      2.907      3.903
REMARK  Name = 
REMARK  10 active torsions:
REMARK  status: ('A' for Active; 'I' for Inactive)
REMARK    1  A    between atoms: C_2  and  C_3
REMARK    2  A    between atoms: C_4  and  C_5
REMARK    3  A    between atoms: C_5  and  O_6
REMARK    4  A    between atoms: O_6  and  C_7
REMARK    5  A    between atoms: C_10  and  S_11
REMARK    6  A    between atoms: S_11  and  N_14
REMARK    7  A    between atoms: C_18  and  C_19
REMARK    8  A    between atoms: C_18  and  C_20
REMARK    9  A    between atoms: C_21  and  C_22
REMARK   10  A    between atoms: N_24  and  O_25
REMARK                            x       y       z     vdW  Elec       q    Type
REMARK                         _______ _______ _______ _____ _____    ______ ____
ROOT
ATOM      1  S   UNL     1       2.835   7.040  18.160  0.00  0.00    +0.000 S 
ATOM      2  O   UNL     1       1.836   6.131  17.643  0.00  0.00    +0.000 OA
ATOM      3  O   UNL     1       3.580   7.921  17.286  0.00  0.00    +0.000 OA
ENDROOT
BRANCH   1   4
ATOM      4  N   UNL     1       3.989   6.122  19.068  0.00  0.00    +0.000 NA
ATOM      5  C   UNL     1       3.458   4.858  19.626  0.00  0.00    +0.000 C 
ATOM      6  C   UNL     1       3.195   3.793  18.570  0.00  0.00    +0.000 C 
ATOM      7  S   UNL     1       4.208   3.653  17.036  0.00  0.00    +0.000 S 
ATOM      8  C   UNL     1       5.316   5.154  17.006  0.00  0.00    +0.000 C 
ATOM      9  C   UNL     1       6.654   4.529  16.496  0.00  0.00    +0.000 C 
ATOM     10  C   UNL     1       5.022   6.158  15.859  0.00  0.00    +0.000 C 
ATOM     11  C   UNL     1       5.390   5.896  18.392  0.00  0.00    +0.000 C 
BRANCH  11  12
ATOM     12  C   UNL     1       6.461   5.197  19.303  0.00  0.00    +0.000 C 
ATOM     13  O   UNL     1       6.407   4.032  19.706  0.00  0.00    +0.000 OA
ATOM     14  N   UNL     1       7.584   5.940  19.600  0.00  0.00    +0.000 N 
ATOM     15  H   UNL     1       7.794   6.877  19.277  0.00  0.00    +0.000 HD
BRANCH  14  16
ATOM     16  O   UNL     1       8.642   5.250  20.241  0.00  0.00    +0.000 OA
ATOM     17  H   UNL     1       9.160   5.976  20.655  0.00  0.00    +0.000 HD
ENDBRANCH  14  16
ENDBRANCH  11  12
ENDBRANCH   1   4
BRANCH   1  21
ATOM     18  C   UNL     1       0.669   9.931  21.055  0.00  0.00    +0.000 A 
ATOM     19  C   UNL     1       1.153   8.710  21.535  0.00  0.00    +0.000 A 
ATOM     20  C   UNL     1       1.764   7.784  20.654  0.00  0.00    +0.000 A 
ATOM     21  C   UNL     1       1.873   8.081  19.290  0.00  0.00    +0.000 A 
ATOM     22  C   UNL     1       1.461   9.344  18.837  0.00  0.00    +0.000 A 
ATOM     23  C   UNL     1       0.840  10.246  19.707  0.00  0.00    +0.000 A 
BRANCH  18  24
ATOM     24  O   UNL     1      -0.087  10.828  21.754  0.00  0.00    +0.000 OA
BRANCH  24  25
ATOM     25  C   UNL     1      -0.717  10.413  22.970  0.00  0.00    +0.000 C 
BRANCH  25  27
ATOM     26  C   UNL     1      -2.898  12.157  23.393  0.00  0.00    +0.000 C 
ATOM     27  C   UNL     1      -1.892  11.351  23.198  0.00  0.00    +0.000 C 
BRANCH  26  29
ATOM     28  C   UNL     1      -5.032  13.815  23.838  0.00  0.00    +0.000 C 
ATOM     29  C   UNL     1      -4.101  13.087  23.640  0.00  0.00    +0.000 C 
ENDBRANCH  26  29
ENDBRANCH  25  27
ENDBRANCH  24  25
ENDBRANCH  18  24
ENDBRANCH   1  21
TORSDOF 8
ENDMDL
MODEL 7
REMARK VINA RESULT:      -7.1      1.800      3.035
REMARK  Name = 
REMARK  10 active torsions:
REMARK  status: ('A' for Active; 'I' for Inactive)
REMARK    1  A    between atoms: C_2  and  C_3
REMARK    2  A    between atoms: C_4  and  C_5
REMARK    3  A    between atoms: C_5  and  O_6
REMARK    4  A    between atoms: O_6  and  C_7
REMARK    5  A    between atoms: C_10  and  S_11
REMARK    6  A    between atoms: S_11  and  N_14
REMARK    7  A    between atoms: C_18  and  C_19
REMARK    8  A    between atoms: C_18  and  C_20
REMARK    9  A    between atoms: C_21  and  C_22
REMARK   10  A    between atoms: N_24  and  O_25
REMARK                            x       y       z     vdW  Elec       q    Type
REMARK                         _______ _______ _______ _____ _____    ______ ____
ROOT
ATOM      1  S   UNL     1       2.812   6.097  18.768  0.00  0.00    +0.000 S 
ATOM      2  O   UNL     1       1.780   5.629  17.869  0.00  0.00    +0.000 OA
ATOM      3  O   UNL     1       4.122   6.477  18.282  0.00  0.00    +0.000 OA
ENDROOT
BRANCH   1   4
ATOM      4  N   UNL     1       3.049   4.898  19.995  0.00  0.00    +0.000 NA
ATOM      5  C   UNL     1       1.835   4.583  20.781  0.00  0.00    +0.000 C 
ATOM      6  C   UNL     1       0.789   3.806  19.993  0.00  0.00    +0.000 C 
ATOM      7  S   UNL     1       1.240   2.612  18.664  0.00  0.00    +0.000 S 
ATOM      8  C   UNL     1       3.077   2.805  18.394  0.00  0.00    +0.000 C 
ATOM      9  C   UNL     1       3.509   1.316  18.205  0.00  0.00    +0.000 C 
ATOM     10  C   UNL     1       3.474   3.389  17.011  0.00  0.00    +0.000 C 
ATOM     11  C   UNL     1       3.794   3.585  19.557  0.00  0.00    +0.000 C 
BRANCH  11  12
ATOM     12  C   UNL     1       4.130   2.591  20.724  0.00  0.00    +0.000 C 
ATOM     13  O   UNL     1       3.359   2.266  21.631  0.00  0.00    +0.000 OA
ATOM     14  N   UNL     1       5.367   1.984  20.668  0.00  0.00    +0.000 N 
ATOM     15  H   UNL     1       6.067   2.099  19.945  0.00  0.00    +0.000 HD
BRANCH  14  16
ATOM     16  O   UNL     1       5.594   0.936  21.594  0.00  0.00    +0.000 OA
ATOM     17  H   UNL     1       6.089   1.384  22.316  0.00  0.00    +0.000 HD
ENDBRANCH  14  16
ENDBRANCH  11  12
ENDBRANCH   1   4
BRANCH   1  21
ATOM     18  C   UNL     1       0.561   9.675  20.653  0.00  0.00    +0.000 A 
ATOM     19  C   UNL     1       0.949   9.735  19.311  0.00  0.00    +0.000 A 
ATOM     20  C   UNL     1       1.693   8.678  18.731  0.00  0.00    +0.000 A 
ATOM     21  C   UNL     1       2.057   7.570  19.505  0.00  0.00    +0.000 A 
ATOM     22  C   UNL     1       1.589   7.483  20.825  0.00  0.00    +0.000 A 
ATOM     23  C   UNL     1       0.872   8.538  21.399  0.00  0.00    +0.000 A 
BRANCH  18  24
ATOM     24  O   UNL     1      -0.000  10.689  21.374  0.00  0.00    +0.000 OA
BRANCH  24  25
ATOM     25  C   UNL     1       0.297  12.044  21.024  0.00  0.00    +0.000 C 
BRANCH  25  27
ATOM     26  C   UNL     1      -0.880  13.675  23.007  0.00  0.00    +0.000 C 
ATOM     27  C   UNL     1      -0.337  12.922  22.091  0.00  0.00    +0.000 C 
BRANCH  26  29
ATOM     28  C   UNL     1      -2.024  15.298  24.893  0.00  0.00    +0.000 C 
ATOM     29  C   UNL     1      -1.527  14.585  24.068  0.00  0.00    +0.000 C 
ENDBRANCH  26  29
ENDBRANCH  25  27
ENDBRANCH  24  25
ENDBRANCH  18  24
ENDBRANCH   1  21
TORSDOF 8
ENDMDL
MODEL 8
REMARK VINA RESULT:      -7.1      1.927      2.720
REMARK  Name = 
REMARK  10 active torsions:
REMARK  status: ('A' for Active; 'I' for Inactive)
REMARK    1  A    between atoms: C_2  and  C_3
REMARK    2  A    between atoms: C_4  and  C_5
REMARK    3  A    between atoms: C_5  and  O_6
REMARK    4  A    between atoms: O_6  and  C_7
REMARK    5  A    between atoms: C_10  and  S_11
REMARK    6  A    between atoms: S_11  and  N_14
REMARK    7  A    between atoms: C_18  and  C_19
REMARK    8  A    between atoms: C_18  and  C_20
REMARK    9  A    between atoms: C_21  and  C_22
REMARK   10  A    between atoms: N_24  and  O_25
REMARK                            x       y       z     vdW  Elec       q    Type
REMARK                         _______ _______ _______ _____ _____    ______ ____
ROOT
ATOM      1  S   UNL     1       2.897   5.896  18.526  0.00  0.00    +0.000 S 
ATOM      2  O   UNL     1       1.964   5.326  17.579  0.00  0.00    +0.000 OA
ATOM      3  O   UNL     1       4.233   6.289  18.129  0.00  0.00    +0.000 OA
ENDROOT
BRANCH   1   4
ATOM      4  N   UNL     1       3.060   4.800  19.857  0.00  0.00    +0.000 NA
ATOM      5  C   UNL     1       1.802   4.545  20.593  0.00  0.00    +0.000 C 
ATOM      6  C   UNL     1       0.802   3.704  19.810  0.00  0.00    +0.000 C 
ATOM      7  S   UNL     1       1.328   2.410  18.608  0.00  0.00    +0.000 S 
ATOM      8  C   UNL     1       3.178   2.586  18.431  0.00  0.00    +0.000 C 
ATOM      9  C   UNL     1       3.618   1.088  18.386  0.00  0.00    +0.000 C 
ATOM     10  C   UNL     1       3.656   3.059  17.031  0.00  0.00    +0.000 C 
ATOM     11  C   UNL     1       3.827   3.459  19.568  0.00  0.00    +0.000 C 
BRANCH  11  12
ATOM     12  C   UNL     1       4.092   2.561  20.829  0.00  0.00    +0.000 C 
ATOM     13  O   UNL     1       3.270   2.308  21.713  0.00  0.00    +0.000 OA
ATOM     14  N   UNL     1       5.328   1.953  20.891  0.00  0.00    +0.000 N 
ATOM     15  H   UNL     1       6.069   2.011  20.203  0.00  0.00    +0.000 HD
BRANCH  14  16
ATOM     16  O   UNL     1       5.499   0.983  21.910  0.00  0.00    +0.000 OA
ATOM     17  H   UNL     1       5.620   0.149  21.403  0.00  0.00    +0.000 HD
ENDBRANCH  14  16
ENDBRANCH  11  12
ENDBRANCH   1   4
BRANCH   1  21
ATOM     18  C   UNL     1       1.013   9.896  19.897  0.00  0.00    +0.000 A 
ATOM     19  C   UNL     1       1.286   8.903  20.843  0.00  0.00    +0.000 A 
ATOM     20  C   UNL     1       1.806   7.649  20.438  0.00  0.00    +0.000 A 
ATOM     21  C   UNL     1       2.034   7.390  19.081  0.00  0.00    +0.000 A 
ATOM     22  C   UNL     1       1.835   8.424  18.152  0.00  0.00    +0.000 A 
ATOM     23  C   UNL     1       1.304   9.653  18.555  0.00  0.00    +0.000 A 
BRANCH  18  24
ATOM     24  O   UNL     1       0.356  11.070  20.130  0.00  0.00    +0.000 OA
BRANCH  24  25
ATOM     25  C   UNL     1       0.984  12.076  20.929  0.00  0.00    +0.000 C 
BRANCH  25  27
ATOM     26  C   UNL     1       2.276  13.845  19.145  0.00  0.00    +0.000 C 
ATOM     27  C   UNL     1       1.680  13.028  19.969  0.00  0.00    +0.000 C 
BRANCH  26  29
ATOM     28  C   UNL     1       3.581  15.533  17.429  0.00  0.00    +0.000 C 
ATOM     29  C   UNL     1       3.005  14.796  18.178  0.00  0.00    +0.000 C 
ENDBRANCH  26  29
ENDBRANCH  25  27
ENDBRANCH  24  25
ENDBRANCH  18  24
ENDBRANCH   1  21
TORSDOF 8
ENDMDL
MODEL 9
REMARK VINA RESULT:      -7.0      1.428      2.080
REMARK  Name = 
REMARK  10 active torsions:
REMARK  status: ('A' for Active; 'I' for Inactive)
REMARK    1  A    between atoms: C_2  and  C_3
REMARK    2  A    between atoms: C_4  and  C_5
REMARK    3  A    between atoms: C_5  and  O_6
REMARK    4  A    between atoms: O_6  and  C_7
REMARK    5  A    between atoms: C_10  and  S_11
REMARK    6  A    between atoms: S_11  and  N_14
REMARK    7  A    between atoms: C_18  and  C_19
REMARK    8  A    between atoms: C_18  and  C_20
REMARK    9  A    between atoms: C_21  and  C_22
REMARK   10  A    between atoms: N_24  and  O_25
REMARK                            x       y       z     vdW  Elec       q    Type
REMARK                         _______ _______ _______ _____ _____    ______ ____
ROOT
ATOM      1  S   UNL     1       2.780   5.994  18.682  0.00  0.00    +0.000 S 
ATOM      2  O   UNL     1       1.816   5.472  17.738  0.00  0.00    +0.000 OA
ATOM      3  O   UNL     1       4.108   6.390  18.264  0.00  0.00    +0.000 OA
ENDROOT
BRANCH   1   4
ATOM      4  N   UNL     1       2.966   4.843  19.962  0.00  0.00    +0.000 NA
ATOM      5  C   UNL     1       1.715   4.532  20.688  0.00  0.00    +0.000 C 
ATOM      6  C   UNL     1       0.729   3.708  19.870  0.00  0.00    +0.000 C 
ATOM      7  S   UNL     1       1.277   2.478  18.611  0.00  0.00    +0.000 S 
ATOM      8  C   UNL     1       3.123   2.698  18.439  0.00  0.00    +0.000 C 
ATOM      9  C   UNL     1       3.592   1.212  18.327  0.00  0.00    +0.000 C 
ATOM     10  C   UNL     1       3.589   3.242  17.061  0.00  0.00    +0.000 C 
ATOM     11  C   UNL     1       3.758   3.531  19.613  0.00  0.00    +0.000 C 
BRANCH  11  12
ATOM     12  C   UNL     1       4.044   2.584  20.832  0.00  0.00    +0.000 C 
ATOM     13  O   UNL     1       3.231   2.284  21.710  0.00  0.00    +0.000 OA
ATOM     14  N   UNL     1       5.287   1.988  20.860  0.00  0.00    +0.000 N 
ATOM     15  H   UNL     1       6.022   2.084  20.169  0.00  0.00    +0.000 HD
BRANCH  14  16
ATOM     16  O   UNL     1       5.477   0.978  21.835  0.00  0.00    +0.000 OA
ATOM     17  H   UNL     1       6.228   0.458  21.471  0.00  0.00    +0.000 HD
ENDBRANCH  14  16
ENDBRANCH  11  12
ENDBRANCH   1   4
BRANCH   1  21
ATOM     18  C   UNL     1       0.978   9.945  20.286  0.00  0.00    +0.000 A 
ATOM     19  C   UNL     1       1.197   8.881  21.165  0.00  0.00    +0.000 A 
ATOM     20  C   UNL     1       1.690   7.642  20.685  0.00  0.00    +0.000 A 
ATOM     21  C   UNL     1       1.947   7.472  19.320  0.00  0.00    +0.000 A 
ATOM     22  C   UNL     1       1.804   8.574  18.461  0.00  0.00    +0.000 A 
ATOM     23  C   UNL     1       1.298   9.788  18.937  0.00  0.00    +0.000 A 
BRANCH  18  24
ATOM     24  O   UNL     1       0.351  11.120  20.585  0.00  0.00    +0.000 OA
BRANCH  24  25
ATOM     25  C   UNL     1      -0.268  11.869  19.534  0.00  0.00    +0.000 C 
BRANCH  25  27
ATOM     26  C   UNL     1      -2.882  12.490  20.408  0.00  0.00    +0.000 C 
ATOM     27  C   UNL     1      -1.675  12.204  20.005  0.00  0.00    +0.000 C 
BRANCH  26  29
ATOM     28  C   UNL     1      -5.409  13.140  21.239  0.00  0.00    +0.000 C 
ATOM     29  C   UNL     1      -4.305  12.855  20.871  0.00  0.00    +0.000 C 
ENDBRANCH  26  29
ENDBRANCH  25  27
ENDBRANCH  24  25
ENDBRANCH  18  24
ENDBRANCH   1  21
TORSDOF 8
ENDMDL
