MODEL 1
REMARK VINA RESULT:      -7.1      0.000      0.000
REMARK  Name = 
REMARK  6 active torsions:
REMARK  status: ('A' for Active; 'I' for Inactive)
REMARK    1  A    between atoms: C_1  and  N_2
REMARK    2  A    between atoms: N_2  and  C_3
REMARK    3  A    between atoms: C_4  and  C_6
REMARK    4  A    between atoms: C_10  and  N_11
REMARK    5  A    between atoms: C_12  and  C_14
REMARK    6  A    between atoms: N_17  and  C_18
REMARK                            x       y       z     vdW  Elec       q    Type
REMARK                         _______ _______ _______ _____ _____    ______ ____
ROOT
ATOM      1  C   UNL     1       4.220   4.616  19.094  0.00  0.00    +0.000 A 
ATOM      2  C   UNL     1       3.469   3.445  18.934  0.00  0.00    +0.000 A 
ATOM      3  C   UNL     1       2.144   3.404  19.355  0.00  0.00    +0.000 A 
ATOM      4  C   UNL     1       1.569   4.522  19.960  0.00  0.00    +0.000 A 
ATOM      5  C   UNL     1       2.290   5.709  20.120  0.00  0.00    +0.000 A 
ATOM      6  C   UNL     1       3.604   5.759  19.630  0.00  0.00    +0.000 A 
ENDROOT
BRANCH   1  10
ATOM      7  C   UNL     1       7.362   4.559  16.922  0.00  0.00    +0.000 C 
ATOM      8  N   UNL     1       5.951   4.621  17.264  0.00  0.00    +0.000 N 
ATOM      9  C   UNL     1       5.015   4.843  16.173  0.00  0.00    +0.000 C 
ATOM     10  C   UNL     1       5.637   4.601  18.627  0.00  0.00    +0.000 C 
ATOM     11  O   UNL     1       6.515   4.594  19.494  0.00  0.00    +0.000 OA
ENDBRANCH   1  10
BRANCH   5  12
ATOM     12  N   UNL     1       1.786   6.864  20.759  0.00  0.00    +0.000 N 
ATOM     13  C   UNL     1       1.533   8.088  20.161  0.00  0.00    +0.000 C 
ATOM     14  O   UNL     1       1.738   8.353  18.980  0.00  0.00    +0.000 OA
ATOM     15  H   UNL     1       1.536   6.774  21.734  0.00  0.00    +0.000 HD
BRANCH  13  16
ATOM     16  C   UNL     1       0.975   9.117  21.028  0.00  0.00    +0.000 A 
ATOM     17  C   UNL     1       0.924   9.025  22.441  0.00  0.00    +0.000 A 
ATOM     18  N   UNL     1       0.352  10.082  23.015  0.00  0.00    +0.000 NA
ATOM     19  N   UNL     1       0.019  10.861  21.976  0.00  0.00    +0.000 N 
ATOM     20  C   UNL     1      -0.682  12.098  22.221  0.00  0.00    +0.000 C 
ATOM     21  C   UNL     1       0.386  10.342  20.761  0.00  0.00    +0.000 A 
ENDBRANCH  13  16
ENDBRANCH   5  12
TORSDOF 3
ENDMDL
MODEL 2
REMARK VINA RESULT:      -6.9      4.756      6.598
REMARK  Name = 
REMARK  6 active torsions:
REMARK  status: ('A' for Active; 'I' for Inactive)
REMARK    1  A    between atoms: C_1  and  N_2
REMARK    2  A    between atoms: N_2  and  C_3
REMARK    3  A    between atoms: C_4  and  C_6
REMARK    4  A    between atoms: C_10  and  N_11
REMARK    5  A    between atoms: C_12  and  C_14
REMARK    6  A    between atoms: N_17  and  C_18
REMARK                            x       y       z     vdW  Elec       q    Type
REMARK                         _______ _______ _______ _____ _____    ______ ____
ROOT
ATOM      1  C   UNL     1       4.440   4.889  17.297  0.00  0.00    +0.000 A 
ATOM      2  C   UNL     1       4.928   4.029  16.306  0.00  0.00    +0.000 A 
ATOM      3  C   UNL     1       6.094   4.349  15.619  0.00  0.00    +0.000 A 
ATOM      4  C   UNL     1       6.766   5.540  15.898  0.00  0.00    +0.000 A 
ATOM      5  C   UNL     1       6.309   6.410  16.891  0.00  0.00    +0.000 A 
ATOM      6  C   UNL     1       5.169   6.044  17.624  0.00  0.00    +0.000 A 
ENDROOT
BRANCH   1  10
ATOM      7  C   UNL     1       1.897   3.169  19.570  0.00  0.00    +0.000 C 
ATOM      8  N   UNL     1       3.184   3.502  18.982  0.00  0.00    +0.000 N 
ATOM      9  C   UNL     1       4.360   2.879  19.571  0.00  0.00    +0.000 C 
ATOM     10  C   UNL     1       3.184   4.497  17.999  0.00  0.00    +0.000 C 
ATOM     11  O   UNL     1       2.154   5.103  17.691  0.00  0.00    +0.000 OA
ENDBRANCH   1  10
BRANCH   5  12
ATOM     12  N   UNL     1       6.913   7.650  17.199  0.00  0.00    +0.000 N 
ATOM     13  C   UNL     1       7.916   7.865  18.131  0.00  0.00    +0.000 C 
ATOM     14  O   UNL     1       8.408   7.001  18.851  0.00  0.00    +0.000 OA
ATOM     15  H   UNL     1       6.626   8.448  16.648  0.00  0.00    +0.000 HD
BRANCH  13  16
ATOM     16  C   UNL     1       8.404   9.233  18.237  0.00  0.00    +0.000 A 
ATOM     17  C   UNL     1       9.267   9.694  19.262  0.00  0.00    +0.000 A 
ATOM     18  N   UNL     1       9.562  10.988  19.158  0.00  0.00    +0.000 NA
ATOM     19  N   UNL     1       8.883  11.377  18.069  0.00  0.00    +0.000 N 
ATOM     20  C   UNL     1       8.928  12.763  17.672  0.00  0.00    +0.000 C 
ATOM     21  C   UNL     1       8.187  10.362  17.464  0.00  0.00    +0.000 A 
ENDBRANCH  13  16
ENDBRANCH   5  12
TORSDOF 3
ENDMDL
MODEL 3
REMARK VINA RESULT:      -6.7      1.926      7.534
REMARK  Name = 
REMARK  6 active torsions:
REMARK  status: ('A' for Active; 'I' for Inactive)
REMARK    1  A    between atoms: C_1  and  N_2
REMARK    2  A    between atoms: N_2  and  C_3
REMARK    3  A    between atoms: C_4  and  C_6
REMARK    4  A    between atoms: C_10  and  N_11
REMARK    5  A    between atoms: C_12  and  C_14
REMARK    6  A    between atoms: N_17  and  C_18
REMARK                            x       y       z     vdW  Elec       q    Type
REMARK                         _______ _______ _______ _____ _____    ______ ____
ROOT
ATOM      1  C   UNL     1       1.874   7.091  20.171  0.00  0.00    +0.000 A 
ATOM      2  C   UNL     1       1.316   6.018  20.876  0.00  0.00    +0.000 A 
ATOM      3  C   UNL     1       1.642   4.711  20.530  0.00  0.00    +0.000 A 
ATOM      4  C   UNL     1       2.507   4.467  19.462  0.00  0.00    +0.000 A 
ATOM      5  C   UNL     1       3.089   5.519  18.749  0.00  0.00    +0.000 A 
ATOM      6  C   UNL     1       2.805   6.833  19.152  0.00  0.00    +0.000 A 
ENDROOT
BRANCH   1  10
ATOM      7  C   UNL     1       0.862  10.774  20.148  0.00  0.00    +0.000 C 
ATOM      8  N   UNL     1       1.187   9.454  19.635  0.00  0.00    +0.000 N 
ATOM      9  C   UNL     1       1.030   9.244  18.204  0.00  0.00    +0.000 C 
ATOM     10  C   UNL     1       1.485   8.470  20.585  0.00  0.00    +0.000 C 
ATOM     11  O   UNL     1       1.414   8.697  21.795  0.00  0.00    +0.000 OA
ENDBRANCH   1  10
BRANCH   5  12
ATOM     12  N   UNL     1       3.939   5.346  17.633  0.00  0.00    +0.000 N 
ATOM     13  C   UNL     1       5.207   4.786  17.647  0.00  0.00    +0.000 C 
ATOM     14  O   UNL     1       5.789   4.380  18.648  0.00  0.00    +0.000 OA
ATOM     15  H   UNL     1       3.567   5.606  16.731  0.00  0.00    +0.000 HD
BRANCH  13  16
ATOM     16  C   UNL     1       5.870   4.682  16.355  0.00  0.00    +0.000 A 
ATOM     17  C   UNL     1       7.054   5.380  16.009  0.00  0.00    +0.000 A 
ATOM     18  N   UNL     1       7.462   5.137  14.765  0.00  0.00    +0.000 NA
ATOM     19  N   UNL     1       6.540   4.287  14.293  0.00  0.00    +0.000 N 
ATOM     20  C   UNL     1       6.633   3.836  12.926  0.00  0.00    +0.000 C 
ATOM     21  C   UNL     1       5.572   3.963  15.209  0.00  0.00    +0.000 A 
ENDBRANCH  13  16
ENDBRANCH   5  12
TORSDOF 3
ENDMDL
MODEL 4
REMARK VINA RESULT:      -6.6      4.444      6.486
REMARK  Name = 
REMARK  6 active torsions:
REMARK  status: ('A' for Active; 'I' for Inactive)
REMARK    1  A    between atoms: C_1  and  N_2
REMARK    2  A    between atoms: N_2  and  C_3
REMARK    3  A    between atoms: C_4  and  C_6
REMARK    4  A    between atoms: C_10  and  N_11
REMARK    5  A    between atoms: C_12  and  C_14
REMARK    6  A    between atoms: N_17  and  C_18
REMARK                            x       y       z     vdW  Elec       q    Type
REMARK                         _______ _______ _______ _____ _____    ______ ____
ROOT
ATOM      1  C   UNL     1       5.027   4.536  17.912  0.00  0.00    +0.000 A 
ATOM      2  C   UNL     1       4.946   3.992  16.624  0.00  0.00    +0.000 A 
ATOM      3  C   UNL     1       5.534   4.653  15.551  0.00  0.00    +0.000 A 
ATOM      4  C   UNL     1       6.185   5.871  15.751  0.00  0.00    +0.000 A 
ATOM      5  C   UNL     1       6.293   6.430  17.028  0.00  0.00    +0.000 A 
ATOM      6  C   UNL     1       5.754   5.721  18.112  0.00  0.00    +0.000 A 
ENDROOT
BRANCH   1  10
ATOM      7  C   UNL     1       2.507   3.240  20.473  0.00  0.00    +0.000 C 
ATOM      8  N   UNL     1       3.029   3.992  19.344  0.00  0.00    +0.000 N 
ATOM      9  C   UNL     1       2.073   4.771  18.571  0.00  0.00    +0.000 C 
ATOM     10  C   UNL     1       4.374   3.786  19.023  0.00  0.00    +0.000 C 
ATOM     11  O   UNL     1       5.065   2.962  19.629  0.00  0.00    +0.000 OA
ENDBRANCH   1  10
BRANCH   5  12
ATOM     12  N   UNL     1       6.899   7.677  17.299  0.00  0.00    +0.000 N 
ATOM     13  C   UNL     1       7.955   7.904  18.167  0.00  0.00    +0.000 C 
ATOM     14  O   UNL     1       8.502   7.046  18.854  0.00  0.00    +0.000 OA
ATOM     15  H   UNL     1       6.568   8.471  16.769  0.00  0.00    +0.000 HD
BRANCH  13  16
ATOM     16  C   UNL     1       8.432   9.278  18.245  0.00  0.00    +0.000 A 
ATOM     17  C   UNL     1       9.314   9.760  19.243  0.00  0.00    +0.000 A 
ATOM     18  N   UNL     1       9.593  11.055  19.116  0.00  0.00    +0.000 NA
ATOM     19  N   UNL     1       8.885  11.425  18.040  0.00  0.00    +0.000 N 
ATOM     20  C   UNL     1       8.905  12.806  17.625  0.00  0.00    +0.000 C 
ATOM     21  C   UNL     1       8.185  10.396  17.464  0.00  0.00    +0.000 A 
ENDBRANCH  13  16
ENDBRANCH   5  12
TORSDOF 3
ENDMDL
MODEL 5
REMARK VINA RESULT:      -6.6      2.089      2.861
REMARK  Name = 
REMARK  6 active torsions:
REMARK  status: ('A' for Active; 'I' for Inactive)
REMARK    1  A    between atoms: C_1  and  N_2
REMARK    2  A    between atoms: N_2  and  C_3
REMARK    3  A    between atoms: C_4  and  C_6
REMARK    4  A    between atoms: C_10  and  N_11
REMARK    5  A    between atoms: C_12  and  C_14
REMARK    6  A    between atoms: N_17  and  C_18
REMARK                            x       y       z     vdW  Elec       q    Type
REMARK                         _______ _______ _______ _____ _____    ______ ____
ROOT
ATOM      1  C   UNL     1       2.845   5.175  18.192  0.00  0.00    +0.000 A 
ATOM      2  C   UNL     1       3.680   5.759  17.230  0.00  0.00    +0.000 A 
ATOM      3  C   UNL     1       3.911   7.130  17.247  0.00  0.00    +0.000 A 
ATOM      4  C   UNL     1       3.291   7.931  18.208  0.00  0.00    +0.000 A 
ATOM      5  C   UNL     1       2.464   7.374  19.188  0.00  0.00    +0.000 A 
ATOM      6  C   UNL     1       2.293   5.981  19.201  0.00  0.00    +0.000 A 
ENDROOT
BRANCH   1  10
ATOM      7  C   UNL     1       3.259   1.393  18.530  0.00  0.00    +0.000 C 
ATOM      8  N   UNL     1       3.544   2.809  18.694  0.00  0.00    +0.000 N 
ATOM      9  C   UNL     1       4.661   3.162  19.557  0.00  0.00    +0.000 C 
ATOM     10  C   UNL     1       2.631   3.701  18.122  0.00  0.00    +0.000 C 
ATOM     11  O   UNL     1       1.606   3.307  17.560  0.00  0.00    +0.000 OA
ENDBRANCH   1  10
BRANCH   5  12
ATOM     12  N   UNL     1       1.773   8.127  20.164  0.00  0.00    +0.000 N 
ATOM     13  C   UNL     1       0.942   9.211  19.926  0.00  0.00    +0.000 C 
ATOM     14  O   UNL     1       0.708   9.693  18.822  0.00  0.00    +0.000 OA
ATOM     15  H   UNL     1       1.847   7.813  21.121  0.00  0.00    +0.000 HD
BRANCH  13  16
ATOM     16  C   UNL     1       0.310   9.797  21.100  0.00  0.00    +0.000 A 
ATOM     17  C   UNL     1       0.576   9.394  22.432  0.00  0.00    +0.000 A 
ATOM     18  N   UNL     1      -0.137  10.064  23.335  0.00  0.00    +0.000 NA
ATOM     19  N   UNL     1      -0.877  10.900  22.593  0.00  0.00    +0.000 N 
ATOM     20  C   UNL     1      -1.828  11.766  23.247  0.00  0.00    +0.000 C 
ATOM     21  C   UNL     1      -0.636  10.798  21.247  0.00  0.00    +0.000 A 
ENDBRANCH  13  16
ENDBRANCH   5  12
TORSDOF 3
ENDMDL
MODEL 6
REMARK VINA RESULT:      -6.5      1.367      1.559
REMARK  Name = 
REMARK  6 active torsions:
REMARK  status: ('A' for Active; 'I' for Inactive)
REMARK    1  A    between atoms: C_1  and  N_2
REMARK    2  A    between atoms: N_2  and  C_3
REMARK    3  A    between atoms: C_4  and  C_6
REMARK    4  A    between atoms: C_10  and  N_11
REMARK    5  A    between atoms: C_12  and  C_14
REMARK    6  A    between atoms: N_17  and  C_18
REMARK                            x       y       z     vdW  Elec       q    Type
REMARK                         _______ _______ _______ _____ _____    ______ ____
ROOT
ATOM      1  C   UNL     1       3.887   5.559  18.242  0.00  0.00    +0.000 A 
ATOM      2  C   UNL     1       3.458   4.226  18.210  0.00  0.00    +0.000 A 
ATOM      3  C   UNL     1       2.379   3.823  18.989  0.00  0.00    +0.000 A 
ATOM      4  C   UNL     1       1.737   4.740  19.823  0.00  0.00    +0.000 A 
ATOM      5  C   UNL     1       2.135   6.079  19.865  0.00  0.00    +0.000 A 
ATOM      6  C   UNL     1       3.182   6.488  19.025  0.00  0.00    +0.000 A 
ENDROOT
BRANCH   1  10
ATOM      7  C   UNL     1       7.409   6.346  16.993  0.00  0.00    +0.000 C 
ATOM      8  N   UNL     1       6.355   5.922  17.898  0.00  0.00    +0.000 N 
ATOM      9  C   UNL     1       6.766   5.390  19.188  0.00  0.00    +0.000 C 
ATOM     10  C   UNL     1       5.052   5.934  17.390  0.00  0.00    +0.000 C 
ATOM     11  O   UNL     1       4.818   6.229  16.215  0.00  0.00    +0.000 OA
ENDBRANCH   1  10
BRANCH   5  12
ATOM     12  N   UNL     1       1.560   7.052  20.714  0.00  0.00    +0.000 N 
ATOM     13  C   UNL     1       1.243   8.356  20.370  0.00  0.00    +0.000 C 
ATOM     14  O   UNL     1       1.445   8.866  19.272  0.00  0.00    +0.000 OA
ATOM     15  H   UNL     1       1.305   6.752  21.645  0.00  0.00    +0.000 HD
BRANCH  13  16
ATOM     16  C   UNL     1       0.619   9.156  21.415  0.00  0.00    +0.000 A 
ATOM     17  C   UNL     1       1.034   9.159  22.770  0.00  0.00    +0.000 A 
ATOM     18  N   UNL     1       0.299   9.957  23.542  0.00  0.00    +0.000 NA
ATOM     19  N   UNL     1      -0.605  10.468  22.694  0.00  0.00    +0.000 N 
ATOM     20  C   UNL     1      -1.621  11.358  23.201  0.00  0.00    +0.000 C 
ATOM     21  C   UNL     1      -0.448  10.039  21.401  0.00  0.00    +0.000 A 
ENDBRANCH  13  16
ENDBRANCH   5  12
TORSDOF 3
ENDMDL
MODEL 7
REMARK VINA RESULT:      -6.5      2.229      3.215
REMARK  Name = 
REMARK  6 active torsions:
REMARK  status: ('A' for Active; 'I' for Inactive)
REMARK    1  A    between atoms: C_1  and  N_2
REMARK    2  A    between atoms: N_2  and  C_3
REMARK    3  A    between atoms: C_4  and  C_6
REMARK    4  A    between atoms: C_10  and  N_11
REMARK    5  A    between atoms: C_12  and  C_14
REMARK    6  A    between atoms: N_17  and  C_18
REMARK                            x       y       z     vdW  Elec       q    Type
REMARK                         _______ _______ _______ _____ _____    ______ ____
ROOT
ATOM      1  C   UNL     1       3.364   4.910  17.638  0.00  0.00    +0.000 A 
ATOM      2  C   UNL     1       4.432   5.354  16.849  0.00  0.00    +0.000 A 
ATOM      3  C   UNL     1       4.725   6.712  16.772  0.00  0.00    +0.000 A 
ATOM      4  C   UNL     1       3.938   7.636  17.460  0.00  0.00    +0.000 A 
ATOM      5  C   UNL     1       2.874   7.221  18.266  0.00  0.00    +0.000 A 
ATOM      6  C   UNL     1       2.631   5.844  18.389  0.00  0.00    +0.000 A 
ENDROOT
BRANCH   1  10
ATOM      7  C   UNL     1       3.453   1.193  18.510  0.00  0.00    +0.000 C 
ATOM      8  N   UNL     1       3.761   2.611  18.585  0.00  0.00    +0.000 N 
ATOM      9  C   UNL     1       4.613   3.045  19.681  0.00  0.00    +0.000 C 
ATOM     10  C   UNL     1       3.094   3.444  17.680  0.00  0.00    +0.000 C 
ATOM     11  O   UNL     1       2.244   3.005  16.901  0.00  0.00    +0.000 OA
ENDBRANCH   1  10
BRANCH   5  12
ATOM     12  N   UNL     1       2.012   8.102  18.958  0.00  0.00    +0.000 N 
ATOM     13  C   UNL     1       1.570   9.336  18.510  0.00  0.00    +0.000 C 
ATOM     14  O   UNL     1       1.891   9.858  17.446  0.00  0.00    +0.000 OA
ATOM     15  H   UNL     1       1.639   7.778  19.839  0.00  0.00    +0.000 HD
BRANCH  13  16
ATOM     16  C   UNL     1       0.650  10.041  19.392  0.00  0.00    +0.000 A 
ATOM     17  C   UNL     1      -0.578  10.609  18.971  0.00  0.00    +0.000 A 
ATOM     18  N   UNL     1      -1.238  11.218  19.954  0.00  0.00    +0.000 NA
ATOM     19  N   UNL     1      -0.437  11.057  21.017  0.00  0.00    +0.000 N 
ATOM     20  C   UNL     1      -0.816  11.644  22.279  0.00  0.00    +0.000 C 
ATOM     21  C   UNL     1       0.700  10.341  20.743  0.00  0.00    +0.000 A 
ENDBRANCH  13  16
ENDBRANCH   5  12
TORSDOF 3
ENDMDL
MODEL 8
REMARK VINA RESULT:      -6.5      2.766      4.137
REMARK  Name = 
REMARK  6 active torsions:
REMARK  status: ('A' for Active; 'I' for Inactive)
REMARK    1  A    between atoms: C_1  and  N_2
REMARK    2  A    between atoms: N_2  and  C_3
REMARK    3  A    between atoms: C_4  and  C_6
REMARK    4  A    between atoms: C_10  and  N_11
REMARK    5  A    between atoms: C_12  and  C_14
REMARK    6  A    between atoms: N_17  and  C_18
REMARK                            x       y       z     vdW  Elec       q    Type
REMARK                         _______ _______ _______ _____ _____    ______ ____
ROOT
ATOM      1  C   UNL     1       6.791   5.208  15.720  0.00  0.00    +0.000 A 
ATOM      2  C   UNL     1       7.504   4.499  16.694  0.00  0.00    +0.000 A 
ATOM      3  C   UNL     1       7.167   4.630  18.037  0.00  0.00    +0.000 A 
ATOM      4  C   UNL     1       6.134   5.488  18.418  0.00  0.00    +0.000 A 
ATOM      5  C   UNL     1       5.397   6.198  17.466  0.00  0.00    +0.000 A 
ATOM      6  C   UNL     1       5.702   6.005  16.110  0.00  0.00    +0.000 A 
ENDROOT
BRANCH   1  10
ATOM      7  C   UNL     1       6.997   4.057  12.084  0.00  0.00    +0.000 C 
ATOM      8  N   UNL     1       6.486   4.188  13.438  0.00  0.00    +0.000 N 
ATOM      9  C   UNL     1       5.211   3.550  13.728  0.00  0.00    +0.000 C 
ATOM     10  C   UNL     1       7.199   5.032  14.296  0.00  0.00    +0.000 C 
ATOM     11  O   UNL     1       8.174   5.679  13.905  0.00  0.00    +0.000 OA
ENDBRANCH   1  10
BRANCH   5  12
ATOM     12  N   UNL     1       4.368   7.113  17.781  0.00  0.00    +0.000 N 
ATOM     13  C   UNL     1       3.137   6.804  18.338  0.00  0.00    +0.000 C 
ATOM     14  O   UNL     1       2.752   5.672  18.616  0.00  0.00    +0.000 OA
ATOM     15  H   UNL     1       4.568   8.093  17.637  0.00  0.00    +0.000 HD
BRANCH  13  16
ATOM     16  C   UNL     1       2.258   7.934  18.607  0.00  0.00    +0.000 A 
ATOM     17  C   UNL     1       1.914   8.920  17.650  0.00  0.00    +0.000 A 
ATOM     18  N   UNL     1       1.111   9.864  18.135  0.00  0.00    +0.000 NA
ATOM     19  N   UNL     1       0.936   9.501  19.414  0.00  0.00    +0.000 N 
ATOM     20  C   UNL     1       0.143  10.338  20.281  0.00  0.00    +0.000 C 
ATOM     21  C   UNL     1       1.585   8.340  19.747  0.00  0.00    +0.000 A 
ENDBRANCH  13  16
ENDBRANCH   5  12
TORSDOF 3
ENDMDL
MODEL 9
REMARK VINA RESULT:      -6.4      1.546      1.795
REMARK  Name = 
REMARK  6 active torsions:
REMARK  status: ('A' for Active; 'I' for Inactive)
REMARK    1  A    between atoms: C_1  and  N_2
REMARK    2  A    between atoms: N_2  and  C_3
REMARK    3  A    between atoms: C_4  and  C_6
REMARK    4  A    between atoms: C_10  and  N_11
REMARK    5  A    between atoms: C_12  and  C_14
REMARK    6  A    between atoms: N_17  and  C_18
REMARK                            x       y       z     vdW  Elec       q    Type
REMARK                         _______ _______ _______ _____ _____    ______ ____
ROOT
ATOM      1  C   UNL     1       4.394   5.127  19.339  0.00  0.00    +0.000 A 
ATOM      2  C   UNL     1       3.720   3.970  19.750  0.00  0.00    +0.000 A 
ATOM      3  C   UNL     1       2.398   4.049  20.175  0.00  0.00    +0.000 A 
ATOM      4  C   UNL     1       1.749   5.284  20.216  0.00  0.00    +0.000 A 
ATOM      5  C   UNL     1       2.393   6.452  19.798  0.00  0.00    +0.000 A 
ATOM      6  C   UNL     1       3.704   6.350  19.309  0.00  0.00    +0.000 A 
ENDROOT
BRANCH   1  10
ATOM      7  C   UNL     1       7.540   4.508  17.262  0.00  0.00    +0.000 C 
ATOM      8  N   UNL     1       6.129   4.666  17.573  0.00  0.00    +0.000 N 
ATOM      9  C   UNL     1       5.198   4.625  16.455  0.00  0.00    +0.000 C 
ATOM     10  C   UNL     1       5.811   4.983  18.898  0.00  0.00    +0.000 C 
ATOM     11  O   UNL     1       6.687   5.179  19.744  0.00  0.00    +0.000 OA
ENDBRANCH   1  10
BRANCH   5  12
ATOM     12  N   UNL     1       1.813   7.740  19.851  0.00  0.00    +0.000 N 
ATOM     13  C   UNL     1       1.667   8.617  18.789  0.00  0.00    +0.000 C 
ATOM     14  O   UNL     1       2.050   8.408  17.642  0.00  0.00    +0.000 OA
ATOM     15  H   UNL     1       1.419   8.027  20.736  0.00  0.00    +0.000 HD
BRANCH  13  16
ATOM     16  C   UNL     1       0.998   9.875  19.090  0.00  0.00    +0.000 A 
ATOM     17  C   UNL     1       1.476  11.147  18.689  0.00  0.00    +0.000 A 
ATOM     18  N   UNL     1       0.703  12.151  19.097  0.00  0.00    +0.000 NA
ATOM     19  N   UNL     1      -0.277  11.537  19.775  0.00  0.00    +0.000 N 
ATOM     20  C   UNL     1      -1.295  12.333  20.416  0.00  0.00    +0.000 C 
ATOM     21  C   UNL     1      -0.163  10.170  19.786  0.00  0.00    +0.000 A 
ENDBRANCH  13  16
ENDBRANCH   5  12
TORSDOF 3
ENDMDL
