MODEL 1
REMARK VINA RESULT:      -7.3      0.000      0.000
REMARK  Name = 
REMARK  3 active torsions:
REMARK  status: ('A' for Active; 'I' for Inactive)
REMARK    1  A    between atoms: C_1  and  C_2
REMARK    2  A    between atoms: C_5  and  N_6
REMARK    3  A    between atoms: C_10  and  C_11
REMARK                            x       y       z     vdW  Elec       q    Type
REMARK                         _______ _______ _______ _____ _____    ______ ____
ROOT
ATOM      1  N   UNL     1       3.078   5.862  18.887  0.00  0.00    +0.000 N 
ATOM      2  C   UNL     1       2.394   7.001  19.154  0.00  0.00    +0.000 A 
ATOM      3  N   UNL     1       2.132   8.005  18.344  0.00  0.00    +0.000 NA
ATOM      4  N   UNL     1       1.466   9.042  18.955  0.00  0.00    +0.000 NA
ATOM      5  C   UNL     1       1.256   8.815  20.234  0.00  0.00    +0.000 A 
ATOM      6  S   UNL     1       1.774   7.257  20.745  0.00  0.00    +0.000 S 
ATOM      7  H   UNL     1       3.188   5.203  19.650  0.00  0.00    +0.000 HD
ENDROOT
BRANCH   1  12
ATOM      8  C   UNL     1       6.869   4.788  14.692  0.00  0.00    +0.000 C 
ATOM      9  C   UNL     1       5.871   5.087  15.769  0.00  0.00    +0.000 A 
ATOM     10  C   UNL     1       5.917   6.292  16.469  0.00  0.00    +0.000 A 
ATOM     11  C   UNL     1       4.992   6.564  17.482  0.00  0.00    +0.000 A 
ATOM     12  C   UNL     1       4.004   5.637  17.842  0.00  0.00    +0.000 A 
ATOM     13  C   UNL     1       3.956   4.432  17.108  0.00  0.00    +0.000 A 
ATOM     14 BR   UNL     1       2.644   3.106  17.494  0.00  0.00    +0.000 Br
ATOM     15  C   UNL     1       4.876   4.157  16.091  0.00  0.00    +0.000 A 
ENDBRANCH   1  12
BRANCH   5  16
ATOM     16  C   UNL     1       0.604   9.761  21.145  0.00  0.00    +0.000 A 
ATOM     17  C   UNL     1       0.013   9.278  22.319  0.00  0.00    +0.000 A 
ATOM     18  C   UNL     1      -0.613  10.173  23.168  0.00  0.00    +0.000 A 
ATOM     19  N   UNL     1      -0.694  11.499  22.927  0.00  0.00    +0.000 NA
ATOM     20  C   UNL     1      -0.137  11.945  21.784  0.00  0.00    +0.000 A 
ATOM     21  C   UNL     1       0.513  11.129  20.874  0.00  0.00    +0.000 A 
ENDBRANCH   5  16
TORSDOF 2
ENDMDL
MODEL 2
REMARK VINA RESULT:      -7.3      0.095      1.055
REMARK  Name = 
REMARK  3 active torsions:
REMARK  status: ('A' for Active; 'I' for Inactive)
REMARK    1  A    between atoms: C_1  and  C_2
REMARK    2  A    between atoms: C_5  and  N_6
REMARK    3  A    between atoms: C_10  and  C_11
REMARK                            x       y       z     vdW  Elec       q    Type
REMARK                         _______ _______ _______ _____ _____    ______ ____
ROOT
ATOM      1  N   UNL     1       3.121   5.801  18.846  0.00  0.00    +0.000 N 
ATOM      2  C   UNL     1       2.424   6.929  19.124  0.00  0.00    +0.000 A 
ATOM      3  N   UNL     1       2.164   7.945  18.328  0.00  0.00    +0.000 NA
ATOM      4  N   UNL     1       1.482   8.966  18.949  0.00  0.00    +0.000 NA
ATOM      5  C   UNL     1       1.257   8.716  20.221  0.00  0.00    +0.000 A 
ATOM      6  S   UNL     1       1.782   7.154  20.711  0.00  0.00    +0.000 S 
ATOM      7  H   UNL     1       3.227   5.130  19.600  0.00  0.00    +0.000 HD
ENDROOT
BRANCH   1  12
ATOM      8  C   UNL     1       6.972   4.829  14.681  0.00  0.00    +0.000 C 
ATOM      9  C   UNL     1       5.958   5.102  15.751  0.00  0.00    +0.000 A 
ATOM     10  C   UNL     1       5.990   6.292  16.477  0.00  0.00    +0.000 A 
ATOM     11  C   UNL     1       5.051   6.539  17.483  0.00  0.00    +0.000 A 
ATOM     12  C   UNL     1       4.061   5.601  17.809  0.00  0.00    +0.000 A 
ATOM     13  C   UNL     1       4.028   4.412  17.050  0.00  0.00    +0.000 A 
ATOM     14 BR   UNL     1       2.716   3.073  17.390  0.00  0.00    +0.000 Br
ATOM     15  C   UNL     1       4.963   4.162  16.039  0.00  0.00    +0.000 A 
ENDBRANCH   1  12
BRANCH   5  16
ATOM     16  C   UNL     1       0.587   9.640  21.140  0.00  0.00    +0.000 A 
ATOM     17  C   UNL     1       0.559  11.006  20.831  0.00  0.00    +0.000 A 
ATOM     18  C   UNL     1      -0.063  11.875  21.709  0.00  0.00    +0.000 A 
ATOM     19  N   UNL     1      -0.647  11.483  22.861  0.00  0.00    +0.000 NA
ATOM     20  C   UNL     1      -0.595  10.168  23.153  0.00  0.00    +0.000 A 
ATOM     21  C   UNL     1       0.002   9.221  22.338  0.00  0.00    +0.000 A 
ENDBRANCH   5  16
TORSDOF 2
ENDMDL
MODEL 3
REMARK VINA RESULT:      -6.8      1.382      1.485
REMARK  Name = 
REMARK  3 active torsions:
REMARK  status: ('A' for Active; 'I' for Inactive)
REMARK    1  A    between atoms: C_1  and  C_2
REMARK    2  A    between atoms: C_5  and  N_6
REMARK    3  A    between atoms: C_10  and  C_11
REMARK                            x       y       z     vdW  Elec       q    Type
REMARK                         _______ _______ _______ _____ _____    ______ ____
ROOT
ATOM      1  N   UNL     1       2.925   6.510  18.834  0.00  0.00    +0.000 N 
ATOM      2  C   UNL     1       2.194   7.649  18.770  0.00  0.00    +0.000 A 
ATOM      3  N   UNL     1       1.854   8.341  17.703  0.00  0.00    +0.000 NA
ATOM      4  N   UNL     1       1.158   9.491  17.996  0.00  0.00    +0.000 NA
ATOM      5  C   UNL     1       1.003   9.665  19.291  0.00  0.00    +0.000 A 
ATOM      6  S   UNL     1       1.616   8.363  20.232  0.00  0.00    +0.000 S 
ATOM      7  H   UNL     1       3.094   6.125  19.758  0.00  0.00    +0.000 HD
ENDROOT
BRANCH   1  12
ATOM      8  C   UNL     1       6.595   4.314  14.982  0.00  0.00    +0.000 C 
ATOM      9  C   UNL     1       5.630   4.903  15.967  0.00  0.00    +0.000 A 
ATOM     10  C   UNL     1       5.798   6.204  16.439  0.00  0.00    +0.000 A 
ATOM     11  C   UNL     1       4.904   6.748  17.366  0.00  0.00    +0.000 A 
ATOM     12  C   UNL     1       3.825   6.006  17.867  0.00  0.00    +0.000 A 
ATOM     13  C   UNL     1       3.655   4.699  17.362  0.00  0.00    +0.000 A 
ATOM     14 BR   UNL     1       2.214   3.604  17.955  0.00  0.00    +0.000 Br
ATOM     15  C   UNL     1       4.545   4.152  16.431  0.00  0.00    +0.000 A 
ENDBRANCH   1  12
BRANCH   5  16
ATOM     16  C   UNL     1       0.336  10.821  19.896  0.00  0.00    +0.000 A 
ATOM     17  C   UNL     1      -1.017  11.049  19.618  0.00  0.00    +0.000 A 
ATOM     18  C   UNL     1      -1.638  12.149  20.181  0.00  0.00    +0.000 A 
ATOM     19  N   UNL     1      -1.009  13.032  20.986  0.00  0.00    +0.000 NA
ATOM     20  C   UNL     1       0.299  12.810  21.228  0.00  0.00    +0.000 A 
ATOM     21  C   UNL     1       1.006  11.736  20.714  0.00  0.00    +0.000 A 
ENDBRANCH   5  16
TORSDOF 2
ENDMDL
MODEL 4
REMARK VINA RESULT:      -6.8      2.333      3.001
REMARK  Name = 
REMARK  3 active torsions:
REMARK  status: ('A' for Active; 'I' for Inactive)
REMARK    1  A    between atoms: C_1  and  C_2
REMARK    2  A    between atoms: C_5  and  N_6
REMARK    3  A    between atoms: C_10  and  C_11
REMARK                            x       y       z     vdW  Elec       q    Type
REMARK                         _______ _______ _______ _____ _____    ______ ____
ROOT
ATOM      1  N   UNL     1       2.826   7.140  17.802  0.00  0.00    +0.000 N 
ATOM      2  C   UNL     1       2.199   7.969  18.670  0.00  0.00    +0.000 A 
ATOM      3  N   UNL     1       1.941   7.772  19.946  0.00  0.00    +0.000 NA
ATOM      4  N   UNL     1       1.228   8.796  20.525  0.00  0.00    +0.000 NA
ATOM      5  C   UNL     1       0.933   9.748  19.665  0.00  0.00    +0.000 A 
ATOM      6  S   UNL     1       1.610   9.491  18.105  0.00  0.00    +0.000 S 
ATOM      7  H   UNL     1       2.923   7.464  16.846  0.00  0.00    +0.000 HD
ENDROOT
BRANCH   1  12
ATOM      8  C   UNL     1       3.628   1.450  18.134  0.00  0.00    +0.000 C 
ATOM      9  C   UNL     1       3.413   2.932  18.074  0.00  0.00    +0.000 A 
ATOM     10  C   UNL     1       2.133   3.472  18.197  0.00  0.00    +0.000 A 
ATOM     11  C   UNL     1       1.932   4.854  18.128  0.00  0.00    +0.000 A 
ATOM     12  C   UNL     1       2.997   5.740  17.916  0.00  0.00    +0.000 A 
ATOM     13  C   UNL     1       4.288   5.180  17.816  0.00  0.00    +0.000 A 
ATOM     14 BR   UNL     1       5.815   6.288  17.547  0.00  0.00    +0.000 Br
ATOM     15  C   UNL     1       4.495   3.798  17.889  0.00  0.00    +0.000 A 
ENDBRANCH   1  12
BRANCH   5  16
ATOM     16  C   UNL     1       0.148  10.942  19.990  0.00  0.00    +0.000 A 
ATOM     17  C   UNL     1       0.681  11.886  20.876  0.00  0.00    +0.000 A 
ATOM     18  C   UNL     1      -0.070  13.005  21.190  0.00  0.00    +0.000 A 
ATOM     19  N   UNL     1      -1.303  13.240  20.693  0.00  0.00    +0.000 NA
ATOM     20  C   UNL     1      -1.810  12.313  19.857  0.00  0.00    +0.000 A 
ATOM     21  C   UNL     1      -1.134  11.164  19.481  0.00  0.00    +0.000 A 
ENDBRANCH   5  16
TORSDOF 2
ENDMDL
MODEL 5
REMARK VINA RESULT:      -6.7      2.631      8.176
REMARK  Name = 
REMARK  3 active torsions:
REMARK  status: ('A' for Active; 'I' for Inactive)
REMARK    1  A    between atoms: C_1  and  C_2
REMARK    2  A    between atoms: C_5  and  N_6
REMARK    3  A    between atoms: C_10  and  C_11
REMARK                            x       y       z     vdW  Elec       q    Type
REMARK                         _______ _______ _______ _____ _____    ______ ____
ROOT
ATOM      1  N   UNL     1       1.593   8.672  18.773  0.00  0.00    +0.000 N 
ATOM      2  C   UNL     1       2.478   7.648  18.733  0.00  0.00    +0.000 A 
ATOM      3  N   UNL     1       2.627   6.664  19.595  0.00  0.00    +0.000 NA
ATOM      4  N   UNL     1       3.670   5.820  19.288  0.00  0.00    +0.000 NA
ATOM      5  C   UNL     1       4.314   6.197  18.204  0.00  0.00    +0.000 A 
ATOM      6  S   UNL     1       3.609   7.561  17.431  0.00  0.00    +0.000 S 
ATOM      7  H   UNL     1       1.638   9.347  18.017  0.00  0.00    +0.000 HD
ENDROOT
BRANCH   1  12
ATOM      8  C   UNL     1      -1.234  10.853  23.287  0.00  0.00    +0.000 C 
ATOM      9  C   UNL     1      -0.507  10.261  22.118  0.00  0.00    +0.000 A 
ATOM     10  C   UNL     1       0.603   9.438  22.312  0.00  0.00    +0.000 A 
ATOM     11  C   UNL     1       1.288   8.896  21.220  0.00  0.00    +0.000 A 
ATOM     12  C   UNL     1       0.900   9.171  19.901  0.00  0.00    +0.000 A 
ATOM     13  C   UNL     1      -0.238   9.986  19.722  0.00  0.00    +0.000 A 
ATOM     14 BR   UNL     1      -0.869  10.412  17.976  0.00  0.00    +0.000 Br
ATOM     15  C   UNL     1      -0.929  10.527  20.812  0.00  0.00    +0.000 A 
ENDBRANCH   1  12
BRANCH   5  16
ATOM     16  C   UNL     1       5.491   5.512  17.662  0.00  0.00    +0.000 A 
ATOM     17  C   UNL     1       6.606   5.319  18.486  0.00  0.00    +0.000 A 
ATOM     18  C   UNL     1       7.719   4.683  17.965  0.00  0.00    +0.000 A 
ATOM     19  N   UNL     1       7.798   4.240  16.693  0.00  0.00    +0.000 NA
ATOM     20  C   UNL     1       6.724   4.450  15.906  0.00  0.00    +0.000 A 
ATOM     21  C   UNL     1       5.564   5.073  16.337  0.00  0.00    +0.000 A 
ENDBRANCH   5  16
TORSDOF 2
ENDMDL
MODEL 6
REMARK VINA RESULT:      -6.7      2.305      3.021
REMARK  Name = 
REMARK  3 active torsions:
REMARK  status: ('A' for Active; 'I' for Inactive)
REMARK    1  A    between atoms: C_1  and  C_2
REMARK    2  A    between atoms: C_5  and  N_6
REMARK    3  A    between atoms: C_10  and  C_11
REMARK                            x       y       z     vdW  Elec       q    Type
REMARK                         _______ _______ _______ _____ _____    ______ ____
ROOT
ATOM      1  N   UNL     1       2.778   7.128  17.810  0.00  0.00    +0.000 N 
ATOM      2  C   UNL     1       2.162   7.954  18.689  0.00  0.00    +0.000 A 
ATOM      3  N   UNL     1       1.931   7.757  19.970  0.00  0.00    +0.000 NA
ATOM      4  N   UNL     1       1.221   8.776  20.561  0.00  0.00    +0.000 NA
ATOM      5  C   UNL     1       0.902   9.724  19.706  0.00  0.00    +0.000 A 
ATOM      6  S   UNL     1       1.550   9.470  18.134  0.00  0.00    +0.000 S 
ATOM      7  H   UNL     1       2.854   7.452  16.852  0.00  0.00    +0.000 HD
ENDROOT
BRANCH   1  12
ATOM      8  C   UNL     1       3.636   1.446  18.138  0.00  0.00    +0.000 C 
ATOM      9  C   UNL     1       3.406   2.926  18.078  0.00  0.00    +0.000 A 
ATOM     10  C   UNL     1       2.121   3.453  18.202  0.00  0.00    +0.000 A 
ATOM     11  C   UNL     1       1.907   4.833  18.134  0.00  0.00    +0.000 A 
ATOM     12  C   UNL     1       2.964   5.730  17.923  0.00  0.00    +0.000 A 
ATOM     13  C   UNL     1       4.260   5.183  17.823  0.00  0.00    +0.000 A 
ATOM     14 BR   UNL     1       5.776   6.305  17.555  0.00  0.00    +0.000 Br
ATOM     15  C   UNL     1       4.480   3.803  17.895  0.00  0.00    +0.000 A 
ENDBRANCH   1  12
BRANCH   5  16
ATOM     16  C   UNL     1       0.114  10.913  20.045  0.00  0.00    +0.000 A 
ATOM     17  C   UNL     1      -1.005  11.232  19.267  0.00  0.00    +0.000 A 
ATOM     18  C   UNL     1      -1.737  12.362  19.583  0.00  0.00    +0.000 A 
ATOM     19  N   UNL     1      -1.430  13.190  20.604  0.00  0.00    +0.000 NA
ATOM     20  C   UNL     1      -0.339  12.880  21.331  0.00  0.00    +0.000 A 
ATOM     21  C   UNL     1       0.455  11.769  21.095  0.00  0.00    +0.000 A 
ENDBRANCH   5  16
TORSDOF 2
ENDMDL
MODEL 7
REMARK VINA RESULT:      -6.7      1.492      1.658
REMARK  Name = 
REMARK  3 active torsions:
REMARK  status: ('A' for Active; 'I' for Inactive)
REMARK    1  A    between atoms: C_1  and  C_2
REMARK    2  A    between atoms: C_5  and  N_6
REMARK    3  A    between atoms: C_10  and  C_11
REMARK                            x       y       z     vdW  Elec       q    Type
REMARK                         _______ _______ _______ _____ _____    ______ ____
ROOT
ATOM      1  N   UNL     1       2.719   6.575  18.919  0.00  0.00    +0.000 N 
ATOM      2  C   UNL     1       2.056   7.754  18.848  0.00  0.00    +0.000 A 
ATOM      3  N   UNL     1       1.751   8.456  17.777  0.00  0.00    +0.000 NA
ATOM      4  N   UNL     1       1.126   9.647  18.063  0.00  0.00    +0.000 NA
ATOM      5  C   UNL     1       0.989   9.841  19.358  0.00  0.00    +0.000 A 
ATOM      6  S   UNL     1       1.531   8.514  20.307  0.00  0.00    +0.000 S 
ATOM      7  H   UNL     1       2.872   6.189  19.844  0.00  0.00    +0.000 HD
ENDROOT
BRANCH   1  12
ATOM      8  C   UNL     1       6.238   4.137  15.071  0.00  0.00    +0.000 C 
ATOM      9  C   UNL     1       5.312   4.787  16.054  0.00  0.00    +0.000 A 
ATOM     10  C   UNL     1       5.503   6.113  16.444  0.00  0.00    +0.000 A 
ATOM     11  C   UNL     1       4.646   6.714  17.370  0.00  0.00    +0.000 A 
ATOM     12  C   UNL     1       3.581   6.010  17.950  0.00  0.00    +0.000 A 
ATOM     13  C   UNL     1       3.388   4.678  17.528  0.00  0.00    +0.000 A 
ATOM     14 BR   UNL     1       1.963   3.628  18.234  0.00  0.00    +0.000 Br
ATOM     15  C   UNL     1       4.241   4.072  16.599  0.00  0.00    +0.000 A 
ENDBRANCH   1  12
BRANCH   5  16
ATOM     16  C   UNL     1       0.396  11.040  19.956  0.00  0.00    +0.000 A 
ATOM     17  C   UNL     1       1.238  12.028  20.481  0.00  0.00    +0.000 A 
ATOM     18  C   UNL     1       0.672  13.151  21.056  0.00  0.00    +0.000 A 
ATOM     19  N   UNL     1      -0.660  13.352  21.150  0.00  0.00    +0.000 NA
ATOM     20  C   UNL     1      -1.458  12.383  20.657  0.00  0.00    +0.000 A 
ATOM     21  C   UNL     1      -0.986  11.226  20.060  0.00  0.00    +0.000 A 
ENDBRANCH   5  16
TORSDOF 2
ENDMDL
MODEL 8
REMARK VINA RESULT:      -6.7      2.039      2.753
REMARK  Name = 
REMARK  3 active torsions:
REMARK  status: ('A' for Active; 'I' for Inactive)
REMARK    1  A    between atoms: C_1  and  C_2
REMARK    2  A    between atoms: C_5  and  N_6
REMARK    3  A    between atoms: C_10  and  C_11
REMARK                            x       y       z     vdW  Elec       q    Type
REMARK                         _______ _______ _______ _____ _____    ______ ____
ROOT
ATOM      1  N   UNL     1       2.433   7.207  18.226  0.00  0.00    +0.000 N 
ATOM      2  C   UNL     1       1.918   7.933  19.246  0.00  0.00    +0.000 A 
ATOM      3  N   UNL     1       1.893   7.637  20.528  0.00  0.00    +0.000 NA
ATOM      4  N   UNL     1       1.232   8.569  21.293  0.00  0.00    +0.000 NA
ATOM      5  C   UNL     1       0.740   9.552  20.569  0.00  0.00    +0.000 A 
ATOM      6  S   UNL     1       1.154   9.443  18.903  0.00  0.00    +0.000 S 
ATOM      7  H   UNL     1       2.346   7.598  17.294  0.00  0.00    +0.000 HD
ENDROOT
BRANCH   1  12
ATOM      8  C   UNL     1       3.595   1.575  17.984  0.00  0.00    +0.000 C 
ATOM      9  C   UNL     1       3.293   3.040  18.074  0.00  0.00    +0.000 A 
ATOM     10  C   UNL     1       2.058   3.486  18.544  0.00  0.00    +0.000 A 
ATOM     11  C   UNL     1       1.773   4.853  18.615  0.00  0.00    +0.000 A 
ATOM     12  C   UNL     1       2.702   5.818  18.204  0.00  0.00    +0.000 A 
ATOM     13  C   UNL     1       3.955   5.352  17.753  0.00  0.00    +0.000 A 
ATOM     14 BR   UNL     1       5.304   6.572  17.186  0.00  0.00    +0.000 Br
ATOM     15  C   UNL     1       4.247   3.985  17.684  0.00  0.00    +0.000 A 
ENDBRANCH   1  12
BRANCH   5  16
ATOM     16  C   UNL     1      -0.045  10.665  21.109  0.00  0.00    +0.000 A 
ATOM     17  C   UNL     1      -0.515  10.590  22.426  0.00  0.00    +0.000 A 
ATOM     18  C   UNL     1      -1.267  11.638  22.926  0.00  0.00    +0.000 A 
ATOM     19  N   UNL     1      -1.585  12.738  22.211  0.00  0.00    +0.000 NA
ATOM     20  C   UNL     1      -1.142  12.786  20.939  0.00  0.00    +0.000 A 
ATOM     21  C   UNL     1      -0.381  11.790  20.350  0.00  0.00    +0.000 A 
ENDBRANCH   5  16
TORSDOF 2
ENDMDL
MODEL 9
REMARK VINA RESULT:      -6.6      2.630      8.209
REMARK  Name = 
REMARK  3 active torsions:
REMARK  status: ('A' for Active; 'I' for Inactive)
REMARK    1  A    between atoms: C_1  and  C_2
REMARK    2  A    between atoms: C_5  and  N_6
REMARK    3  A    between atoms: C_10  and  C_11
REMARK                            x       y       z     vdW  Elec       q    Type
REMARK                         _______ _______ _______ _____ _____    ______ ____
ROOT
ATOM      1  N   UNL     1       1.534   8.768  18.726  0.00  0.00    +0.000 N 
ATOM      2  C   UNL     1       2.424   7.749  18.679  0.00  0.00    +0.000 A 
ATOM      3  N   UNL     1       2.584   6.764  19.539  0.00  0.00    +0.000 NA
ATOM      4  N   UNL     1       3.629   5.927  19.224  0.00  0.00    +0.000 NA
ATOM      5  C   UNL     1       4.264   6.308  18.136  0.00  0.00    +0.000 A 
ATOM      6  S   UNL     1       3.546   7.669  17.369  0.00  0.00    +0.000 S 
ATOM      7  H   UNL     1       1.569   9.444  17.971  0.00  0.00    +0.000 HD
ENDROOT
BRANCH   1  12
ATOM      8  C   UNL     1      -1.277  10.928  23.261  0.00  0.00    +0.000 C 
ATOM      9  C   UNL     1      -0.553  10.341  22.087  0.00  0.00    +0.000 A 
ATOM     10  C   UNL     1       0.579   9.547  22.272  0.00  0.00    +0.000 A 
ATOM     11  C   UNL     1       1.260   9.010  21.175  0.00  0.00    +0.000 A 
ATOM     12  C   UNL     1       0.846   9.262  19.859  0.00  0.00    +0.000 A 
ATOM     13  C   UNL     1      -0.314  10.047  19.690  0.00  0.00    +0.000 A 
ATOM     14 BR   UNL     1      -0.982  10.440  17.950  0.00  0.00    +0.000 Br
ATOM     15  C   UNL     1      -1.002  10.583  20.785  0.00  0.00    +0.000 A 
ENDBRANCH   1  12
BRANCH   5  16
ATOM     16  C   UNL     1       5.441   5.630  17.585  0.00  0.00    +0.000 A 
ATOM     17  C   UNL     1       5.440   5.253  16.237  0.00  0.00    +0.000 A 
ATOM     18  C   UNL     1       6.548   4.602  15.725  0.00  0.00    +0.000 A 
ATOM     19  N   UNL     1       7.640   4.297  16.458  0.00  0.00    +0.000 NA
ATOM     20  C   UNL     1       7.618   4.650  17.759  0.00  0.00    +0.000 A 
ATOM     21  C   UNL     1       6.558   5.307  18.361  0.00  0.00    +0.000 A 
ENDBRANCH   5  16
TORSDOF 2
ENDMDL
