MODEL 1
REMARK VINA RESULT:      -7.1      0.000      0.000
REMARK  Name = 
REMARK  7 active torsions:
REMARK  status: ('A' for Active; 'I' for Inactive)
REMARK    1  A    between atoms: C_1  and  C_2
REMARK    2  A    between atoms: C_2  and  C_3
REMARK    3  A    between atoms: C_2  and  O_4
REMARK    4  A    between atoms: C_2  and  C_5
REMARK    5  A    between atoms: C_5  and  C_6
REMARK    6  A    between atoms: N_8  and  C_9
REMARK    7  A    between atoms: C_18  and  C_19
REMARK                            x       y       z     vdW  Elec       q    Type
REMARK                         _______ _______ _______ _____ _____    ______ ____
ROOT
ATOM      1  C   UNL     1       0.090  11.123  22.106  0.00  0.00    +0.000 C 
ATOM      2  C   UNL     1       1.176  11.523  21.111  0.00  0.00    +0.000 C 
ATOM      3  C   UNL     1       0.973  10.901  19.734  0.00  0.00    +0.000 C 
ATOM      4  N   UNL     1       0.747   9.464  19.845  0.00  0.00    +0.000 N 
ATOM      5  C   UNL     1       1.577   8.538  19.239  0.00  0.00    +0.000 A 
ATOM      6  C   UNL     1       2.306   8.873  18.102  0.00  0.00    +0.000 A 
ATOM      7  C   UNL     1       3.150   7.949  17.494  0.00  0.00    +0.000 A 
ATOM      8  C   UNL     1       3.262   6.672  18.026  0.00  0.00    +0.000 A 
ATOM      9 CL   UNL     1       4.265   5.570  17.149  0.00  0.00    +0.000 Cl
ATOM     10  C   UNL     1       2.523   6.361  19.170  0.00  0.00    +0.000 A 
ATOM     11  N   UNL     1       1.674   7.284  19.747  0.00  0.00    +0.000 NA
ATOM     12  C   UNL     1      -0.311   9.023  20.751  0.00  0.00    +0.000 C 
ATOM     13  C   UNL     1      -0.088   9.600  22.143  0.00  0.00    +0.000 C 
ENDROOT
BRANCH  10  14
ATOM     14  C   UNL     1       2.600   5.054  19.868  0.00  0.00    +0.000 A 
ATOM     15  C   UNL     1       1.633   4.636  20.785  0.00  0.00    +0.000 A 
ATOM     16  C   UNL     1       1.783   3.408  21.431  0.00  0.00    +0.000 A 
ATOM     17  C   UNL     1       2.888   2.616  21.148  0.00  0.00    +0.000 A 
ATOM     18  C   UNL     1       3.802   3.087  20.228  0.00  0.00    +0.000 A 
ATOM     19  N   UNL     1       3.686   4.279  19.604  0.00  0.00    +0.000 NA
ENDBRANCH  10  14
BRANCH   1  22
ATOM     20  C   UNL     1      -1.530  12.926  22.601  0.00  0.00    +0.000 C 
ATOM     21  O   UNL     1      -0.819  13.393  23.488  0.00  0.00    +0.000 OA
ATOM     22  N   UNL     1      -1.169  11.827  21.855  0.00  0.00    +0.000 N 
ATOM     23  H   UNL     1      -1.870  11.390  21.267  0.00  0.00    +0.000 HD
BRANCH  20  24
ATOM     24  C   UNL     1      -2.842  13.567  22.220  0.00  0.00    +0.000 C 
BRANCH  24  26
ATOM     25  C   UNL     1      -5.301  12.931  22.402  0.00  0.00    +0.000 C 
ATOM     26  C   UNL     1      -4.001  13.201  23.161  0.00  0.00    +0.000 C 
ATOM     27  C   UNL     1      -4.236  14.260  24.244  0.00  0.00    +0.000 C 
BRANCH  26  28
ATOM     28  O   UNL     1      -3.626  11.975  23.809  0.00  0.00    +0.000 OA
ATOM     29  H   UNL     1      -4.228  11.273  23.507  0.00  0.00    +0.000 HD
ENDBRANCH  26  28
ENDBRANCH  24  26
ENDBRANCH  20  24
ENDBRANCH   1  22
TORSDOF 5
ENDMDL
MODEL 2
REMARK VINA RESULT:      -6.9      1.010      1.143
REMARK  Name = 
REMARK  7 active torsions:
REMARK  status: ('A' for Active; 'I' for Inactive)
REMARK    1  A    between atoms: C_1  and  C_2
REMARK    2  A    between atoms: C_2  and  C_3
REMARK    3  A    between atoms: C_2  and  O_4
REMARK    4  A    between atoms: C_2  and  C_5
REMARK    5  A    between atoms: C_5  and  C_6
REMARK    6  A    between atoms: N_8  and  C_9
REMARK    7  A    between atoms: C_18  and  C_19
REMARK                            x       y       z     vdW  Elec       q    Type
REMARK                         _______ _______ _______ _____ _____    ______ ____
ROOT
ATOM      1  C   UNL     1      -0.009  11.369  21.690  0.00  0.00    +0.000 C 
ATOM      2  C   UNL     1       1.263  11.627  20.888  0.00  0.00    +0.000 C 
ATOM      3  C   UNL     1       1.203  11.042  19.482  0.00  0.00    +0.000 C 
ATOM      4  N   UNL     1       0.779   9.646  19.521  0.00  0.00    +0.000 N 
ATOM      5  C   UNL     1       1.567   8.621  19.030  0.00  0.00    +0.000 A 
ATOM      6  C   UNL     1       2.505   8.861  18.030  0.00  0.00    +0.000 A 
ATOM      7  C   UNL     1       3.308   7.837  17.540  0.00  0.00    +0.000 A 
ATOM      8  C   UNL     1       3.169   6.555  18.052  0.00  0.00    +0.000 A 
ATOM      9 CL   UNL     1       4.148   5.333  17.317  0.00  0.00    +0.000 Cl
ATOM     10  C   UNL     1       2.224   6.339  19.058  0.00  0.00    +0.000 A 
ATOM     11  N   UNL     1       1.420   7.364  19.517  0.00  0.00    +0.000 NA
ATOM     12  C   UNL     1      -0.457   9.345  20.238  0.00  0.00    +0.000 C 
ATOM     13  C   UNL     1      -0.386   9.883  21.663  0.00  0.00    +0.000 C 
ENDROOT
BRANCH  10  14
ATOM     14  C   UNL     1       2.020   5.030  19.728  0.00  0.00    +0.000 A 
ATOM     15  C   UNL     1       1.399   3.952  19.095  0.00  0.00    +0.000 A 
ATOM     16  C   UNL     1       1.209   2.759  19.794  0.00  0.00    +0.000 A 
ATOM     17  C   UNL     1       1.646   2.660  21.108  0.00  0.00    +0.000 A 
ATOM     18  C   UNL     1       2.257   3.762  21.671  0.00  0.00    +0.000 A 
ATOM     19  N   UNL     1       2.435   4.931  21.020  0.00  0.00    +0.000 NA
ENDBRANCH  10  14
BRANCH   1  22
ATOM     20  C   UNL     1      -1.647  13.176  22.110  0.00  0.00    +0.000 C 
ATOM     21  O   UNL     1      -1.223  13.367  23.248  0.00  0.00    +0.000 OA
ATOM     22  N   UNL     1      -1.111  12.233  21.262  0.00  0.00    +0.000 N 
ATOM     23  H   UNL     1      -1.614  12.006  20.411  0.00  0.00    +0.000 HD
BRANCH  20  24
ATOM     24  C   UNL     1      -2.761  14.012  21.531  0.00  0.00    +0.000 C 
BRANCH  24  26
ATOM     25  C   UNL     1      -4.611  12.731  20.338  0.00  0.00    +0.000 C 
ATOM     26  C   UNL     1      -4.147  13.359  21.653  0.00  0.00    +0.000 C 
ATOM     27  C   UNL     1      -5.211  14.330  22.175  0.00  0.00    +0.000 C 
BRANCH  26  28
ATOM     28  O   UNL     1      -4.011  12.292  22.607  0.00  0.00    +0.000 OA
ATOM     29  H   UNL     1      -3.583  11.539  22.163  0.00  0.00    +0.000 HD
ENDBRANCH  26  28
ENDBRANCH  24  26
ENDBRANCH  20  24
ENDBRANCH   1  22
TORSDOF 5
ENDMDL
MODEL 3
REMARK VINA RESULT:      -6.8      0.888      1.226
REMARK  Name = 
REMARK  7 active torsions:
REMARK  status: ('A' for Active; 'I' for Inactive)
REMARK    1  A    between atoms: C_1  and  C_2
REMARK    2  A    between atoms: C_2  and  C_3
REMARK    3  A    between atoms: C_2  and  O_4
REMARK    4  A    between atoms: C_2  and  C_5
REMARK    5  A    between atoms: C_5  and  C_6
REMARK    6  A    between atoms: N_8  and  C_9
REMARK    7  A    between atoms: C_18  and  C_19
REMARK                            x       y       z     vdW  Elec       q    Type
REMARK                         _______ _______ _______ _____ _____    ______ ____
ROOT
ATOM      1  C   UNL     1      -0.088  10.891  22.432  0.00  0.00    +0.000 C 
ATOM      2  C   UNL     1       0.939  11.393  21.421  0.00  0.00    +0.000 C 
ATOM      3  C   UNL     1       0.738  10.802  20.031  0.00  0.00    +0.000 C 
ATOM      4  N   UNL     1       0.610   9.350  20.101  0.00  0.00    +0.000 N 
ATOM      5  C   UNL     1       1.481   8.500  19.443  0.00  0.00    +0.000 A 
ATOM      6  C   UNL     1       2.153   8.917  18.298  0.00  0.00    +0.000 A 
ATOM      7  C   UNL     1       3.039   8.071  17.639  0.00  0.00    +0.000 A 
ATOM      8  C   UNL     1       3.250   6.789  18.126  0.00  0.00    +0.000 A 
ATOM      9 CL   UNL     1       4.298   5.783  17.187  0.00  0.00    +0.000 Cl
ATOM     10  C   UNL     1       2.567   6.394  19.278  0.00  0.00    +0.000 A 
ATOM     11  N   UNL     1       1.676   7.240  19.908  0.00  0.00    +0.000 NA
ATOM     12  C   UNL     1      -0.389   8.812  21.020  0.00  0.00    +0.000 C 
ATOM     13  C   UNL     1      -0.164   9.360  22.424  0.00  0.00    +0.000 C 
ENDROOT
BRANCH  10  14
ATOM     14  C   UNL     1       2.750   5.074  19.932  0.00  0.00    +0.000 A 
ATOM     15  C   UNL     1       3.707   4.152  19.505  0.00  0.00    +0.000 A 
ATOM     16  C   UNL     1       3.805   2.915  20.144  0.00  0.00    +0.000 A 
ATOM     17  C   UNL     1       2.953   2.621  21.200  0.00  0.00    +0.000 A 
ATOM     18  C   UNL     1       2.034   3.581  21.575  0.00  0.00    +0.000 A 
ATOM     19  N   UNL     1       1.910   4.777  20.960  0.00  0.00    +0.000 NA
ENDBRANCH  10  14
BRANCH   1  22
ATOM     20  C   UNL     1      -1.709  12.717  22.836  0.00  0.00    +0.000 C 
ATOM     21  O   UNL     1      -0.912  13.340  23.534  0.00  0.00    +0.000 OA
ATOM     22  N   UNL     1      -1.398  11.517  22.238  0.00  0.00    +0.000 N 
ATOM     23  H   UNL     1      -2.149  10.974  21.825  0.00  0.00    +0.000 HD
BRANCH  20  24
ATOM     24  C   UNL     1      -3.084  13.257  22.532  0.00  0.00    +0.000 C 
BRANCH  24  26
ATOM     25  C   UNL     1      -4.160  12.363  24.660  0.00  0.00    +0.000 C 
ATOM     26  C   UNL     1      -3.905  13.593  23.787  0.00  0.00    +0.000 C 
ATOM     27  C   UNL     1      -5.231  14.286  23.455  0.00  0.00    +0.000 C 
BRANCH  26  28
ATOM     28  O   UNL     1      -3.107  14.504  24.562  0.00  0.00    +0.000 OA
ATOM     29  H   UNL     1      -2.172  14.350  24.346  0.00  0.00    +0.000 HD
ENDBRANCH  26  28
ENDBRANCH  24  26
ENDBRANCH  20  24
ENDBRANCH   1  22
TORSDOF 5
ENDMDL
MODEL 4
REMARK VINA RESULT:      -6.7      1.073      1.652
REMARK  Name = 
REMARK  7 active torsions:
REMARK  status: ('A' for Active; 'I' for Inactive)
REMARK    1  A    between atoms: C_1  and  C_2
REMARK    2  A    between atoms: C_2  and  C_3
REMARK    3  A    between atoms: C_2  and  O_4
REMARK    4  A    between atoms: C_2  and  C_5
REMARK    5  A    between atoms: C_5  and  C_6
REMARK    6  A    between atoms: N_8  and  C_9
REMARK    7  A    between atoms: C_18  and  C_19
REMARK                            x       y       z     vdW  Elec       q    Type
REMARK                         _______ _______ _______ _____ _____    ______ ____
ROOT
ATOM      1  C   UNL     1       0.003  10.880  22.409  0.00  0.00    +0.000 C 
ATOM      2  C   UNL     1       1.003  11.368  21.366  0.00  0.00    +0.000 C 
ATOM      3  C   UNL     1       0.768  10.755  19.990  0.00  0.00    +0.000 C 
ATOM      4  N   UNL     1       0.645   9.304  20.085  0.00  0.00    +0.000 N 
ATOM      5  C   UNL     1       1.501   8.446  19.418  0.00  0.00    +0.000 A 
ATOM      6  C   UNL     1       2.143   8.848  18.251  0.00  0.00    +0.000 A 
ATOM      7  C   UNL     1       3.013   7.993  17.582  0.00  0.00    +0.000 A 
ATOM      8  C   UNL     1       3.240   6.719  18.082  0.00  0.00    +0.000 A 
ATOM      9 CL   UNL     1       4.266   5.701  17.133  0.00  0.00    +0.000 Cl
ATOM     10  C   UNL     1       2.587   6.340  19.258  0.00  0.00    +0.000 A 
ATOM     11  N   UNL     1       1.710   7.194  19.897  0.00  0.00    +0.000 NA
ATOM     12  C   UNL     1      -0.330   8.779  21.037  0.00  0.00    +0.000 C 
ATOM     13  C   UNL     1      -0.070   9.348  22.427  0.00  0.00    +0.000 C 
ENDROOT
BRANCH  10  14
ATOM     14  C   UNL     1       2.790   5.031  19.926  0.00  0.00    +0.000 A 
ATOM     15  C   UNL     1       3.734   4.102  19.485  0.00  0.00    +0.000 A 
ATOM     16  C   UNL     1       3.851   2.875  20.140  0.00  0.00    +0.000 A 
ATOM     17  C   UNL     1       3.030   2.598  21.226  0.00  0.00    +0.000 A 
ATOM     18  C   UNL     1       2.123   3.564  21.613  0.00  0.00    +0.000 A 
ATOM     19  N   UNL     1       1.981   4.750  20.983  0.00  0.00    +0.000 NA
ENDBRANCH  10  14
BRANCH   1  22
ATOM     20  C   UNL     1      -1.616  12.701  22.839  0.00  0.00    +0.000 C 
ATOM     21  O   UNL     1      -0.808  13.330  23.519  0.00  0.00    +0.000 OA
ATOM     22  N   UNL     1      -1.313  11.500  22.239  0.00  0.00    +0.000 N 
ATOM     23  H   UNL     1      -2.070  10.953  21.844  0.00  0.00    +0.000 HD
BRANCH  20  24
ATOM     24  C   UNL     1      -2.999  13.235  22.561  0.00  0.00    +0.000 C 
BRANCH  24  26
ATOM     25  C   UNL     1      -3.756  15.181  21.102  0.00  0.00    +0.000 C 
ATOM     26  C   UNL     1      -3.177  13.766  21.129  0.00  0.00    +0.000 C 
ATOM     27  C   UNL     1      -4.027  12.834  20.258  0.00  0.00    +0.000 C 
BRANCH  26  28
ATOM     28  O   UNL     1      -1.861  13.835  20.556  0.00  0.00    +0.000 OA
ATOM     29  H   UNL     1      -1.221  13.972  21.276  0.00  0.00    +0.000 HD
ENDBRANCH  26  28
ENDBRANCH  24  26
ENDBRANCH  20  24
ENDBRANCH   1  22
TORSDOF 5
ENDMDL
MODEL 5
REMARK VINA RESULT:      -6.6      4.527      9.365
REMARK  Name = 
REMARK  7 active torsions:
REMARK  status: ('A' for Active; 'I' for Inactive)
REMARK    1  A    between atoms: C_1  and  C_2
REMARK    2  A    between atoms: C_2  and  C_3
REMARK    3  A    between atoms: C_2  and  O_4
REMARK    4  A    between atoms: C_2  and  C_5
REMARK    5  A    between atoms: C_5  and  C_6
REMARK    6  A    between atoms: N_8  and  C_9
REMARK    7  A    between atoms: C_18  and  C_19
REMARK                            x       y       z     vdW  Elec       q    Type
REMARK                         _______ _______ _______ _____ _____    ______ ____
ROOT
ATOM      1  C   UNL     1       2.328   7.629  19.578  0.00  0.00    +0.000 C 
ATOM      2  C   UNL     1       1.974   7.782  21.055  0.00  0.00    +0.000 C 
ATOM      3  C   UNL     1       0.552   8.287  21.272  0.00  0.00    +0.000 C 
ATOM      4  N   UNL     1       0.294   9.469  20.457  0.00  0.00    +0.000 N 
ATOM      5  C   UNL     1      -0.063  10.685  21.013  0.00  0.00    +0.000 A 
ATOM      6  C   UNL     1      -0.706  10.741  22.246  0.00  0.00    +0.000 A 
ATOM      7  C   UNL     1      -1.058  11.960  22.815  0.00  0.00    +0.000 A 
ATOM      8  C   UNL     1      -0.770  13.138  22.141  0.00  0.00    +0.000 A 
ATOM      9 CL   UNL     1      -1.327  14.596  22.886  0.00  0.00    +0.000 Cl
ATOM     10  C   UNL     1      -0.121  13.056  20.906  0.00  0.00    +0.000 A 
ATOM     11  N   UNL     1       0.202  11.836  20.346  0.00  0.00    +0.000 NA
ATOM     12  C   UNL     1       0.573   9.368  19.027  0.00  0.00    +0.000 C 
ATOM     13  C   UNL     1       2.010   8.912  18.801  0.00  0.00    +0.000 C 
ENDROOT
BRANCH  10  14
ATOM     14  C   UNL     1       0.294  14.241  20.115  0.00  0.00    +0.000 A 
ATOM     15  C   UNL     1      -0.615  15.019  19.395  0.00  0.00    +0.000 A 
ATOM     16  C   UNL     1      -0.153  16.101  18.645  0.00  0.00    +0.000 A 
ATOM     17  C   UNL     1       1.205  16.393  18.630  0.00  0.00    +0.000 A 
ATOM     18  C   UNL     1       2.047  15.587  19.369  0.00  0.00    +0.000 A 
ATOM     19  N   UNL     1       1.624  14.525  20.087  0.00  0.00    +0.000 NA
ENDBRANCH  10  14
BRANCH   1  22
ATOM     20  C   UNL     1       2.418   5.594  18.173  0.00  0.00    +0.000 C 
ATOM     21  O   UNL     1       3.611   5.756  17.923  0.00  0.00    +0.000 OA
ATOM     22  N   UNL     1       1.703   6.446  18.985  0.00  0.00    +0.000 N 
ATOM     23  H   UNL     1       0.693   6.357  19.007  0.00  0.00    +0.000 HD
BRANCH  20  24
ATOM     24  C   UNL     1       1.656   4.403  17.648  0.00  0.00    +0.000 C 
BRANCH  24  26
ATOM     25  C   UNL     1       2.814   2.136  17.683  0.00  0.00    +0.000 C 
ATOM     26  C   UNL     1       1.912   3.111  18.440  0.00  0.00    +0.000 C 
ATOM     27  C   UNL     1       0.615   2.410  18.858  0.00  0.00    +0.000 C 
BRANCH  26  28
ATOM     28  O   UNL     1       2.614   3.499  19.633  0.00  0.00    +0.000 OA
ATOM     29  H   UNL     1       3.377   4.044  19.374  0.00  0.00    +0.000 HD
ENDBRANCH  26  28
ENDBRANCH  24  26
ENDBRANCH  20  24
ENDBRANCH   1  22
TORSDOF 5
ENDMDL
MODEL 6
REMARK VINA RESULT:      -6.6      0.773      1.151
REMARK  Name = 
REMARK  7 active torsions:
REMARK  status: ('A' for Active; 'I' for Inactive)
REMARK    1  A    between atoms: C_1  and  C_2
REMARK    2  A    between atoms: C_2  and  C_3
REMARK    3  A    between atoms: C_2  and  O_4
REMARK    4  A    between atoms: C_2  and  C_5
REMARK    5  A    between atoms: C_5  and  C_6
REMARK    6  A    between atoms: N_8  and  C_9
REMARK    7  A    between atoms: C_18  and  C_19
REMARK                            x       y       z     vdW  Elec       q    Type
REMARK                         _______ _______ _______ _____ _____    ______ ____
ROOT
ATOM      1  C   UNL     1       0.015  11.223  21.774  0.00  0.00    +0.000 C 
ATOM      2  C   UNL     1       1.164  11.600  20.843  0.00  0.00    +0.000 C 
ATOM      3  C   UNL     1       1.046  10.955  19.467  0.00  0.00    +0.000 C 
ATOM      4  N   UNL     1       0.804   9.521  19.588  0.00  0.00    +0.000 N 
ATOM      5  C   UNL     1       1.665   8.580  19.053  0.00  0.00    +0.000 A 
ATOM      6  C   UNL     1       2.467   8.891  17.959  0.00  0.00    +0.000 A 
ATOM      7  C   UNL     1       3.343   7.953  17.423  0.00  0.00    +0.000 A 
ATOM      8  C   UNL     1       3.413   6.685  17.983  0.00  0.00    +0.000 A 
ATOM      9 CL   UNL     1       4.463   5.563  17.192  0.00  0.00    +0.000 Cl
ATOM     10  C   UNL     1       2.602   6.398  19.083  0.00  0.00    +0.000 A 
ATOM     11  N   UNL     1       1.722   7.335  19.589  0.00  0.00    +0.000 NA
ATOM     12  C   UNL     1      -0.312   9.102  20.433  0.00  0.00    +0.000 C 
ATOM     13  C   UNL     1      -0.174   9.703  21.827  0.00  0.00    +0.000 C 
ENDROOT
BRANCH  10  14
ATOM     14  C   UNL     1       2.626   5.103  19.808  0.00  0.00    +0.000 A 
ATOM     15  C   UNL     1       1.688   4.775  20.788  0.00  0.00    +0.000 A 
ATOM     16  C   UNL     1       1.787   3.553  21.455  0.00  0.00    +0.000 A 
ATOM     17  C   UNL     1       2.815   2.678  21.129  0.00  0.00    +0.000 A 
ATOM     18  C   UNL     1       3.704   3.063  20.146  0.00  0.00    +0.000 A 
ATOM     19  N   UNL     1       3.637   4.247  19.501  0.00  0.00    +0.000 NA
ENDBRANCH  10  14
BRANCH   1  22
ATOM     20  C   UNL     1      -2.207  12.136  22.370  0.00  0.00    +0.000 C 
ATOM     21  O   UNL     1      -2.100  11.773  23.540  0.00  0.00    +0.000 OA
ATOM     22  N   UNL     1      -1.222  11.929  21.431  0.00  0.00    +0.000 N 
ATOM     23  H   UNL     1      -1.443  12.092  20.455  0.00  0.00    +0.000 HD
BRANCH  20  24
ATOM     24  C   UNL     1      -3.416  12.895  21.886  0.00  0.00    +0.000 C 
BRANCH  24  26
ATOM     25  C   UNL     1      -4.356  14.567  23.562  0.00  0.00    +0.000 C 
ATOM     26  C   UNL     1      -3.448  14.361  22.349  0.00  0.00    +0.000 C 
ATOM     27  C   UNL     1      -3.847  15.324  21.225  0.00  0.00    +0.000 C 
BRANCH  26  28
ATOM     28  O   UNL     1      -2.110  14.685  22.760  0.00  0.00    +0.000 OA
ATOM     29  H   UNL     1      -1.489  14.203  22.188  0.00  0.00    +0.000 HD
ENDBRANCH  26  28
ENDBRANCH  24  26
ENDBRANCH  20  24
ENDBRANCH   1  22
TORSDOF 5
ENDMDL
MODEL 7
REMARK VINA RESULT:      -6.6      4.534      9.291
REMARK  Name = 
REMARK  7 active torsions:
REMARK  status: ('A' for Active; 'I' for Inactive)
REMARK    1  A    between atoms: C_1  and  C_2
REMARK    2  A    between atoms: C_2  and  C_3
REMARK    3  A    between atoms: C_2  and  O_4
REMARK    4  A    between atoms: C_2  and  C_5
REMARK    5  A    between atoms: C_5  and  C_6
REMARK    6  A    between atoms: N_8  and  C_9
REMARK    7  A    between atoms: C_18  and  C_19
REMARK                            x       y       z     vdW  Elec       q    Type
REMARK                         _______ _______ _______ _____ _____    ______ ____
ROOT
ATOM      1  C   UNL     1       2.389   7.594  19.192  0.00  0.00    +0.000 C 
ATOM      2  C   UNL     1       2.116   7.698  20.690  0.00  0.00    +0.000 C 
ATOM      3  C   UNL     1       0.706   8.184  21.001  0.00  0.00    +0.000 C 
ATOM      4  N   UNL     1       0.396   9.390  20.240  0.00  0.00    +0.000 N 
ATOM      5  C   UNL     1       0.063  10.585  20.853  0.00  0.00    +0.000 A 
ATOM      6  C   UNL     1      -0.511  10.597  22.121  0.00  0.00    +0.000 A 
ATOM      7  C   UNL     1      -0.838  11.795  22.747  0.00  0.00    +0.000 A 
ATOM      8  C   UNL     1      -0.595  12.996  22.096  0.00  0.00    +0.000 A 
ATOM      9 CL   UNL     1      -1.118  14.425  22.917  0.00  0.00    +0.000 Cl
ATOM     10  C   UNL     1      -0.015  12.958  20.826  0.00  0.00    +0.000 A 
ATOM     11  N   UNL     1       0.284  11.758  20.210  0.00  0.00    +0.000 NA
ATOM     12  C   UNL     1       0.597   9.336  18.794  0.00  0.00    +0.000 C 
ATOM     13  C   UNL     1       2.021   8.898  18.475  0.00  0.00    +0.000 C 
ENDROOT
BRANCH  10  14
ATOM     14  C   UNL     1       0.350  14.170  20.051  0.00  0.00    +0.000 A 
ATOM     15  C   UNL     1      -0.601  14.959  19.401  0.00  0.00    +0.000 A 
ATOM     16  C   UNL     1      -0.187  16.068  18.662  0.00  0.00    +0.000 A 
ATOM     17  C   UNL     1       1.166  16.376  18.589  0.00  0.00    +0.000 A 
ATOM     18  C   UNL     1       2.051  15.557  19.261  0.00  0.00    +0.000 A 
ATOM     19  N   UNL     1       1.674  14.470  19.967  0.00  0.00    +0.000 NA
ENDBRANCH  10  14
BRANCH   1  22
ATOM     20  C   UNL     1       2.418   5.240  18.432  0.00  0.00    +0.000 C 
ATOM     21  O   UNL     1       3.583   5.082  18.794  0.00  0.00    +0.000 OA
ATOM     22  N   UNL     1       1.739   6.425  18.596  0.00  0.00    +0.000 N 
ATOM     23  H   UNL     1       0.850   6.543  18.122  0.00  0.00    +0.000 HD
BRANCH  20  24
ATOM     24  C   UNL     1       1.620   4.112  17.826  0.00  0.00    +0.000 C 
BRANCH  24  26
ATOM     25  C   UNL     1       1.091   3.416  20.218  0.00  0.00    +0.000 C 
ATOM     26  C   UNL     1       1.377   2.942  18.793  0.00  0.00    +0.000 C 
ATOM     27  C   UNL     1       2.531   1.933  18.796  0.00  0.00    +0.000 C 
BRANCH  26  28
ATOM     28  O   UNL     1       0.197   2.268  18.324  0.00  0.00    +0.000 OA
ATOM     29  H   UNL     1       0.346   1.309  18.394  0.00  0.00    +0.000 HD
ENDBRANCH  26  28
ENDBRANCH  24  26
ENDBRANCH  20  24
ENDBRANCH   1  22
TORSDOF 5
ENDMDL
MODEL 8
REMARK VINA RESULT:      -6.4      1.519      1.793
REMARK  Name = 
REMARK  7 active torsions:
REMARK  status: ('A' for Active; 'I' for Inactive)
REMARK    1  A    between atoms: C_1  and  C_2
REMARK    2  A    between atoms: C_2  and  C_3
REMARK    3  A    between atoms: C_2  and  O_4
REMARK    4  A    between atoms: C_2  and  C_5
REMARK    5  A    between atoms: C_5  and  C_6
REMARK    6  A    between atoms: N_8  and  C_9
REMARK    7  A    between atoms: C_18  and  C_19
REMARK                            x       y       z     vdW  Elec       q    Type
REMARK                         _______ _______ _______ _____ _____    ______ ____
ROOT
ATOM      1  C   UNL     1       0.135  11.577  21.228  0.00  0.00    +0.000 C 
ATOM      2  C   UNL     1       1.450  11.736  20.472  0.00  0.00    +0.000 C 
ATOM      3  C   UNL     1       1.429  11.069  19.102  0.00  0.00    +0.000 C 
ATOM      4  N   UNL     1       0.946   9.696  19.204  0.00  0.00    +0.000 N 
ATOM      5  C   UNL     1       1.714   8.614  18.812  0.00  0.00    +0.000 A 
ATOM      6  C   UNL     1       2.703   8.757  17.844  0.00  0.00    +0.000 A 
ATOM      7  C   UNL     1       3.486   7.674  17.454  0.00  0.00    +0.000 A 
ATOM      8  C   UNL     1       3.272   6.432  18.034  0.00  0.00    +0.000 A 
ATOM      9 CL   UNL     1       4.232   5.132  17.419  0.00  0.00    +0.000 Cl
ATOM     10  C   UNL     1       2.276   6.314  19.006  0.00  0.00    +0.000 A 
ATOM     11  N   UNL     1       1.494   7.395  19.366  0.00  0.00    +0.000 NA
ATOM     12  C   UNL     1      -0.331   9.486  19.880  0.00  0.00    +0.000 C 
ATOM     13  C   UNL     1      -0.300  10.107  21.271  0.00  0.00    +0.000 C 
ENDROOT
BRANCH  10  14
ATOM     14  C   UNL     1       1.989   5.058  19.743  0.00  0.00    +0.000 A 
ATOM     15  C   UNL     1       2.413   4.846  21.056  0.00  0.00    +0.000 A 
ATOM     16  C   UNL     1       2.138   3.628  21.680  0.00  0.00    +0.000 A 
ATOM     17  C   UNL     1       1.440   2.647  20.987  0.00  0.00    +0.000 A 
ATOM     18  C   UNL     1       1.045   2.926  19.695  0.00  0.00    +0.000 A 
ATOM     19  N   UNL     1       1.316   4.089  19.066  0.00  0.00    +0.000 NA
ENDBRANCH  10  14
BRANCH   1  22
ATOM     20  C   UNL     1      -1.766  13.130  21.539  0.00  0.00    +0.000 C 
ATOM     21  O   UNL     1      -1.688  13.064  22.764  0.00  0.00    +0.000 OA
ATOM     22  N   UNL     1      -0.912  12.454  20.699  0.00  0.00    +0.000 N 
ATOM     23  H   UNL     1      -1.138  12.412  19.711  0.00  0.00    +0.000 HD
BRANCH  20  24
ATOM     24  C   UNL     1      -2.780  14.016  20.860  0.00  0.00    +0.000 C 
BRANCH  24  26
ATOM     25  C   UNL     1      -4.778  12.704  21.741  0.00  0.00    +0.000 C 
ATOM     26  C   UNL     1      -4.091  13.294  20.508  0.00  0.00    +0.000 C 
ATOM     27  C   UNL     1      -3.897  12.207  19.445  0.00  0.00    +0.000 C 
BRANCH  26  28
ATOM     28  O   UNL     1      -4.972  14.293  19.969  0.00  0.00    +0.000 OA
ATOM     29  H   UNL     1      -5.406  14.750  20.710  0.00  0.00    +0.000 HD
ENDBRANCH  26  28
ENDBRANCH  24  26
ENDBRANCH  20  24
ENDBRANCH   1  22
TORSDOF 5
ENDMDL
MODEL 9
REMARK VINA RESULT:      -6.3      1.010      1.337
REMARK  Name = 
REMARK  7 active torsions:
REMARK  status: ('A' for Active; 'I' for Inactive)
REMARK    1  A    between atoms: C_1  and  C_2
REMARK    2  A    between atoms: C_2  and  C_3
REMARK    3  A    between atoms: C_2  and  O_4
REMARK    4  A    between atoms: C_2  and  C_5
REMARK    5  A    between atoms: C_5  and  C_6
REMARK    6  A    between atoms: N_8  and  C_9
REMARK    7  A    between atoms: C_18  and  C_19
REMARK                            x       y       z     vdW  Elec       q    Type
REMARK                         _______ _______ _______ _____ _____    ______ ____
ROOT
ATOM      1  C   UNL     1      -0.089  10.441  22.701  0.00  0.00    +0.000 C 
ATOM      2  C   UNL     1       0.865  11.043  21.673  0.00  0.00    +0.000 C 
ATOM      3  C   UNL     1       0.633  10.505  20.265  0.00  0.00    +0.000 C 
ATOM      4  N   UNL     1       0.585   9.046  20.272  0.00  0.00    +0.000 N 
ATOM      5  C   UNL     1       1.469   8.275  19.539  0.00  0.00    +0.000 A 
ATOM      6  C   UNL     1       2.066   8.780  18.388  0.00  0.00    +0.000 A 
ATOM      7  C   UNL     1       2.964   8.013  17.652  0.00  0.00    +0.000 A 
ATOM      8  C   UNL     1       3.264   6.724  18.068  0.00  0.00    +0.000 A 
ATOM      9 CL   UNL     1       4.319   5.820  17.040  0.00  0.00    +0.000 Cl
ATOM     10  C   UNL     1       2.654   6.241  19.229  0.00  0.00    +0.000 A 
ATOM     11  N   UNL     1       1.749   7.009  19.935  0.00  0.00    +0.000 NA
ATOM     12  C   UNL     1      -0.344   8.414  21.206  0.00  0.00    +0.000 C 
ATOM     13  C   UNL     1      -0.085   8.910  22.624  0.00  0.00    +0.000 C 
ENDROOT
BRANCH  10  14
ATOM     14  C   UNL     1       2.935   4.905  19.811  0.00  0.00    +0.000 A 
ATOM     15  C   UNL     1       2.131   4.334  20.799  0.00  0.00    +0.000 A 
ATOM     16  C   UNL     1       2.470   3.087  21.327  0.00  0.00    +0.000 A 
ATOM     17  C   UNL     1       3.600   2.430  20.858  0.00  0.00    +0.000 A 
ATOM     18  C   UNL     1       4.346   3.049  19.876  0.00  0.00    +0.000 A 
ATOM     19  N   UNL     1       4.047   4.262  19.363  0.00  0.00    +0.000 NA
ENDBRANCH  10  14
BRANCH   1  22
ATOM     20  C   UNL     1      -1.702  12.296  22.981  0.00  0.00    +0.000 C 
ATOM     21  O   UNL     1      -0.835  13.055  23.410  0.00  0.00    +0.000 OA
ATOM     22  N   UNL     1      -1.437  11.003  22.592  0.00  0.00    +0.000 N 
ATOM     23  H   UNL     1      -2.218  10.381  22.417  0.00  0.00    +0.000 HD
BRANCH  20  24
ATOM     24  C   UNL     1      -3.128  12.752  22.793  0.00  0.00    +0.000 C 
BRANCH  24  26
ATOM     25  C   UNL     1      -4.768  14.159  21.446  0.00  0.00    +0.000 C 
ATOM     26  C   UNL     1      -3.325  13.670  21.576  0.00  0.00    +0.000 C 
ATOM     27  C   UNL     1      -2.872  13.016  20.266  0.00  0.00    +0.000 C 
BRANCH  26  28
ATOM     28  O   UNL     1      -2.503  14.827  21.804  0.00  0.00    +0.000 OA
ATOM     29  H   UNL     1      -3.072  15.616  21.773  0.00  0.00    +0.000 HD
ENDBRANCH  26  28
ENDBRANCH  24  26
ENDBRANCH  20  24
ENDBRANCH   1  22
TORSDOF 5
ENDMDL
