MODEL 1
REMARK VINA RESULT:      -8.8      0.000      0.000
REMARK  Name = 
REMARK  6 active torsions:
REMARK  status: ('A' for Active; 'I' for Inactive)
REMARK    1  A    between atoms: C_2  and  C_4
REMARK    2  A    between atoms: C_14  and  O_15
REMARK    3  A    between atoms: O_15  and  C_16
REMARK    4  A    between atoms: C_16  and  C_17
REMARK    5  A    between atoms: C_17  and  C_19
REMARK    6  A    between atoms: C_24  and  C_25
REMARK                            x       y       z     vdW  Elec       q    Type
REMARK                         _______ _______ _______ _____ _____    ______ ____
ROOT
ATOM      1  O   UNL     1       2.076   6.581  20.501  0.00  0.00    +0.000 OA
ENDROOT
BRANCH   1  12
ATOM      2  C   UNL     1       1.518   8.801  19.401  0.00  0.00    +0.000 A 
ATOM      3  C   UNL     1       0.822  10.015  19.609  0.00  0.00    +0.000 A 
ATOM      4  C   UNL     1       0.152  10.302  20.802  0.00  0.00    +0.000 A 
ATOM      5  C   UNL     1      -0.484  11.535  20.996  0.00  0.00    +0.000 A 
ATOM      6  C   UNL     1      -1.138  11.809  22.195  0.00  0.00    +0.000 A 
ATOM      7 CL   UNL     1      -1.892  13.339  22.423  0.00  0.00    +0.000 Cl
ATOM      8  C   UNL     1      -1.178  10.856  23.206  0.00  0.00    +0.000 A 
ATOM      9  C   UNL     1      -0.551   9.620  23.018  0.00  0.00    +0.000 A 
ATOM     10  C   UNL     1       0.126   9.332  21.820  0.00  0.00    +0.000 A 
ATOM     11  C   UNL     1       0.786   8.107  21.602  0.00  0.00    +0.000 A 
ATOM     12  C   UNL     1       1.490   7.820  20.411  0.00  0.00    +0.000 A 
BRANCH   2  14
ATOM     13  N   UNL     1       2.858   7.551  17.783  0.00  0.00    +0.000 N 
ATOM     14  C   UNL     1       2.196   8.718  18.069  0.00  0.00    +0.000 C 
ATOM     15  O   UNL     1       2.233   9.630  17.257  0.00  0.00    +0.000 OA
ATOM     16  H   UNL     1       3.369   7.510  16.910  0.00  0.00    +0.000 HD
ATOM     17  H   UNL     1       2.906   6.754  18.401  0.00  0.00    +0.000 HD
ENDBRANCH   2  14
ENDBRANCH   1  12
BRANCH   1  18
ATOM     18  C   UNL     1       1.278   5.455  20.796  0.00  0.00    +0.000 C 
BRANCH  18  19
ATOM     19  C   UNL     1       1.999   4.107  20.952  0.00  0.00    +0.000 C 
ATOM     20  O   UNL     1       2.256   3.623  22.054  0.00  0.00    +0.000 OA
BRANCH  19  21
ATOM     21  C   UNL     1       2.356   3.419  19.700  0.00  0.00    +0.000 A 
ATOM     22  C   UNL     1       1.716   2.300  19.185  0.00  0.00    +0.000 A 
ATOM     23  N   UNL     1       2.312   1.949  18.010  0.00  0.00    +0.000 N 
ATOM     24  C   UNL     1       3.351   2.804  17.735  0.00  0.00    +0.000 A 
ATOM     25  C   UNL     1       4.237   2.820  16.649  0.00  0.00    +0.000 A 
ATOM     26  C   UNL     1       5.243   3.801  16.596  0.00  0.00    +0.000 A 
ATOM     27  C   UNL     1       5.323   4.721  17.653  0.00  0.00    +0.000 A 
ATOM     28  C   UNL     1       4.426   4.705  18.732  0.00  0.00    +0.000 A 
ATOM     29  C   UNL     1       3.412   3.730  18.778  0.00  0.00    +0.000 A 
ATOM     30  H   UNL     1       2.045   1.168  17.427  0.00  0.00    +0.000 HD
BRANCH  26  31
ATOM     31  C   UNL     1       6.231   3.831  15.454  0.00  0.00    +0.000 C 
ATOM     32  C   UNL     1       5.755   4.123  14.049  0.00  0.00    +0.000 C 
ATOM     33  C   UNL     1       6.576   5.140  14.781  0.00  0.00    +0.000 C 
ENDBRANCH  26  31
ENDBRANCH  19  21
ENDBRANCH  18  19
ENDBRANCH   1  18
TORSDOF 6
ENDMDL
MODEL 2
REMARK VINA RESULT:      -8.8      3.022      3.945
REMARK  Name = 
REMARK  6 active torsions:
REMARK  status: ('A' for Active; 'I' for Inactive)
REMARK    1  A    between atoms: C_2  and  C_4
REMARK    2  A    between atoms: C_14  and  O_15
REMARK    3  A    between atoms: O_15  and  C_16
REMARK    4  A    between atoms: C_16  and  C_17
REMARK    5  A    between atoms: C_17  and  C_19
REMARK    6  A    between atoms: C_24  and  C_25
REMARK                            x       y       z     vdW  Elec       q    Type
REMARK                         _______ _______ _______ _____ _____    ______ ____
ROOT
ATOM      1  O   UNL     1       1.739   9.848  18.679  0.00  0.00    +0.000 OA
ENDROOT
BRANCH   1  12
ATOM      2  C   UNL     1      -0.051  11.282  19.769  0.00  0.00    +0.000 A 
ATOM      3  C   UNL     1      -1.395  11.701  19.630  0.00  0.00    +0.000 A 
ATOM      4  C   UNL     1      -2.218  11.252  18.593  0.00  0.00    +0.000 A 
ATOM      5  C   UNL     1      -3.561  11.645  18.513  0.00  0.00    +0.000 A 
ATOM      6  C   UNL     1      -4.370  11.181  17.479  0.00  0.00    +0.000 A 
ATOM      7 CL   UNL     1      -6.023  11.655  17.412  0.00  0.00    +0.000 Cl
ATOM      8  C   UNL     1      -3.849  10.335  16.506  0.00  0.00    +0.000 A 
ATOM      9  C   UNL     1      -2.509   9.942  16.576  0.00  0.00    +0.000 A 
ATOM     10  C   UNL     1      -1.682  10.390  17.621  0.00  0.00    +0.000 A 
ATOM     11  C   UNL     1      -0.333  10.001  17.734  0.00  0.00    +0.000 A 
ATOM     12  C   UNL     1       0.498  10.425  18.796  0.00  0.00    +0.000 A 
BRANCH   2  14
ATOM     13  N   UNL     1       1.623  12.775  20.741  0.00  0.00    +0.000 N 
ATOM     14  C   UNL     1       0.634  11.853  20.972  0.00  0.00    +0.000 C 
ATOM     15  O   UNL     1       0.400  11.516  22.122  0.00  0.00    +0.000 OA
ATOM     16  H   UNL     1       2.131  13.120  21.545  0.00  0.00    +0.000 HD
ATOM     17  H   UNL     1       1.905  13.095  19.825  0.00  0.00    +0.000 HD
ENDBRANCH   2  14
ENDBRANCH   1  12
BRANCH   1  18
ATOM     18  C   UNL     1       1.847   8.527  18.193  0.00  0.00    +0.000 C 
BRANCH  18  19
ATOM     19  C   UNL     1       2.162   7.428  19.219  0.00  0.00    +0.000 C 
ATOM     20  O   UNL     1       2.076   7.617  20.432  0.00  0.00    +0.000 OA
BRANCH  19  21
ATOM     21  C   UNL     1       2.563   6.124  18.664  0.00  0.00    +0.000 A 
ATOM     22  C   UNL     1       2.007   4.898  19.003  0.00  0.00    +0.000 A 
ATOM     23  N   UNL     1       2.622   3.917  18.283  0.00  0.00    +0.000 N 
ATOM     24  C   UNL     1       3.590   4.462  17.475  0.00  0.00    +0.000 A 
ATOM     25  C   UNL     1       4.466   3.837  16.576  0.00  0.00    +0.000 A 
ATOM     26  C   UNL     1       5.393   4.618  15.864  0.00  0.00    +0.000 A 
ATOM     27  C   UNL     1       5.409   6.001  16.099  0.00  0.00    +0.000 A 
ATOM     28  C   UNL     1       4.522   6.621  16.993  0.00  0.00    +0.000 A 
ATOM     29  C   UNL     1       3.587   5.840  17.697  0.00  0.00    +0.000 A 
ATOM     30  H   UNL     1       2.412   2.930  18.337  0.00  0.00    +0.000 HD
BRANCH  26  31
ATOM     31  C   UNL     1       6.368   3.973  14.907  0.00  0.00    +0.000 C 
ATOM     32  C   UNL     1       6.014   3.832  13.445  0.00  0.00    +0.000 C 
ATOM     33  C   UNL     1       7.071   4.808  13.861  0.00  0.00    +0.000 C 
ENDBRANCH  26  31
ENDBRANCH  19  21
ENDBRANCH  18  19
ENDBRANCH   1  18
TORSDOF 6
ENDMDL
MODEL 3
REMARK VINA RESULT:      -8.8      2.485      4.759
REMARK  Name = 
REMARK  6 active torsions:
REMARK  status: ('A' for Active; 'I' for Inactive)
REMARK    1  A    between atoms: C_2  and  C_4
REMARK    2  A    between atoms: C_14  and  O_15
REMARK    3  A    between atoms: O_15  and  C_16
REMARK    4  A    between atoms: C_16  and  C_17
REMARK    5  A    between atoms: C_17  and  C_19
REMARK    6  A    between atoms: C_24  and  C_25
REMARK                            x       y       z     vdW  Elec       q    Type
REMARK                         _______ _______ _______ _____ _____    ______ ____
ROOT
ATOM      1  O   UNL     1       3.811   3.905  18.571  0.00  0.00    +0.000 OA
ENDROOT
BRANCH   1  12
ATOM      2  C   UNL     1       2.265   4.666  20.437  0.00  0.00    +0.000 A 
ATOM      3  C   UNL     1       1.570   5.794  20.931  0.00  0.00    +0.000 A 
ATOM      4  C   UNL     1       1.594   7.033  20.284  0.00  0.00    +0.000 A 
ATOM      5  C   UNL     1       0.852   8.118  20.771  0.00  0.00    +0.000 A 
ATOM      6  C   UNL     1       0.879   9.343  20.109  0.00  0.00    +0.000 A 
ATOM      7 CL   UNL     1      -0.058  10.656  20.709  0.00  0.00    +0.000 Cl
ATOM      8  C   UNL     1       1.653   9.506  18.966  0.00  0.00    +0.000 A 
ATOM      9  C   UNL     1       2.400   8.430  18.476  0.00  0.00    +0.000 A 
ATOM     10  C   UNL     1       2.374   7.182  19.124  0.00  0.00    +0.000 A 
ATOM     11  C   UNL     1       3.098   6.071  18.651  0.00  0.00    +0.000 A 
ATOM     12  C   UNL     1       3.057   4.807  19.281  0.00  0.00    +0.000 A 
BRANCH   2  14
ATOM     13  N   UNL     1       0.837   2.835  21.202  0.00  0.00    +0.000 N 
ATOM     14  C   UNL     1       2.071   3.432  21.263  0.00  0.00    +0.000 C 
ATOM     15  O   UNL     1       2.916   2.962  22.009  0.00  0.00    +0.000 OA
ATOM     16  H   UNL     1       0.679   2.036  21.802  0.00  0.00    +0.000 HD
ATOM     17  H   UNL     1       0.069   3.165  20.636  0.00  0.00    +0.000 HD
ENDBRANCH   2  14
ENDBRANCH   1  12
BRANCH   1  18
ATOM     18  C   UNL     1       5.096   3.554  19.039  0.00  0.00    +0.000 C 
BRANCH  18  19
ATOM     19  C   UNL     1       6.170   4.652  19.022  0.00  0.00    +0.000 C 
ATOM     20  O   UNL     1       6.640   5.127  20.056  0.00  0.00    +0.000 OA
BRANCH  19  21
ATOM     21  C   UNL     1       6.617   5.096  17.691  0.00  0.00    +0.000 A 
ATOM     22  C   UNL     1       7.427   6.194  17.438  0.00  0.00    +0.000 A 
ATOM     23  N   UNL     1       7.638   6.290  16.094  0.00  0.00    +0.000 N 
ATOM     24  C   UNL     1       6.971   5.282  15.440  0.00  0.00    +0.000 A 
ATOM     25  C   UNL     1       6.899   4.995  14.069  0.00  0.00    +0.000 A 
ATOM     26  C   UNL     1       6.129   3.903  13.635  0.00  0.00    +0.000 A 
ATOM     27  C   UNL     1       5.448   3.150  14.603  0.00  0.00    +0.000 A 
ATOM     28  C   UNL     1       5.533   3.436  15.974  0.00  0.00    +0.000 A 
ATOM     29  C   UNL     1       6.313   4.524  16.409  0.00  0.00    +0.000 A 
ATOM     30  H   UNL     1       8.191   7.001  15.636  0.00  0.00    +0.000 HD
BRANCH  26  31
ATOM     31  C   UNL     1       6.009   3.582  12.163  0.00  0.00    +0.000 C 
ATOM     32  C   UNL     1       5.629   2.188  11.720  0.00  0.00    +0.000 C 
ATOM     33  C   UNL     1       4.653   3.311  11.553  0.00  0.00    +0.000 C 
ENDBRANCH  26  31
ENDBRANCH  19  21
ENDBRANCH  18  19
ENDBRANCH   1  18
TORSDOF 6
ENDMDL
MODEL 4
REMARK VINA RESULT:      -8.7      3.841      8.486
REMARK  Name = 
REMARK  6 active torsions:
REMARK  status: ('A' for Active; 'I' for Inactive)
REMARK    1  A    between atoms: C_2  and  C_4
REMARK    2  A    between atoms: C_14  and  O_15
REMARK    3  A    between atoms: O_15  and  C_16
REMARK    4  A    between atoms: C_16  and  C_17
REMARK    5  A    between atoms: C_17  and  C_19
REMARK    6  A    between atoms: C_24  and  C_25
REMARK                            x       y       z     vdW  Elec       q    Type
REMARK                         _______ _______ _______ _____ _____    ______ ____
ROOT
ATOM      1  O   UNL     1       1.560   6.965  20.743  0.00  0.00    +0.000 OA
ENDROOT
BRANCH   1  12
ATOM      2  C   UNL     1       2.378   4.686  19.978  0.00  0.00    +0.000 A 
ATOM      3  C   UNL     1       3.155   4.046  18.984  0.00  0.00    +0.000 A 
ATOM      4  C   UNL     1       3.819   4.755  17.978  0.00  0.00    +0.000 A 
ATOM      5  C   UNL     1       4.623   4.096  17.038  0.00  0.00    +0.000 A 
ATOM      6  C   UNL     1       5.287   4.818  16.049  0.00  0.00    +0.000 A 
ATOM      7 CL   UNL     1       6.288   3.992  14.920  0.00  0.00    +0.000 Cl
ATOM      8  C   UNL     1       5.146   6.199  15.976  0.00  0.00    +0.000 A 
ATOM      9  C   UNL     1       4.342   6.864  16.906  0.00  0.00    +0.000 A 
ATOM     10  C   UNL     1       3.676   6.153  17.920  0.00  0.00    +0.000 A 
ATOM     11  C   UNL     1       2.873   6.789  18.886  0.00  0.00    +0.000 A 
ATOM     12  C   UNL     1       2.222   6.085  19.923  0.00  0.00    +0.000 A 
BRANCH   2  14
ATOM     13  N   UNL     1       0.609   3.133  20.634  0.00  0.00    +0.000 N 
ATOM     14  C   UNL     1       1.789   3.742  20.979  0.00  0.00    +0.000 C 
ATOM     15  O   UNL     1       2.264   3.524  22.083  0.00  0.00    +0.000 OA
ATOM     16  H   UNL     1       0.174   2.540  21.329  0.00  0.00    +0.000 HD
ATOM     17  H   UNL     1       0.128   3.271  19.757  0.00  0.00    +0.000 HD
ENDBRANCH   2  14
ENDBRANCH   1  12
BRANCH   1  18
ATOM     18  C   UNL     1       1.743   8.354  20.564  0.00  0.00    +0.000 C 
BRANCH  18  19
ATOM     19  C   UNL     1       1.150   9.281  21.636  0.00  0.00    +0.000 C 
ATOM     20  O   UNL     1       1.515   9.246  22.811  0.00  0.00    +0.000 OA
BRANCH  19  21
ATOM     21  C   UNL     1       0.124  10.230  21.170  0.00  0.00    +0.000 A 
ATOM     22  C   UNL     1      -0.465  11.222  21.941  0.00  0.00    +0.000 A 
ATOM     23  N   UNL     1      -1.360  11.908  21.174  0.00  0.00    +0.000 N 
ATOM     24  C   UNL     1      -1.390  11.385  19.904  0.00  0.00    +0.000 A 
ATOM     25  C   UNL     1      -2.156  11.766  18.794  0.00  0.00    +0.000 A 
ATOM     26  C   UNL     1      -2.020  11.056  17.588  0.00  0.00    +0.000 A 
ATOM     27  C   UNL     1      -1.124   9.978  17.555  0.00  0.00    +0.000 A 
ATOM     28  C   UNL     1      -0.353   9.608  18.667  0.00  0.00    +0.000 A 
ATOM     29  C   UNL     1      -0.481  10.326  19.871  0.00  0.00    +0.000 A 
ATOM     30  H   UNL     1      -1.930  12.682  21.487  0.00  0.00    +0.000 HD
BRANCH  26  31
ATOM     31  C   UNL     1      -2.850  11.424  16.380  0.00  0.00    +0.000 C 
ATOM     32  C   UNL     1      -2.844  10.537  15.157  0.00  0.00    +0.000 C 
ATOM     33  C   UNL     1      -4.068  10.606  16.017  0.00  0.00    +0.000 C 
ENDBRANCH  26  31
ENDBRANCH  19  21
ENDBRANCH  18  19
ENDBRANCH   1  18
TORSDOF 6
ENDMDL
MODEL 5
REMARK VINA RESULT:      -8.7      3.813      9.009
REMARK  Name = 
REMARK  6 active torsions:
REMARK  status: ('A' for Active; 'I' for Inactive)
REMARK    1  A    between atoms: C_2  and  C_4
REMARK    2  A    between atoms: C_14  and  O_15
REMARK    3  A    between atoms: O_15  and  C_16
REMARK    4  A    between atoms: C_16  and  C_17
REMARK    5  A    between atoms: C_17  and  C_19
REMARK    6  A    between atoms: C_24  and  C_25
REMARK                            x       y       z     vdW  Elec       q    Type
REMARK                         _______ _______ _______ _____ _____    ______ ____
ROOT
ATOM      1  O   UNL     1       4.680   4.501  19.284  0.00  0.00    +0.000 OA
ENDROOT
BRANCH   1  12
ATOM      2  C   UNL     1       6.787   5.245  18.076  0.00  0.00    +0.000 A 
ATOM      3  C   UNL     1       7.399   5.279  16.801  0.00  0.00    +0.000 A 
ATOM      4  C   UNL     1       6.764   4.800  15.650  0.00  0.00    +0.000 A 
ATOM      5  C   UNL     1       7.377   4.896  14.394  0.00  0.00    +0.000 A 
ATOM      6  C   UNL     1       6.727   4.423  13.256  0.00  0.00    +0.000 A 
ATOM      7 CL   UNL     1       7.485   4.572  11.719  0.00  0.00    +0.000 Cl
ATOM      8  C   UNL     1       5.469   3.839  13.358  0.00  0.00    +0.000 A 
ATOM      9  C   UNL     1       4.853   3.735  14.609  0.00  0.00    +0.000 A 
ATOM     10  C   UNL     1       5.489   4.219  15.766  0.00  0.00    +0.000 A 
ATOM     11  C   UNL     1       4.893   4.149  17.040  0.00  0.00    +0.000 A 
ATOM     12  C   UNL     1       5.513   4.657  18.204  0.00  0.00    +0.000 A 
BRANCH   2  14
ATOM     13  N   UNL     1       8.321   6.985  18.847  0.00  0.00    +0.000 N 
ATOM     14  C   UNL     1       7.626   5.844  19.161  0.00  0.00    +0.000 C 
ATOM     15  O   UNL     1       7.762   5.360  20.274  0.00  0.00    +0.000 OA
ATOM     16  H   UNL     1       8.936   7.362  19.556  0.00  0.00    +0.000 HD
ATOM     17  H   UNL     1       8.293   7.442  17.947  0.00  0.00    +0.000 HD
ENDBRANCH   2  14
ENDBRANCH   1  12
BRANCH   1  18
ATOM     18  C   UNL     1       3.946   5.609  19.760  0.00  0.00    +0.000 C 
BRANCH  18  19
ATOM     19  C   UNL     1       2.592   5.890  19.090  0.00  0.00    +0.000 C 
ATOM     20  O   UNL     1       1.840   4.987  18.723  0.00  0.00    +0.000 OA
BRANCH  19  21
ATOM     21  C   UNL     1       2.238   7.310  18.924  0.00  0.00    +0.000 A 
ATOM     22  C   UNL     1       2.489   8.076  17.794  0.00  0.00    +0.000 A 
ATOM     23  N   UNL     1       2.014   9.338  17.999  0.00  0.00    +0.000 N 
ATOM     24  C   UNL     1       1.459   9.435  19.252  0.00  0.00    +0.000 A 
ATOM     25  C   UNL     1       0.861  10.533  19.887  0.00  0.00    +0.000 A 
ATOM     26  C   UNL     1       0.374  10.388  21.198  0.00  0.00    +0.000 A 
ATOM     27  C   UNL     1       0.525   9.141  21.823  0.00  0.00    +0.000 A 
ATOM     28  C   UNL     1       1.116   8.044  21.178  0.00  0.00    +0.000 A 
ATOM     29  C   UNL     1       1.593   8.186  19.862  0.00  0.00    +0.000 A 
ATOM     30  H   UNL     1       2.067  10.100  17.337  0.00  0.00    +0.000 HD
BRANCH  26  31
ATOM     31  C   UNL     1      -0.253  11.557  21.919  0.00  0.00    +0.000 C 
ATOM     32  C   UNL     1      -1.688  11.941  21.637  0.00  0.00    +0.000 C 
ATOM     33  C   UNL     1      -1.330  11.323  22.953  0.00  0.00    +0.000 C 
ENDBRANCH  26  31
ENDBRANCH  19  21
ENDBRANCH  18  19
ENDBRANCH   1  18
TORSDOF 6
ENDMDL
MODEL 6
REMARK VINA RESULT:      -8.7      3.973      8.224
REMARK  Name = 
REMARK  6 active torsions:
REMARK  status: ('A' for Active; 'I' for Inactive)
REMARK    1  A    between atoms: C_2  and  C_4
REMARK    2  A    between atoms: C_14  and  O_15
REMARK    3  A    between atoms: O_15  and  C_16
REMARK    4  A    between atoms: C_16  and  C_17
REMARK    5  A    between atoms: C_17  and  C_19
REMARK    6  A    between atoms: C_24  and  C_25
REMARK                            x       y       z     vdW  Elec       q    Type
REMARK                         _______ _______ _______ _____ _____    ______ ____
ROOT
ATOM      1  O   UNL     1       5.424   4.042  19.247  0.00  0.00    +0.000 OA
ENDROOT
BRANCH   1  12
ATOM      2  C   UNL     1       7.127   5.342  17.883  0.00  0.00    +0.000 A 
ATOM      3  C   UNL     1       7.583   5.554  16.561  0.00  0.00    +0.000 A 
ATOM      4  C   UNL     1       6.994   4.933  15.455  0.00  0.00    +0.000 A 
ATOM      5  C   UNL     1       7.435   5.205  14.153  0.00  0.00    +0.000 A 
ATOM      6  C   UNL     1       6.831   4.586  13.061  0.00  0.00    +0.000 A 
ATOM      7 CL   UNL     1       7.371   4.951  11.469  0.00  0.00    +0.000 Cl
ATOM      8  C   UNL     1       5.793   3.681  13.254  0.00  0.00    +0.000 A 
ATOM      9  C   UNL     1       5.350   3.401  14.550  0.00  0.00    +0.000 A 
ATOM     10  C   UNL     1       5.939   4.027  15.663  0.00  0.00    +0.000 A 
ATOM     11  C   UNL     1       5.508   3.784  16.981  0.00  0.00    +0.000 A 
ATOM     12  C   UNL     1       6.077   4.429  18.103  0.00  0.00    +0.000 A 
BRANCH   2  14
ATOM     13  N   UNL     1       8.045   5.551  20.139  0.00  0.00    +0.000 N 
ATOM     14  C   UNL     1       7.874   6.135  18.910  0.00  0.00    +0.000 C 
ATOM     15  O   UNL     1       8.290   7.270  18.735  0.00  0.00    +0.000 OA
ATOM     16  H   UNL     1       8.496   6.104  20.856  0.00  0.00    +0.000 HD
ATOM     17  H   UNL     1       7.714   4.629  20.386  0.00  0.00    +0.000 HD
ENDBRANCH   2  14
ENDBRANCH   1  12
BRANCH   1  18
ATOM     18  C   UNL     1       4.418   3.055  19.172  0.00  0.00    +0.000 C 
BRANCH  18  19
ATOM     19  C   UNL     1       2.985   3.535  18.892  0.00  0.00    +0.000 C 
ATOM     20  O   UNL     1       2.239   2.954  18.105  0.00  0.00    +0.000 OA
BRANCH  19  21
ATOM     21  C   UNL     1       2.551   4.731  19.634  0.00  0.00    +0.000 A 
ATOM     22  C   UNL     1       2.239   4.771  20.986  0.00  0.00    +0.000 A 
ATOM     23  N   UNL     1       1.888   6.045  21.323  0.00  0.00    +0.000 N 
ATOM     24  C   UNL     1       1.947   6.858  20.217  0.00  0.00    +0.000 A 
ATOM     25  C   UNL     1       1.669   8.227  20.093  0.00  0.00    +0.000 A 
ATOM     26  C   UNL     1       1.788   8.842  18.834  0.00  0.00    +0.000 A 
ATOM     27  C   UNL     1       2.170   8.044  17.745  0.00  0.00    +0.000 A 
ATOM     28  C   UNL     1       2.457   6.677  17.879  0.00  0.00    +0.000 A 
ATOM     29  C   UNL     1       2.348   6.065  19.141  0.00  0.00    +0.000 A 
ATOM     30  H   UNL     1       1.611   6.353  22.245  0.00  0.00    +0.000 HD
BRANCH  26  31
ATOM     31  C   UNL     1       1.471  10.308  18.661  0.00  0.00    +0.000 C 
ATOM     32  C   UNL     1       0.036  10.760  18.506  0.00  0.00    +0.000 C 
ATOM     33  C   UNL     1       0.780  11.072  19.768  0.00  0.00    +0.000 C 
ENDBRANCH  26  31
ENDBRANCH  19  21
ENDBRANCH  18  19
ENDBRANCH   1  18
TORSDOF 6
ENDMDL
MODEL 7
REMARK VINA RESULT:      -8.6      3.472      9.708
REMARK  Name = 
REMARK  6 active torsions:
REMARK  status: ('A' for Active; 'I' for Inactive)
REMARK    1  A    between atoms: C_2  and  C_4
REMARK    2  A    between atoms: C_14  and  O_15
REMARK    3  A    between atoms: O_15  and  C_16
REMARK    4  A    between atoms: C_16  and  C_17
REMARK    5  A    between atoms: C_17  and  C_19
REMARK    6  A    between atoms: C_24  and  C_25
REMARK                            x       y       z     vdW  Elec       q    Type
REMARK                         _______ _______ _______ _____ _____    ______ ____
ROOT
ATOM      1  O   UNL     1       1.709   6.870  20.760  0.00  0.00    +0.000 OA
ENDROOT
BRANCH   1  12
ATOM      2  C   UNL     1       2.392   4.567  19.933  0.00  0.00    +0.000 A 
ATOM      3  C   UNL     1       3.123   3.909  18.917  0.00  0.00    +0.000 A 
ATOM      4  C   UNL     1       3.818   4.604  17.922  0.00  0.00    +0.000 A 
ATOM      5  C   UNL     1       4.575   3.923  16.959  0.00  0.00    +0.000 A 
ATOM      6  C   UNL     1       5.270   4.631  15.981  0.00  0.00    +0.000 A 
ATOM      7 CL   UNL     1       6.214   3.778  14.823  0.00  0.00    +0.000 Cl
ATOM      8  C   UNL     1       5.207   6.019  15.941  0.00  0.00    +0.000 A 
ATOM      9  C   UNL     1       4.449   6.706  16.895  0.00  0.00    +0.000 A 
ATOM     10  C   UNL     1       3.753   6.008  17.898  0.00  0.00    +0.000 A 
ATOM     11  C   UNL     1       2.995   6.665  18.886  0.00  0.00    +0.000 A 
ATOM     12  C   UNL     1       2.314   5.974  19.913  0.00  0.00    +0.000 A 
BRANCH   2  14
ATOM     13  N   UNL     1       0.582   3.040  20.538  0.00  0.00    +0.000 N 
ATOM     14  C   UNL     1       1.759   3.634  20.917  0.00  0.00    +0.000 C 
ATOM     15  O   UNL     1       2.196   3.412  22.036  0.00  0.00    +0.000 OA
ATOM     16  H   UNL     1       0.118   2.454  21.220  0.00  0.00    +0.000 HD
ATOM     17  H   UNL     1       0.131   3.183  19.646  0.00  0.00    +0.000 HD
ENDBRANCH   2  14
ENDBRANCH   1  12
BRANCH   1  18
ATOM     18  C   UNL     1       1.694   8.241  20.425  0.00  0.00    +0.000 C 
BRANCH  18  19
ATOM     19  C   UNL     1       1.043   9.200  21.433  0.00  0.00    +0.000 C 
ATOM     20  O   UNL     1       1.279   9.144  22.640  0.00  0.00    +0.000 OA
BRANCH  19  21
ATOM     21  C   UNL     1       0.127  10.205  20.867  0.00  0.00    +0.000 A 
ATOM     22  C   UNL     1       0.033  10.543  19.524  0.00  0.00    +0.000 A 
ATOM     23  N   UNL     1      -0.927  11.500  19.374  0.00  0.00    +0.000 N 
ATOM     24  C   UNL     1      -1.469  11.819  20.595  0.00  0.00    +0.000 A 
ATOM     25  C   UNL     1      -2.472  12.745  20.918  0.00  0.00    +0.000 A 
ATOM     26  C   UNL     1      -2.852  12.907  22.262  0.00  0.00    +0.000 A 
ATOM     27  C   UNL     1      -2.191  12.136  23.230  0.00  0.00    +0.000 A 
ATOM     28  C   UNL     1      -1.196  11.204  22.899  0.00  0.00    +0.000 A 
ATOM     29  C   UNL     1      -0.824  11.034  21.552  0.00  0.00    +0.000 A 
ATOM     30  H   UNL     1      -1.198  11.927  18.498  0.00  0.00    +0.000 HD
BRANCH  26  31
ATOM     31  C   UNL     1      -3.910  13.913  22.647  0.00  0.00    +0.000 C 
ATOM     32  C   UNL     1      -5.354  13.485  22.768  0.00  0.00    +0.000 C 
ATOM     33  C   UNL     1      -4.578  13.833  24.000  0.00  0.00    +0.000 C 
ENDBRANCH  26  31
ENDBRANCH  19  21
ENDBRANCH  18  19
ENDBRANCH   1  18
TORSDOF 6
ENDMDL
MODEL 8
REMARK VINA RESULT:      -8.6      1.053      1.165
REMARK  Name = 
REMARK  6 active torsions:
REMARK  status: ('A' for Active; 'I' for Inactive)
REMARK    1  A    between atoms: C_2  and  C_4
REMARK    2  A    between atoms: C_14  and  O_15
REMARK    3  A    between atoms: O_15  and  C_16
REMARK    4  A    between atoms: C_16  and  C_17
REMARK    5  A    between atoms: C_17  and  C_19
REMARK    6  A    between atoms: C_24  and  C_25
REMARK                            x       y       z     vdW  Elec       q    Type
REMARK                         _______ _______ _______ _____ _____    ______ ____
ROOT
ATOM      1  O   UNL     1       1.855   7.353  20.817  0.00  0.00    +0.000 OA
ENDROOT
BRANCH   1  12
ATOM      2  C   UNL     1       1.050   9.413  19.568  0.00  0.00    +0.000 A 
ATOM      3  C   UNL     1       0.243  10.566  19.706  0.00  0.00    +0.000 A 
ATOM      4  C   UNL     1      -0.419  10.883  20.896  0.00  0.00    +0.000 A 
ATOM      5  C   UNL     1      -1.169  12.061  21.016  0.00  0.00    +0.000 A 
ATOM      6  C   UNL     1      -1.815  12.366  22.212  0.00  0.00    +0.000 A 
ATOM      7 CL   UNL     1      -2.710  13.829  22.347  0.00  0.00    +0.000 Cl
ATOM      8  C   UNL     1      -1.733  11.497  23.295  0.00  0.00    +0.000 A 
ATOM      9  C   UNL     1      -0.991  10.317  23.182  0.00  0.00    +0.000 A 
ATOM     10  C   UNL     1      -0.321  10.000  21.986  0.00  0.00    +0.000 A 
ATOM     11  C   UNL     1       0.450   8.831  21.841  0.00  0.00    +0.000 A 
ATOM     12  C   UNL     1       1.147   8.518  20.652  0.00  0.00    +0.000 A 
BRANCH   2  14
ATOM     13  N   UNL     1       2.081  10.455  17.612  0.00  0.00    +0.000 N 
ATOM     14  C   UNL     1       1.696   9.289  18.224  0.00  0.00    +0.000 C 
ATOM     15  O   UNL     1       1.856   8.233  17.631  0.00  0.00    +0.000 OA
ATOM     16  H   UNL     1       2.464  10.384  16.679  0.00  0.00    +0.000 HD
ATOM     17  H   UNL     1       1.965  11.376  18.012  0.00  0.00    +0.000 HD
ENDBRANCH   2  14
ENDBRANCH   1  12
BRANCH   1  18
ATOM     18  C   UNL     1       1.215   6.114  20.597  0.00  0.00    +0.000 C 
BRANCH  18  19
ATOM     19  C   UNL     1       2.072   4.848  20.748  0.00  0.00    +0.000 C 
ATOM     20  O   UNL     1       2.387   4.395  21.848  0.00  0.00    +0.000 OA
BRANCH  19  21
ATOM     21  C   UNL     1       2.485   4.196  19.494  0.00  0.00    +0.000 A 
ATOM     22  C   UNL     1       2.086   2.936  19.071  0.00  0.00    +0.000 A 
ATOM     23  N   UNL     1       2.659   2.671  17.862  0.00  0.00    +0.000 N 
ATOM     24  C   UNL     1       3.445   3.727  17.472  0.00  0.00    +0.000 A 
ATOM     25  C   UNL     1       4.220   3.891  16.315  0.00  0.00    +0.000 A 
ATOM     26  C   UNL     1       4.963   5.073  16.146  0.00  0.00    +0.000 A 
ATOM     27  C   UNL     1       4.905   6.039  17.161  0.00  0.00    +0.000 A 
ATOM     28  C   UNL     1       4.119   5.873  18.312  0.00  0.00    +0.000 A 
ATOM     29  C   UNL     1       3.367   4.694  18.476  0.00  0.00    +0.000 A 
ATOM     30  H   UNL     1       2.538   1.820  17.329  0.00  0.00    +0.000 HD
BRANCH  26  31
ATOM     31  C   UNL     1       5.828   5.270  14.923  0.00  0.00    +0.000 C 
ATOM     32  C   UNL     1       7.267   4.806  14.931  0.00  0.00    +0.000 C 
ATOM     33  C   UNL     1       6.257   4.079  14.097  0.00  0.00    +0.000 C 
ENDBRANCH  26  31
ENDBRANCH  19  21
ENDBRANCH  18  19
ENDBRANCH   1  18
TORSDOF 6
ENDMDL
MODEL 9
REMARK VINA RESULT:      -8.5      3.840      5.873
REMARK  Name = 
REMARK  6 active torsions:
REMARK  status: ('A' for Active; 'I' for Inactive)
REMARK    1  A    between atoms: C_2  and  C_4
REMARK    2  A    between atoms: C_14  and  O_15
REMARK    3  A    between atoms: O_15  and  C_16
REMARK    4  A    between atoms: C_16  and  C_17
REMARK    5  A    between atoms: C_17  and  C_19
REMARK    6  A    between atoms: C_24  and  C_25
REMARK                            x       y       z     vdW  Elec       q    Type
REMARK                         _______ _______ _______ _____ _____    ______ ____
ROOT
ATOM      1  O   UNL     1       4.216   4.111  17.886  0.00  0.00    +0.000 OA
ENDROOT
BRANCH   1  12
ATOM      2  C   UNL     1       2.785   4.702  19.900  0.00  0.00    +0.000 A 
ATOM      3  C   UNL     1       2.053   5.760  20.487  0.00  0.00    +0.000 A 
ATOM      4  C   UNL     1       1.926   7.013  19.880  0.00  0.00    +0.000 A 
ATOM      5  C   UNL     1       1.150   8.024  20.462  0.00  0.00    +0.000 A 
ATOM      6  C   UNL     1       1.027   9.264  19.840  0.00  0.00    +0.000 A 
ATOM      7 CL   UNL     1       0.049  10.484  20.559  0.00  0.00    +0.000 Cl
ATOM      8  C   UNL     1       1.684   9.515  18.641  0.00  0.00    +0.000 A 
ATOM      9  C   UNL     1       2.465   8.514  18.055  0.00  0.00    +0.000 A 
ATOM     10  C   UNL     1       2.589   7.251  18.663  0.00  0.00    +0.000 A 
ATOM     11  C   UNL     1       3.351   6.213  18.095  0.00  0.00    +0.000 A 
ATOM     12  C   UNL     1       3.460   4.933  18.685  0.00  0.00    +0.000 A 
BRANCH   2  14
ATOM     13  N   UNL     1       2.263   3.522  21.976  0.00  0.00    +0.000 N 
ATOM     14  C   UNL     1       2.757   3.436  20.699  0.00  0.00    +0.000 C 
ATOM     15  O   UNL     1       3.184   2.362  20.303  0.00  0.00    +0.000 OA
ATOM     16  H   UNL     1       2.297   2.684  22.542  0.00  0.00    +0.000 HD
ATOM     17  H   UNL     1       1.914   4.369  22.399  0.00  0.00    +0.000 HD
ENDBRANCH   2  14
ENDBRANCH   1  12
BRANCH   1  18
ATOM     18  C   UNL     1       4.656   4.578  16.629  0.00  0.00    +0.000 C 
BRANCH  18  19
ATOM     19  C   UNL     1       6.173   4.610  16.387  0.00  0.00    +0.000 C 
ATOM     20  O   UNL     1       6.685   4.167  15.360  0.00  0.00    +0.000 OA
BRANCH  19  21
ATOM     21  C   UNL     1       6.983   5.218  17.457  0.00  0.00    +0.000 A 
ATOM     22  C   UNL     1       7.526   4.541  18.540  0.00  0.00    +0.000 A 
ATOM     23  N   UNL     1       8.218   5.425  19.314  0.00  0.00    +0.000 N 
ATOM     24  C   UNL     1       8.139   6.686  18.776  0.00  0.00    +0.000 A 
ATOM     25  C   UNL     1       8.688   7.893  19.231  0.00  0.00    +0.000 A 
ATOM     26  C   UNL     1       8.451   9.074  18.505  0.00  0.00    +0.000 A 
ATOM     27  C   UNL     1       7.654   8.990  17.353  0.00  0.00    +0.000 A 
ATOM     28  C   UNL     1       7.117   7.777  16.898  0.00  0.00    +0.000 A 
ATOM     29  C   UNL     1       7.364   6.594  17.619  0.00  0.00    +0.000 A 
ATOM     30  H   UNL     1       8.711   5.197  20.167  0.00  0.00    +0.000 HD
BRANCH  26  31
ATOM     31  C   UNL     1       9.005  10.395  18.982  0.00  0.00    +0.000 C 
ATOM     32  C   UNL     1      10.307  10.918  18.419  0.00  0.00    +0.000 C 
ATOM     33  C   UNL     1       9.018  11.592  18.059  0.00  0.00    +0.000 C 
ENDBRANCH  26  31
ENDBRANCH  19  21
ENDBRANCH  18  19
ENDBRANCH   1  18
TORSDOF 6
ENDMDL
