MODEL 1
REMARK VINA RESULT:      -7.3      0.000      0.000
REMARK  Name = 
REMARK  6 active torsions:
REMARK  status: ('A' for Active; 'I' for Inactive)
REMARK    1  A    between atoms: C_1  and  O_2
REMARK    2  A    between atoms: O_2  and  C_3
REMARK    3  A    between atoms: C_9  and  C_10
REMARK    4  A    between atoms: C_10  and  C_11
REMARK    5  A    between atoms: C_11  and  C_12
REMARK    6  A    between atoms: C_14  and  C_15
REMARK                            x       y       z     vdW  Elec       q    Type
REMARK                         _______ _______ _______ _____ _____    ______ ____
ROOT
ATOM      1  C   UNL     1       8.462   8.120  18.440  0.00  0.00    +0.000 C 
ENDROOT
BRANCH   1   8
ATOM      2  C   UNL     1       5.497   4.191  17.930  0.00  0.00    +0.000 A 
ATOM      3  C   UNL     1       4.995   3.612  16.814  0.00  0.00    +0.000 A 
ATOM      4  C   UNL     1       5.285   4.127  15.485  0.00  0.00    +0.000 A 
ATOM      5  C   UNL     1       6.071   5.207  15.368  0.00  0.00    +0.000 A 
ATOM      6  N   UNL     1       6.595   5.811  16.508  0.00  0.00    +0.000 N 
ATOM      7  N   UNL     1       7.402   6.897  16.576  0.00  0.00    +0.000 NA
ATOM      8  C   UNL     1       7.602   7.032  17.890  0.00  0.00    +0.000 A 
ATOM      9  N   UNL     1       6.970   6.106  18.675  0.00  0.00    +0.000 NA
ATOM     10  C   UNL     1       6.340   5.343  17.801  0.00  0.00    +0.000 A 
BRANCH   2  12
ATOM     11  C   UNL     1       4.238   2.866  19.468  0.00  0.00    +0.000 C 
ATOM     12  O   UNL     1       5.291   3.792  19.231  0.00  0.00    +0.000 OA
ENDBRANCH   2  12
ENDBRANCH   1   8
BRANCH   1  13
ATOM     13  C   UNL     1       8.122   9.494  17.871  0.00  0.00    +0.000 C 
BRANCH  13  14
ATOM     14  C   UNL     1       9.019  10.573  18.384  0.00  0.00    +0.000 A 
ATOM     15  N   UNL     1       9.297  11.737  17.830  0.00  0.00    +0.000 NA
ATOM     16  C   UNL     1      10.224  12.334  18.654  0.00  0.00    +0.000 A 
ATOM     17  C   UNL     1      10.496  11.526  19.734  0.00  0.00    +0.000 A 
ATOM     18  N   UNL     1       9.709  10.424  19.563  0.00  0.00    +0.000 N 
ATOM     19  H   UNL     1       9.656   9.622  20.178  0.00  0.00    +0.000 HD
BRANCH  16  20
ATOM     20  C   UNL     1      10.841  13.658  18.380  0.00  0.00    +0.000 A 
ATOM     21  C   UNL     1      11.871  13.871  17.487  0.00  0.00    +0.000 A 
ATOM     22  N   UNL     1      12.319  15.179  17.386  0.00  0.00    +0.000 NA
ATOM     23  C   UNL     1      11.618  15.933  18.206  0.00  0.00    +0.000 A 
ATOM     24  S   UNL     1      10.402  15.138  19.116  0.00  0.00    +0.000 S 
ENDBRANCH  16  20
ENDBRANCH  13  14
ENDBRANCH   1  13
TORSDOF 5
ENDMDL
MODEL 2
REMARK VINA RESULT:      -7.2      1.550      2.423
REMARK  Name = 
REMARK  6 active torsions:
REMARK  status: ('A' for Active; 'I' for Inactive)
REMARK    1  A    between atoms: C_1  and  O_2
REMARK    2  A    between atoms: O_2  and  C_3
REMARK    3  A    between atoms: C_9  and  C_10
REMARK    4  A    between atoms: C_10  and  C_11
REMARK    5  A    between atoms: C_11  and  C_12
REMARK    6  A    between atoms: C_14  and  C_15
REMARK                            x       y       z     vdW  Elec       q    Type
REMARK                         _______ _______ _______ _____ _____    ______ ____
ROOT
ATOM      1  C   UNL     1       8.213   7.275  18.759  0.00  0.00    +0.000 C 
ENDROOT
BRANCH   1   8
ATOM      2  C   UNL     1       5.005   4.253  16.508  0.00  0.00    +0.000 A 
ATOM      3  C   UNL     1       4.177   3.314  17.024  0.00  0.00    +0.000 A 
ATOM      4  C   UNL     1       4.124   3.037  18.450  0.00  0.00    +0.000 A 
ATOM      5  C   UNL     1       4.921   3.734  19.274  0.00  0.00    +0.000 A 
ATOM      6  N   UNL     1       5.776   4.704  18.756  0.00  0.00    +0.000 N 
ATOM      7  N   UNL     1       6.638   5.497  19.435  0.00  0.00    +0.000 NA
ATOM      8  C   UNL     1       7.188   6.232  18.463  0.00  0.00    +0.000 A 
ATOM      9  N   UNL     1       6.738   5.958  17.200  0.00  0.00    +0.000 NA
ATOM     10  C   UNL     1       5.852   4.998  17.392  0.00  0.00    +0.000 A 
BRANCH   2  12
ATOM     11  C   UNL     1       6.043   3.830  14.399  0.00  0.00    +0.000 C 
ATOM     12  O   UNL     1       5.138   4.598  15.182  0.00  0.00    +0.000 OA
ENDBRANCH   2  12
ENDBRANCH   1   8
BRANCH   1  13
ATOM     13  C   UNL     1       8.153   8.459  17.799  0.00  0.00    +0.000 C 
BRANCH  13  14
ATOM     14  C   UNL     1       8.684   9.720  18.399  0.00  0.00    +0.000 A 
ATOM     15  N   UNL     1       8.736  10.922  17.861  0.00  0.00    +0.000 NA
ATOM     16  C   UNL     1       9.374  11.721  18.783  0.00  0.00    +0.000 A 
ATOM     17  C   UNL     1       9.694  10.993  19.906  0.00  0.00    +0.000 A 
ATOM     18  N   UNL     1       9.231   9.732  19.660  0.00  0.00    +0.000 N 
ATOM     19  H   UNL     1       9.297   8.936  20.279  0.00  0.00    +0.000 HD
BRANCH  16  20
ATOM     20  C   UNL     1       9.677  13.159  18.562  0.00  0.00    +0.000 A 
ATOM     21  C   UNL     1       8.725  14.132  18.342  0.00  0.00    +0.000 A 
ATOM     22  N   UNL     1       9.211  15.415  18.142  0.00  0.00    +0.000 NA
ATOM     23  C   UNL     1      10.524  15.388  18.214  0.00  0.00    +0.000 A 
ATOM     24  S   UNL     1      11.237  13.860  18.530  0.00  0.00    +0.000 S 
ENDBRANCH  16  20
ENDBRANCH  13  14
ENDBRANCH   1  13
TORSDOF 5
ENDMDL
MODEL 3
REMARK VINA RESULT:      -7.2      1.540      2.366
REMARK  Name = 
REMARK  6 active torsions:
REMARK  status: ('A' for Active; 'I' for Inactive)
REMARK    1  A    between atoms: C_1  and  O_2
REMARK    2  A    between atoms: O_2  and  C_3
REMARK    3  A    between atoms: C_9  and  C_10
REMARK    4  A    between atoms: C_10  and  C_11
REMARK    5  A    between atoms: C_11  and  C_12
REMARK    6  A    between atoms: C_14  and  C_15
REMARK                            x       y       z     vdW  Elec       q    Type
REMARK                         _______ _______ _______ _____ _____    ______ ____
ROOT
ATOM      1  C   UNL     1       8.391   8.015  18.460  0.00  0.00    +0.000 C 
ENDROOT
BRANCH   1   8
ATOM      2  C   UNL     1       6.176   4.842  15.376  0.00  0.00    +0.000 A 
ATOM      3  C   UNL     1       5.251   3.884  15.621  0.00  0.00    +0.000 A 
ATOM      4  C   UNL     1       4.744   3.631  16.960  0.00  0.00    +0.000 A 
ATOM      5  C   UNL     1       5.209   4.371  17.978  0.00  0.00    +0.000 A 
ATOM      6  N   UNL     1       6.159   5.361  17.739  0.00  0.00    +0.000 N 
ATOM      7  N   UNL     1       6.732   6.196  18.638  0.00  0.00    +0.000 NA
ATOM      8  C   UNL     1       7.547   6.932  17.877  0.00  0.00    +0.000 A 
ATOM      9  N   UNL     1       7.541   6.620  16.544  0.00  0.00    +0.000 NA
ATOM     10  C   UNL     1       6.668   5.633  16.465  0.00  0.00    +0.000 A 
BRANCH   2  12
ATOM     11  C   UNL     1       6.746   4.152  13.162  0.00  0.00    +0.000 C 
ATOM     12  O   UNL     1       6.724   5.168  14.156  0.00  0.00    +0.000 OA
ENDBRANCH   2  12
ENDBRANCH   1   8
BRANCH   1  13
ATOM     13  C   UNL     1       8.136   9.378  17.824  0.00  0.00    +0.000 C 
BRANCH  13  14
ATOM     14  C   UNL     1       9.005  10.454  18.387  0.00  0.00    +0.000 A 
ATOM     15  N   UNL     1       9.409  11.567  17.807  0.00  0.00    +0.000 NA
ATOM     16  C   UNL     1      10.245  12.183  18.712  0.00  0.00    +0.000 A 
ATOM     17  C   UNL     1      10.330  11.440  19.867  0.00  0.00    +0.000 A 
ATOM     18  N   UNL     1       9.522  10.359  19.657  0.00  0.00    +0.000 N 
ATOM     19  H   UNL     1       9.349   9.603  20.307  0.00  0.00    +0.000 HD
BRANCH  16  20
ATOM     20  C   UNL     1      10.954  13.461  18.444  0.00  0.00    +0.000 A 
ATOM     21  C   UNL     1      10.583  14.683  18.965  0.00  0.00    +0.000 A 
ATOM     22  N   UNL     1      11.365  15.762  18.583  0.00  0.00    +0.000 NA
ATOM     23  C   UNL     1      12.315  15.335  17.779  0.00  0.00    +0.000 A 
ATOM     24  S   UNL     1      12.332  13.652  17.450  0.00  0.00    +0.000 S 
ENDBRANCH  16  20
ENDBRANCH  13  14
ENDBRANCH   1  13
TORSDOF 5
ENDMDL
MODEL 4
REMARK VINA RESULT:      -7.2      1.812      2.233
REMARK  Name = 
REMARK  6 active torsions:
REMARK  status: ('A' for Active; 'I' for Inactive)
REMARK    1  A    between atoms: C_1  and  O_2
REMARK    2  A    between atoms: O_2  and  C_3
REMARK    3  A    between atoms: C_9  and  C_10
REMARK    4  A    between atoms: C_10  and  C_11
REMARK    5  A    between atoms: C_11  and  C_12
REMARK    6  A    between atoms: C_14  and  C_15
REMARK                            x       y       z     vdW  Elec       q    Type
REMARK                         _______ _______ _______ _____ _____    ______ ____
ROOT
ATOM      1  C   UNL     1       7.815   6.779  18.378  0.00  0.00    +0.000 C 
ENDROOT
BRANCH   1   8
ATOM      2  C   UNL     1       4.404   3.272  19.120  0.00  0.00    +0.000 A 
ATOM      3  C   UNL     1       3.118   3.199  18.702  0.00  0.00    +0.000 A 
ATOM      4  C   UNL     1       2.508   4.253  17.907  0.00  0.00    +0.000 A 
ATOM      5  C   UNL     1       3.244   5.327  17.583  0.00  0.00    +0.000 A 
ATOM      6  N   UNL     1       4.568   5.413  18.005  0.00  0.00    +0.000 N 
ATOM      7  N   UNL     1       5.451   6.413  17.769  0.00  0.00    +0.000 NA
ATOM      8  C   UNL     1       6.555   5.982  18.387  0.00  0.00    +0.000 A 
ATOM      9  N   UNL     1       6.438   4.769  19.012  0.00  0.00    +0.000 NA
ATOM     10  C   UNL     1       5.188   4.419  18.768  0.00  0.00    +0.000 A 
BRANCH   2  12
ATOM     11  C   UNL     1       4.404   1.796  20.997  0.00  0.00    +0.000 C 
ATOM     12  O   UNL     1       5.082   2.340  19.871  0.00  0.00    +0.000 OA
ENDBRANCH   2  12
ENDBRANCH   1   8
BRANCH   1  13
ATOM     13  C   UNL     1       7.741   8.002  17.469  0.00  0.00    +0.000 C 
BRANCH  13  14
ATOM     14  C   UNL     1       8.343   9.222  18.086  0.00  0.00    +0.000 A 
ATOM     15  N   UNL     1       8.353  10.455  17.619  0.00  0.00    +0.000 NA
ATOM     16  C   UNL     1       9.091  11.193  18.517  0.00  0.00    +0.000 A 
ATOM     17  C   UNL     1       9.517  10.396  19.555  0.00  0.00    +0.000 A 
ATOM     18  N   UNL     1       9.018   9.155  19.282  0.00  0.00    +0.000 N 
ATOM     19  H   UNL     1       9.139   8.322  19.842  0.00  0.00    +0.000 HD
BRANCH  16  20
ATOM     20  C   UNL     1       9.384  12.640  18.353  0.00  0.00    +0.000 A 
ATOM     21  C   UNL     1       8.424  13.618  18.191  0.00  0.00    +0.000 A 
ATOM     22  N   UNL     1       8.902  14.911  18.038  0.00  0.00    +0.000 NA
ATOM     23  C   UNL     1      10.216  14.886  18.087  0.00  0.00    +0.000 A 
ATOM     24  S   UNL     1      10.940  13.350  18.326  0.00  0.00    +0.000 S 
ENDBRANCH  16  20
ENDBRANCH  13  14
ENDBRANCH   1  13
TORSDOF 5
ENDMDL
MODEL 5
REMARK VINA RESULT:      -7.1      0.959      1.014
REMARK  Name = 
REMARK  6 active torsions:
REMARK  status: ('A' for Active; 'I' for Inactive)
REMARK    1  A    between atoms: C_1  and  O_2
REMARK    2  A    between atoms: O_2  and  C_3
REMARK    3  A    between atoms: C_9  and  C_10
REMARK    4  A    between atoms: C_10  and  C_11
REMARK    5  A    between atoms: C_11  and  C_12
REMARK    6  A    between atoms: C_14  and  C_15
REMARK                            x       y       z     vdW  Elec       q    Type
REMARK                         _______ _______ _______ _____ _____    ______ ____
ROOT
ATOM      1  C   UNL     1       8.243   7.933  18.331  0.00  0.00    +0.000 C 
ENDROOT
BRANCH   1   8
ATOM      2  C   UNL     1       4.930   4.397  17.325  0.00  0.00    +0.000 A 
ATOM      3  C   UNL     1       4.738   3.674  16.197  0.00  0.00    +0.000 A 
ATOM      4  C   UNL     1       5.556   3.867  15.012  0.00  0.00    +0.000 A 
ATOM      5  C   UNL     1       6.528   4.791  15.041  0.00  0.00    +0.000 A 
ATOM      6  N   UNL     1       6.738   5.541  16.196  0.00  0.00    +0.000 N 
ATOM      7  N   UNL     1       7.667   6.504  16.402  0.00  0.00    +0.000 NA
ATOM      8  C   UNL     1       7.430   6.876  17.663  0.00  0.00    +0.000 A 
ATOM      9  N   UNL     1       6.402   6.217  18.282  0.00  0.00    +0.000 NA
ATOM     10  C   UNL     1       5.973   5.381  17.354  0.00  0.00    +0.000 A 
BRANCH   2  12
ATOM     11  C   UNL     1       4.466   3.160  19.315  0.00  0.00    +0.000 C 
ATOM     12  O   UNL     1       4.221   4.300  18.500  0.00  0.00    +0.000 OA
ENDBRANCH   2  12
ENDBRANCH   1   8
BRANCH   1  13
ATOM     13  C   UNL     1       7.925   9.338  17.830  0.00  0.00    +0.000 C 
BRANCH  13  14
ATOM     14  C   UNL     1       8.830  10.378  18.402  0.00  0.00    +0.000 A 
ATOM     15  N   UNL     1       9.278  11.478  17.829  0.00  0.00    +0.000 NA
ATOM     16  C   UNL     1      10.131  12.059  18.740  0.00  0.00    +0.000 A 
ATOM     17  C   UNL     1      10.183  11.308  19.892  0.00  0.00    +0.000 A 
ATOM     18  N   UNL     1       9.337  10.258  19.674  0.00  0.00    +0.000 N 
ATOM     19  H   UNL     1       9.133   9.506  20.319  0.00  0.00    +0.000 HD
BRANCH  16  20
ATOM     20  C   UNL     1      10.887  13.311  18.482  0.00  0.00    +0.000 A 
ATOM     21  C   UNL     1      10.523  14.555  18.954  0.00  0.00    +0.000 A 
ATOM     22  N   UNL     1      11.354  15.604  18.590  0.00  0.00    +0.000 NA
ATOM     23  C   UNL     1      12.333  15.132  17.848  0.00  0.00    +0.000 A 
ATOM     24  S   UNL     1      12.322  13.442  17.560  0.00  0.00    +0.000 S 
ENDBRANCH  16  20
ENDBRANCH  13  14
ENDBRANCH   1  13
TORSDOF 5
ENDMDL
MODEL 6
REMARK VINA RESULT:      -7.1      6.234      7.856
REMARK  Name = 
REMARK  6 active torsions:
REMARK  status: ('A' for Active; 'I' for Inactive)
REMARK    1  A    between atoms: C_1  and  O_2
REMARK    2  A    between atoms: O_2  and  C_3
REMARK    3  A    between atoms: C_9  and  C_10
REMARK    4  A    between atoms: C_10  and  C_11
REMARK    5  A    between atoms: C_11  and  C_12
REMARK    6  A    between atoms: C_14  and  C_15
REMARK                            x       y       z     vdW  Elec       q    Type
REMARK                         _______ _______ _______ _____ _____    ______ ____
ROOT
ATOM      1  C   UNL     1       2.461   3.300  19.145  0.00  0.00    +0.000 C 
ENDROOT
BRANCH   1   8
ATOM      2  C   UNL     1       6.952   4.512  17.456  0.00  0.00    +0.000 A 
ATOM      3  C   UNL     1       7.378   4.748  16.193  0.00  0.00    +0.000 A 
ATOM      4  C   UNL     1       6.483   4.658  15.052  0.00  0.00    +0.000 A 
ATOM      5  C   UNL     1       5.198   4.331  15.261  0.00  0.00    +0.000 A 
ATOM      6  N   UNL     1       4.747   4.087  16.556  0.00  0.00    +0.000 N 
ATOM      7  N   UNL     1       3.496   3.751  16.949  0.00  0.00    +0.000 NA
ATOM      8  C   UNL     1       3.622   3.650  18.275  0.00  0.00    +0.000 A 
ATOM      9  N   UNL     1       4.878   3.893  18.762  0.00  0.00    +0.000 NA
ATOM     10  C   UNL     1       5.579   4.166  17.677  0.00  0.00    +0.000 A 
BRANCH   2  12
ATOM     11  C   UNL     1       7.829   5.835  19.241  0.00  0.00    +0.000 C 
ATOM     12  O   UNL     1       7.706   4.569  18.606  0.00  0.00    +0.000 OA
ENDBRANCH   2  12
ENDBRANCH   1   8
BRANCH   1  13
ATOM     13  C   UNL     1       2.420   4.107  20.438  0.00  0.00    +0.000 C 
BRANCH  13  14
ATOM     14  C   UNL     1       2.249   5.572  20.203  0.00  0.00    +0.000 A 
ATOM     15  N   UNL     1       1.674   6.465  20.986  0.00  0.00    +0.000 NA
ATOM     16  C   UNL     1       1.709   7.653  20.291  0.00  0.00    +0.000 A 
ATOM     17  C   UNL     1       2.335   7.480  19.078  0.00  0.00    +0.000 A 
ATOM     18  N   UNL     1       2.692   6.163  19.044  0.00  0.00    +0.000 N 
ATOM     19  H   UNL     1       3.175   5.691  18.291  0.00  0.00    +0.000 HD
BRANCH  16  20
ATOM     20  C   UNL     1       1.130   8.924  20.799  0.00  0.00    +0.000 A 
ATOM     21  C   UNL     1       0.949   9.221  22.134  0.00  0.00    +0.000 A 
ATOM     22  N   UNL     1       0.377  10.455  22.404  0.00  0.00    +0.000 NA
ATOM     23  C   UNL     1       0.137  11.069  21.265  0.00  0.00    +0.000 A 
ATOM     24  S   UNL     1       0.582  10.228  19.839  0.00  0.00    +0.000 S 
ENDBRANCH  16  20
ENDBRANCH  13  14
ENDBRANCH   1  13
TORSDOF 5
ENDMDL
MODEL 7
REMARK VINA RESULT:      -7.0      5.884      8.162
REMARK  Name = 
REMARK  6 active torsions:
REMARK  status: ('A' for Active; 'I' for Inactive)
REMARK    1  A    between atoms: C_1  and  O_2
REMARK    2  A    between atoms: O_2  and  C_3
REMARK    3  A    between atoms: C_9  and  C_10
REMARK    4  A    between atoms: C_10  and  C_11
REMARK    5  A    between atoms: C_11  and  C_12
REMARK    6  A    between atoms: C_14  and  C_15
REMARK                            x       y       z     vdW  Elec       q    Type
REMARK                         _______ _______ _______ _____ _____    ______ ____
ROOT
ATOM      1  C   UNL     1       3.669   2.125  18.338  0.00  0.00    +0.000 C 
ENDROOT
BRANCH   1   8
ATOM      2  C   UNL     1       6.507   5.744  16.515  0.00  0.00    +0.000 A 
ATOM      3  C   UNL     1       7.407   6.546  17.132  0.00  0.00    +0.000 A 
ATOM      4  C   UNL     1       7.678   6.443  18.556  0.00  0.00    +0.000 A 
ATOM      5  C   UNL     1       7.013   5.526  19.276  0.00  0.00    +0.000 A 
ATOM      6  N   UNL     1       6.086   4.694  18.653  0.00  0.00    +0.000 N 
ATOM      7  N   UNL     1       5.334   3.721  19.218  0.00  0.00    +0.000 NA
ATOM      8  C   UNL     1       4.640   3.245  18.180  0.00  0.00    +0.000 A 
ATOM      9  N   UNL     1       4.894   3.855  16.981  0.00  0.00    +0.000 NA
ATOM     10  C   UNL     1       5.802   4.764  17.286  0.00  0.00    +0.000 A 
BRANCH   2  12
ATOM     11  C   UNL     1       6.932   4.917  14.315  0.00  0.00    +0.000 C 
ATOM     12  O   UNL     1       6.173   5.752  15.180  0.00  0.00    +0.000 OA
ENDBRANCH   2  12
ENDBRANCH   1   8
BRANCH   1  13
ATOM     13  C   UNL     1       2.228   2.601  18.490  0.00  0.00    +0.000 C 
BRANCH  13  14
ATOM     14  C   UNL     1       2.114   3.864  19.280  0.00  0.00    +0.000 A 
ATOM     15  N   UNL     1       1.808   5.073  18.850  0.00  0.00    +0.000 NA
ATOM     16  C   UNL     1       1.905   5.899  19.947  0.00  0.00    +0.000 A 
ATOM     17  C   UNL     1       2.255   5.173  21.063  0.00  0.00    +0.000 A 
ATOM     18  N   UNL     1       2.362   3.882  20.632  0.00  0.00    +0.000 N 
ATOM     19  H   UNL     1       2.605   3.079  21.195  0.00  0.00    +0.000 HD
BRANCH  16  20
ATOM     20  C   UNL     1       1.675   7.366  19.899  0.00  0.00    +0.000 A 
ATOM     21  C   UNL     1       1.923   8.160  18.798  0.00  0.00    +0.000 A 
ATOM     22  N   UNL     1       1.657   9.511  18.959  0.00  0.00    +0.000 NA
ATOM     23  C   UNL     1       1.214   9.714  20.181  0.00  0.00    +0.000 A 
ATOM     24  S   UNL     1       1.080   8.328  21.182  0.00  0.00    +0.000 S 
ENDBRANCH  16  20
ENDBRANCH  13  14
ENDBRANCH   1  13
TORSDOF 5
ENDMDL
MODEL 8
REMARK VINA RESULT:      -7.0      1.846      2.470
REMARK  Name = 
REMARK  6 active torsions:
REMARK  status: ('A' for Active; 'I' for Inactive)
REMARK    1  A    between atoms: C_1  and  O_2
REMARK    2  A    between atoms: O_2  and  C_3
REMARK    3  A    between atoms: C_9  and  C_10
REMARK    4  A    between atoms: C_10  and  C_11
REMARK    5  A    between atoms: C_11  and  C_12
REMARK    6  A    between atoms: C_14  and  C_15
REMARK                            x       y       z     vdW  Elec       q    Type
REMARK                         _______ _______ _______ _____ _____    ______ ____
ROOT
ATOM      1  C   UNL     1       7.570   6.527  18.476  0.00  0.00    +0.000 C 
ENDROOT
BRANCH   1   8
ATOM      2  C   UNL     1       3.284   4.244  19.426  0.00  0.00    +0.000 A 
ATOM      3  C   UNL     1       2.507   3.474  18.628  0.00  0.00    +0.000 A 
ATOM      4  C   UNL     1       2.862   3.196  17.246  0.00  0.00    +0.000 A 
ATOM      5  C   UNL     1       3.993   3.722  16.751  0.00  0.00    +0.000 A 
ATOM      6  N   UNL     1       4.802   4.514  17.562  0.00  0.00    +0.000 N 
ATOM      7  N   UNL     1       5.969   5.118  17.233  0.00  0.00    +0.000 NA
ATOM      8  C   UNL     1       6.314   5.730  18.370  0.00  0.00    +0.000 A 
ATOM      9  N   UNL     1       5.440   5.564  19.410  0.00  0.00    +0.000 NA
ATOM     10  C   UNL     1       4.494   4.800  18.895  0.00  0.00    +0.000 A 
BRANCH   2  12
ATOM     11  C   UNL     1       2.124   3.761  21.456  0.00  0.00    +0.000 C 
ATOM     12  O   UNL     1       3.048   4.570  20.742  0.00  0.00    +0.000 OA
ENDBRANCH   2  12
ENDBRANCH   1   8
BRANCH   1  13
ATOM     13  C   UNL     1       7.638   7.671  17.470  0.00  0.00    +0.000 C 
BRANCH  13  14
ATOM     14  C   UNL     1       8.260   8.906  18.035  0.00  0.00    +0.000 A 
ATOM     15  N   UNL     1       8.257  10.126  17.534  0.00  0.00    +0.000 NA
ATOM     16  C   UNL     1       9.023  10.886  18.389  0.00  0.00    +0.000 A 
ATOM     17  C   UNL     1       9.479  10.117  19.435  0.00  0.00    +0.000 A 
ATOM     18  N   UNL     1       8.970   8.870  19.211  0.00  0.00    +0.000 N 
ATOM     19  H   UNL     1       9.107   8.052  19.790  0.00  0.00    +0.000 HD
BRANCH  16  20
ATOM     20  C   UNL     1       9.312  12.328  18.177  0.00  0.00    +0.000 A 
ATOM     21  C   UNL     1       8.365  13.330  18.224  0.00  0.00    +0.000 A 
ATOM     22  N   UNL     1       8.834  14.613  17.984  0.00  0.00    +0.000 NA
ATOM     23  C   UNL     1      10.129  14.556  17.759  0.00  0.00    +0.000 A 
ATOM     24  S   UNL     1      10.847  13.001  17.832  0.00  0.00    +0.000 S 
ENDBRANCH  16  20
ENDBRANCH  13  14
ENDBRANCH   1  13
TORSDOF 5
ENDMDL
MODEL 9
REMARK VINA RESULT:      -6.9      6.338      8.212
REMARK  Name = 
REMARK  6 active torsions:
REMARK  status: ('A' for Active; 'I' for Inactive)
REMARK    1  A    between atoms: C_1  and  O_2
REMARK    2  A    between atoms: O_2  and  C_3
REMARK    3  A    between atoms: C_9  and  C_10
REMARK    4  A    between atoms: C_10  and  C_11
REMARK    5  A    between atoms: C_11  and  C_12
REMARK    6  A    between atoms: C_14  and  C_15
REMARK                            x       y       z     vdW  Elec       q    Type
REMARK                         _______ _______ _______ _____ _____    ______ ____
ROOT
ATOM      1  C   UNL     1       1.969   5.443  19.183  0.00  0.00    +0.000 C 
ENDROOT
BRANCH   1   8
ATOM      2  C   UNL     1       5.933   4.668  16.324  0.00  0.00    +0.000 A 
ATOM      3  C   UNL     1       7.251   4.685  16.632  0.00  0.00    +0.000 A 
ATOM      4  C   UNL     1       7.722   4.970  17.977  0.00  0.00    +0.000 A 
ATOM      5  C   UNL     1       6.820   5.224  18.938  0.00  0.00    +0.000 A 
ATOM      6  N   UNL     1       5.460   5.208  18.634  0.00  0.00    +0.000 N 
ATOM      7  N   UNL     1       4.421   5.437  19.471  0.00  0.00    +0.000 NA
ATOM      8  C   UNL     1       3.361   5.289  18.670  0.00  0.00    +0.000 A 
ATOM      9  N   UNL     1       3.652   4.985  17.368  0.00  0.00    +0.000 NA
ATOM     10  C   UNL     1       4.972   4.937  17.353  0.00  0.00    +0.000 A 
BRANCH   2  12
ATOM     11  C   UNL     1       6.247   3.942  14.070  0.00  0.00    +0.000 C 
ATOM     12  O   UNL     1       5.376   4.412  15.092  0.00  0.00    +0.000 OA
ENDBRANCH   2  12
ENDBRANCH   1   8
BRANCH   1  13
ATOM     13  C   UNL     1       1.909   6.090  20.563  0.00  0.00    +0.000 C 
BRANCH  13  14
ATOM     14  C   UNL     1       1.514   7.530  20.513  0.00  0.00    +0.000 A 
ATOM     15  N   UNL     1       0.962   8.259  21.462  0.00  0.00    +0.000 NA
ATOM     16  C   UNL     1       0.730   9.495  20.901  0.00  0.00    +0.000 A 
ATOM     17  C   UNL     1       1.168   9.518  19.597  0.00  0.00    +0.000 A 
ATOM     18  N   UNL     1       1.683   8.274  19.370  0.00  0.00    +0.000 N 
ATOM     19  H   UNL     1       2.096   7.943  18.508  0.00  0.00    +0.000 HD
BRANCH  16  20
ATOM     20  C   UNL     1       0.080  10.621  21.622  0.00  0.00    +0.000 A 
ATOM     21  C   UNL     1      -0.649  10.486  22.786  0.00  0.00    +0.000 A 
ATOM     22  N   UNL     1      -1.189  11.657  23.296  0.00  0.00    +0.000 NA
ATOM     23  C   UNL     1      -0.859  12.656  22.506  0.00  0.00    +0.000 A 
ATOM     24  S   UNL     1       0.106  12.263  21.145  0.00  0.00    +0.000 S 
ENDBRANCH  16  20
ENDBRANCH  13  14
ENDBRANCH   1  13
TORSDOF 5
ENDMDL
