MODEL 1
REMARK VINA RESULT:      -8.4      0.000      0.000
REMARK  Name = 
REMARK  4 active torsions:
REMARK  status: ('A' for Active; 'I' for Inactive)
REMARK    1  A    between atoms: C_1  and  N_2
REMARK    2  A    between atoms: C_9  and  N_10
REMARK    3  A    between atoms: C_11  and  C_13
REMARK    4  A    between atoms: N_15  and  C_16
REMARK                            x       y       z     vdW  Elec       q    Type
REMARK                         _______ _______ _______ _____ _____    ______ ____
ROOT
ATOM      1  N   UNL     1       1.860   7.335  19.756  0.00  0.00    +0.000 N 
ATOM      2  C   UNL     1       1.928   8.494  19.016  0.00  0.00    +0.000 C 
ATOM      3  O   UNL     1       2.663   8.614  18.038  0.00  0.00    +0.000 OA
ATOM      4  H   UNL     1       1.017   7.211  20.307  0.00  0.00    +0.000 HD
ENDROOT
BRANCH   1  13
ATOM      5  C   UNL     1       0.791   2.210  18.845  0.00  0.00    +0.000 C 
ATOM      6  N   UNL     1       1.319   3.557  19.057  0.00  0.00    +0.000 NA
ATOM      7  C   UNL     1       1.988   4.087  17.865  0.00  0.00    +0.000 C 
ATOM      8  C   UNL     1       3.276   3.346  17.481  0.00  0.00    +0.000 C 
ATOM      9  C   UNL     1       4.134   2.805  18.622  0.00  0.00    +0.000 C 
ATOM     10  C   UNL     1       3.519   2.812  20.017  0.00  0.00    +0.000 C 
ATOM     11  C   UNL     1       2.237   3.637  20.195  0.00  0.00    +0.000 C 
ATOM     12  C   UNL     1       2.493   5.107  20.557  0.00  0.00    +0.000 C 
ATOM     13  C   UNL     1       2.603   6.108  19.398  0.00  0.00    +0.000 C 
ATOM     14  C   UNL     1       2.163   5.604  18.018  0.00  0.00    +0.000 C 
ENDBRANCH   1  13
BRANCH   2  15
ATOM     15  C   UNL     1       1.049   9.573  19.478  0.00  0.00    +0.000 A 
ATOM     16  C   UNL     1       0.555  10.620  18.718  0.00  0.00    +0.000 A 
ATOM     17  N   UNL     1      -0.311  11.355  19.487  0.00  0.00    +0.000 N 
ATOM     18  C   UNL     1      -1.114  12.459  19.008  0.00  0.00    +0.000 C 
ATOM     19  C   UNL     1      -0.341  10.862  20.773  0.00  0.00    +0.000 A 
ATOM     20  C   UNL     1      -1.046  11.303  21.911  0.00  0.00    +0.000 A 
ATOM     21  C   UNL     1      -0.881  10.588  23.103  0.00  0.00    +0.000 A 
ATOM     22  C   UNL     1      -0.047   9.473  23.155  0.00  0.00    +0.000 A 
ATOM     23  C   UNL     1       0.642   9.043  22.016  0.00  0.00    +0.000 A 
ATOM     24  C   UNL     1       0.500   9.748  20.797  0.00  0.00    +0.000 A 
ENDBRANCH   2  15
TORSDOF 2
ENDMDL
MODEL 2
REMARK VINA RESULT:      -8.1      1.400      2.428
REMARK  Name = 
REMARK  4 active torsions:
REMARK  status: ('A' for Active; 'I' for Inactive)
REMARK    1  A    between atoms: C_1  and  N_2
REMARK    2  A    between atoms: C_9  and  N_10
REMARK    3  A    between atoms: C_11  and  C_13
REMARK    4  A    between atoms: N_15  and  C_16
REMARK                            x       y       z     vdW  Elec       q    Type
REMARK                         _______ _______ _______ _____ _____    ______ ____
ROOT
ATOM      1  N   UNL     1       1.842   7.691  19.203  0.00  0.00    +0.000 N 
ATOM      2  C   UNL     1       1.663   8.844  18.471  0.00  0.00    +0.000 C 
ATOM      3  O   UNL     1       2.199   9.027  17.379  0.00  0.00    +0.000 OA
ATOM      4  H   UNL     1       1.126   7.491  19.893  0.00  0.00    +0.000 HD
ENDROOT
BRANCH   1  13
ATOM      5  C   UNL     1       1.781   2.398  19.654  0.00  0.00    +0.000 C 
ATOM      6  N   UNL     1       1.998   3.819  19.393  0.00  0.00    +0.000 NA
ATOM      7  C   UNL     1       1.924   4.142  17.965  0.00  0.00    +0.000 C 
ATOM      8  C   UNL     1       3.053   3.534  17.121  0.00  0.00    +0.000 C 
ATOM      9  C   UNL     1       4.427   3.419  17.775  0.00  0.00    +0.000 C 
ATOM     10  C   UNL     1       4.504   3.669  19.277  0.00  0.00    +0.000 C 
ATOM     11  C   UNL     1       3.271   4.309  19.927  0.00  0.00    +0.000 C 
ATOM     12  C   UNL     1       3.288   5.844  19.910  0.00  0.00    +0.000 C 
ATOM     13  C   UNL     1       2.630   6.542  18.711  0.00  0.00    +0.000 C 
ATOM     14  C   UNL     1       1.769   5.660  17.797  0.00  0.00    +0.000 C 
ENDBRANCH   1  13
BRANCH   2  15
ATOM     15  C   UNL     1       0.775   9.835  19.087  0.00  0.00    +0.000 A 
ATOM     16  C   UNL     1       1.024  10.570  20.234  0.00  0.00    +0.000 A 
ATOM     17  N   UNL     1      -0.003  11.460  20.422  0.00  0.00    +0.000 N 
ATOM     18  C   UNL     1      -0.042  12.477  21.449  0.00  0.00    +0.000 C 
ATOM     19  C   UNL     1      -0.973  11.276  19.462  0.00  0.00    +0.000 A 
ATOM     20  C   UNL     1      -2.211  11.922  19.268  0.00  0.00    +0.000 A 
ATOM     21  C   UNL     1      -2.999  11.520  18.183  0.00  0.00    +0.000 A 
ATOM     22  C   UNL     1      -2.565  10.515  17.322  0.00  0.00    +0.000 A 
ATOM     23  C   UNL     1      -1.332   9.886  17.522  0.00  0.00    +0.000 A 
ATOM     24  C   UNL     1      -0.515  10.266  18.613  0.00  0.00    +0.000 A 
ENDBRANCH   2  15
TORSDOF 2
ENDMDL
MODEL 3
REMARK VINA RESULT:      -8.1      1.138      1.485
REMARK  Name = 
REMARK  4 active torsions:
REMARK  status: ('A' for Active; 'I' for Inactive)
REMARK    1  A    between atoms: C_1  and  N_2
REMARK    2  A    between atoms: C_9  and  N_10
REMARK    3  A    between atoms: C_11  and  C_13
REMARK    4  A    between atoms: N_15  and  C_16
REMARK                            x       y       z     vdW  Elec       q    Type
REMARK                         _______ _______ _______ _____ _____    ______ ____
ROOT
ATOM      1  N   UNL     1       1.854   7.621  18.865  0.00  0.00    +0.000 N 
ATOM      2  C   UNL     1       1.735   8.897  18.361  0.00  0.00    +0.000 C 
ATOM      3  O   UNL     1       2.352   9.278  17.368  0.00  0.00    +0.000 OA
ATOM      4  H   UNL     1       1.087   7.304  19.449  0.00  0.00    +0.000 HD
ENDROOT
BRANCH   1  13
ATOM      5  C   UNL     1       3.728   2.793  20.052  0.00  0.00    +0.000 C 
ATOM      6  N   UNL     1       3.331   4.092  19.512  0.00  0.00    +0.000 NA
ATOM      7  C   UNL     1       2.534   3.968  18.289  0.00  0.00    +0.000 C 
ATOM      8  C   UNL     1       3.302   3.398  17.089  0.00  0.00    +0.000 C 
ATOM      9  C   UNL     1       4.778   3.771  16.967  0.00  0.00    +0.000 C 
ATOM     10  C   UNL     1       5.424   4.452  18.168  0.00  0.00    +0.000 C 
ATOM     11  C   UNL     1       4.471   4.974  19.252  0.00  0.00    +0.000 C 
ATOM     12  C   UNL     1       3.978   6.407  19.004  0.00  0.00    +0.000 C 
ATOM     13  C   UNL     1       2.671   6.574  18.216  0.00  0.00    +0.000 C 
ATOM     14  C   UNL     1       1.835   5.305  18.003  0.00  0.00    +0.000 C 
ENDBRANCH   1  13
BRANCH   2  15
ATOM     15  C   UNL     1       0.809   9.766  19.094  0.00  0.00    +0.000 A 
ATOM     16  C   UNL     1       0.001  10.754  18.557  0.00  0.00    +0.000 A 
ATOM     17  N   UNL     1      -0.791  11.268  19.553  0.00  0.00    +0.000 N 
ATOM     18  C   UNL     1      -1.846  12.237  19.356  0.00  0.00    +0.000 C 
ATOM     19  C   UNL     1      -0.468  10.694  20.762  0.00  0.00    +0.000 A 
ATOM     20  C   UNL     1      -0.979  10.922  22.056  0.00  0.00    +0.000 A 
ATOM     21  C   UNL     1      -0.451  10.171  23.112  0.00  0.00    +0.000 A 
ATOM     22  C   UNL     1       0.546   9.225  22.885  0.00  0.00    +0.000 A 
ATOM     23  C   UNL     1       1.040   9.004  21.595  0.00  0.00    +0.000 A 
ATOM     24  C   UNL     1       0.530   9.750  20.507  0.00  0.00    +0.000 A 
ENDBRANCH   2  15
TORSDOF 2
ENDMDL
MODEL 4
REMARK VINA RESULT:      -8.1      1.803      2.612
REMARK  Name = 
REMARK  4 active torsions:
REMARK  status: ('A' for Active; 'I' for Inactive)
REMARK    1  A    between atoms: C_1  and  N_2
REMARK    2  A    between atoms: C_9  and  N_10
REMARK    3  A    between atoms: C_11  and  C_13
REMARK    4  A    between atoms: N_15  and  C_16
REMARK                            x       y       z     vdW  Elec       q    Type
REMARK                         _______ _______ _______ _____ _____    ______ ____
ROOT
ATOM      1  N   UNL     1       2.262   8.082  19.059  0.00  0.00    +0.000 N 
ATOM      2  C   UNL     1       1.479   9.037  18.451  0.00  0.00    +0.000 C 
ATOM      3  O   UNL     1       1.170   8.982  17.262  0.00  0.00    +0.000 OA
ATOM      4  H   UNL     1       2.184   8.025  20.070  0.00  0.00    +0.000 HD
ENDROOT
BRANCH   1  13
ATOM      5  C   UNL     1       6.649   5.087  18.914  0.00  0.00    +0.000 C 
ATOM      6  N   UNL     1       5.355   5.756  18.784  0.00  0.00    +0.000 NA
ATOM      7  C   UNL     1       4.236   4.883  19.152  0.00  0.00    +0.000 C 
ATOM      8  C   UNL     1       4.025   3.695  18.205  0.00  0.00    +0.000 C 
ATOM      9  C   UNL     1       4.319   3.924  16.724  0.00  0.00    +0.000 C 
ATOM     10  C   UNL     1       5.039   5.215  16.351  0.00  0.00    +0.000 C 
ATOM     11  C   UNL     1       5.122   6.291  17.441  0.00  0.00    +0.000 C 
ATOM     12  C   UNL     1       3.919   7.245  17.460  0.00  0.00    +0.000 C 
ATOM     13  C   UNL     1       2.736   6.867  18.362  0.00  0.00    +0.000 C 
ATOM     14  C   UNL     1       2.980   5.737  19.370  0.00  0.00    +0.000 C 
ENDBRANCH   1  13
BRANCH   2  15
ATOM     15  C   UNL     1       1.033  10.122  19.330  0.00  0.00    +0.000 A 
ATOM     16  C   UNL     1       1.105  11.480  19.070  0.00  0.00    +0.000 A 
ATOM     17  N   UNL     1       0.491  12.160  20.092  0.00  0.00    +0.000 N 
ATOM     18  C   UNL     1       0.263  13.588  20.120  0.00  0.00    +0.000 C 
ATOM     19  C   UNL     1       0.082  11.280  21.070  0.00  0.00    +0.000 A 
ATOM     20  C   UNL     1      -0.556  11.509  22.306  0.00  0.00    +0.000 A 
ATOM     21  C   UNL     1      -0.861  10.399  23.103  0.00  0.00    +0.000 A 
ATOM     22  C   UNL     1      -0.546   9.110  22.679  0.00  0.00    +0.000 A 
ATOM     23  C   UNL     1       0.081   8.897  21.447  0.00  0.00    +0.000 A 
ATOM     24  C   UNL     1       0.407   9.998  20.621  0.00  0.00    +0.000 A 
ENDBRANCH   2  15
TORSDOF 2
ENDMDL
MODEL 5
REMARK VINA RESULT:      -7.8      1.363      2.654
REMARK  Name = 
REMARK  4 active torsions:
REMARK  status: ('A' for Active; 'I' for Inactive)
REMARK    1  A    between atoms: C_1  and  N_2
REMARK    2  A    between atoms: C_9  and  N_10
REMARK    3  A    between atoms: C_11  and  C_13
REMARK    4  A    between atoms: N_15  and  C_16
REMARK                            x       y       z     vdW  Elec       q    Type
REMARK                         _______ _______ _______ _____ _____    ______ ____
ROOT
ATOM      1  N   UNL     1       2.155   7.278  19.379  0.00  0.00    +0.000 N 
ATOM      2  C   UNL     1       1.794   8.552  19.000  0.00  0.00    +0.000 C 
ATOM      3  O   UNL     1       2.183   9.068  17.954  0.00  0.00    +0.000 OA
ATOM      4  H   UNL     1       1.542   6.828  20.051  0.00  0.00    +0.000 HD
ENDROOT
BRANCH   1  13
ATOM      5  C   UNL     1       4.181   2.372  19.623  0.00  0.00    +0.000 C 
ATOM      6  N   UNL     1       3.736   3.735  19.338  0.00  0.00    +0.000 NA
ATOM      7  C   UNL     1       2.903   3.810  18.134  0.00  0.00    +0.000 C 
ATOM      8  C   UNL     1       3.647   3.487  16.831  0.00  0.00    +0.000 C 
ATOM      9  C   UNL     1       5.108   3.920  16.738  0.00  0.00    +0.000 C 
ATOM     10  C   UNL     1       5.775   4.393  18.025  0.00  0.00    +0.000 C 
ATOM     11  C   UNL     1       4.845   4.683  19.210  0.00  0.00    +0.000 C 
ATOM     12  C   UNL     1       4.310   6.121  19.238  0.00  0.00    +0.000 C 
ATOM     13  C   UNL     1       2.975   6.389  18.529  0.00  0.00    +0.000 C 
ATOM     14  C   UNL     1       2.164   5.155  18.114  0.00  0.00    +0.000 C 
ENDBRANCH   1  13
BRANCH   2  15
ATOM     15  C   UNL     1       0.903   9.246  19.936  0.00  0.00    +0.000 A 
ATOM     16  C   UNL     1       0.723   8.955  21.277  0.00  0.00    +0.000 A 
ATOM     17  N   UNL     1      -0.112   9.895  21.826  0.00  0.00    +0.000 N 
ATOM     18  C   UNL     1      -0.442   9.992  23.231  0.00  0.00    +0.000 C 
ATOM     19  C   UNL     1      -0.556  10.762  20.853  0.00  0.00    +0.000 A 
ATOM     20  C   UNL     1      -1.443  11.856  20.930  0.00  0.00    +0.000 A 
ATOM     21  C   UNL     1      -1.707  12.570  19.755  0.00  0.00    +0.000 A 
ATOM     22  C   UNL     1      -1.105  12.210  18.552  0.00  0.00    +0.000 A 
ATOM     23  C   UNL     1      -0.222  11.127  18.492  0.00  0.00    +0.000 A 
ATOM     24  C   UNL     1       0.062  10.381  19.660  0.00  0.00    +0.000 A 
ENDBRANCH   2  15
TORSDOF 2
ENDMDL
MODEL 6
REMARK VINA RESULT:      -7.7      1.466      2.611
REMARK  Name = 
REMARK  4 active torsions:
REMARK  status: ('A' for Active; 'I' for Inactive)
REMARK    1  A    between atoms: C_1  and  N_2
REMARK    2  A    between atoms: C_9  and  N_10
REMARK    3  A    between atoms: C_11  and  C_13
REMARK    4  A    between atoms: N_15  and  C_16
REMARK                            x       y       z     vdW  Elec       q    Type
REMARK                         _______ _______ _______ _____ _____    ______ ____
ROOT
ATOM      1  N   UNL     1       2.178   7.639  19.137  0.00  0.00    +0.000 N 
ATOM      2  C   UNL     1       1.952   8.754  18.361  0.00  0.00    +0.000 C 
ATOM      3  O   UNL     1       2.280   8.815  17.177  0.00  0.00    +0.000 OA
ATOM      4  H   UNL     1       1.594   7.550  19.962  0.00  0.00    +0.000 HD
ENDROOT
BRANCH   1  13
ATOM      5  C   UNL     1       1.707   2.408  19.947  0.00  0.00    +0.000 C 
ATOM      6  N   UNL     1       2.007   3.785  19.558  0.00  0.00    +0.000 NA
ATOM      7  C   UNL     1       1.721   4.041  18.144  0.00  0.00    +0.000 C 
ATOM      8  C   UNL     1       2.629   3.279  17.169  0.00  0.00    +0.000 C 
ATOM      9  C   UNL     1       4.078   3.058  17.595  0.00  0.00    +0.000 C 
ATOM     10  C   UNL     1       4.432   3.375  19.044  0.00  0.00    +0.000 C 
ATOM     11  C   UNL     1       3.391   4.170  19.843  0.00  0.00    +0.000 C 
ATOM     12  C   UNL     1       3.547   5.692  19.720  0.00  0.00    +0.000 C 
ATOM     13  C   UNL     1       2.761   6.391  18.601  0.00  0.00    +0.000 C 
ATOM     14  C   UNL     1       1.680   5.556  17.902  0.00  0.00    +0.000 C 
ENDBRANCH   1  13
BRANCH   2  15
ATOM     15  C   UNL     1       1.282   9.861  19.050  0.00  0.00    +0.000 A 
ATOM     16  C   UNL     1       0.298   9.758  20.019  0.00  0.00    +0.000 A 
ATOM     17  N   UNL     1       0.005  11.014  20.488  0.00  0.00    +0.000 N 
ATOM     18  C   UNL     1      -0.889  11.301  21.587  0.00  0.00    +0.000 C 
ATOM     19  C   UNL     1       0.722  11.961  19.791  0.00  0.00    +0.000 A 
ATOM     20  C   UNL     1       0.731  13.367  19.891  0.00  0.00    +0.000 A 
ATOM     21  C   UNL     1       1.583  14.081  19.040  0.00  0.00    +0.000 A 
ATOM     22  C   UNL     1       2.397  13.415  18.126  0.00  0.00    +0.000 A 
ATOM     23  C   UNL     1       2.383  12.019  18.041  0.00  0.00    +0.000 A 
ATOM     24  C   UNL     1       1.530  11.270  18.885  0.00  0.00    +0.000 A 
ENDBRANCH   2  15
TORSDOF 2
ENDMDL
MODEL 7
REMARK VINA RESULT:      -7.7      1.187      1.908
REMARK  Name = 
REMARK  4 active torsions:
REMARK  status: ('A' for Active; 'I' for Inactive)
REMARK    1  A    between atoms: C_1  and  N_2
REMARK    2  A    between atoms: C_9  and  N_10
REMARK    3  A    between atoms: C_11  and  C_13
REMARK    4  A    between atoms: N_15  and  C_16
REMARK                            x       y       z     vdW  Elec       q    Type
REMARK                         _______ _______ _______ _____ _____    ______ ____
ROOT
ATOM      1  N   UNL     1       1.724   6.657  19.893  0.00  0.00    +0.000 N 
ATOM      2  C   UNL     1       2.124   7.726  19.124  0.00  0.00    +0.000 C 
ATOM      3  O   UNL     1       2.970   7.626  18.237  0.00  0.00    +0.000 OA
ATOM      4  H   UNL     1       0.819   6.751  20.342  0.00  0.00    +0.000 HD
ENDROOT
BRANCH   1  13
ATOM      5  C   UNL     1       4.795   4.085  16.401  0.00  0.00    +0.000 C 
ATOM      6  N   UNL     1       3.922   4.573  17.468  0.00  0.00    +0.000 NA
ATOM      7  C   UNL     1       4.501   4.370  18.799  0.00  0.00    +0.000 C 
ATOM      8  C   UNL     1       4.638   2.898  19.210  0.00  0.00    +0.000 C 
ATOM      9  C   UNL     1       3.553   1.937  18.729  0.00  0.00    +0.000 C 
ATOM     10  C   UNL     1       2.580   2.459  17.677  0.00  0.00    +0.000 C 
ATOM     11  C   UNL     1       2.587   3.973  17.431  0.00  0.00    +0.000 C 
ATOM     12  C   UNL     1       1.638   4.753  18.353  0.00  0.00    +0.000 C 
ATOM     13  C   UNL     1       2.216   5.280  19.674  0.00  0.00    +0.000 C 
ATOM     14  C   UNL     1       3.743   5.234  19.817  0.00  0.00    +0.000 C 
ENDBRANCH   1  13
BRANCH   2  15
ATOM     15  C   UNL     1       1.457   8.995  19.434  0.00  0.00    +0.000 A 
ATOM     16  C   UNL     1       1.290  10.073  18.582  0.00  0.00    +0.000 A 
ATOM     17  N   UNL     1       0.526  11.022  19.212  0.00  0.00    +0.000 N 
ATOM     18  C   UNL     1       0.042  12.239  18.599  0.00  0.00    +0.000 C 
ATOM     19  C   UNL     1       0.247  10.628  20.502  0.00  0.00    +0.000 A 
ATOM     20  C   UNL     1      -0.466  11.279  21.530  0.00  0.00    +0.000 A 
ATOM     21  C   UNL     1      -0.594  10.621  22.759  0.00  0.00    +0.000 A 
ATOM     22  C   UNL     1      -0.034   9.360  22.952  0.00  0.00    +0.000 A 
ATOM     23  C   UNL     1       0.666   8.723  21.922  0.00  0.00    +0.000 A 
ATOM     24  C   UNL     1       0.817   9.364  20.670  0.00  0.00    +0.000 A 
ENDBRANCH   2  15
TORSDOF 2
ENDMDL
MODEL 8
REMARK VINA RESULT:      -7.7      2.020      7.789
REMARK  Name = 
REMARK  4 active torsions:
REMARK  status: ('A' for Active; 'I' for Inactive)
REMARK    1  A    between atoms: C_1  and  N_2
REMARK    2  A    between atoms: C_9  and  N_10
REMARK    3  A    between atoms: C_11  and  C_13
REMARK    4  A    between atoms: N_15  and  C_16
REMARK                            x       y       z     vdW  Elec       q    Type
REMARK                         _______ _______ _______ _____ _____    ______ ____
ROOT
ATOM      1  N   UNL     1       1.309   8.922  18.769  0.00  0.00    +0.000 N 
ATOM      2  C   UNL     1       1.884   7.828  19.378  0.00  0.00    +0.000 C 
ATOM      3  O   UNL     1       1.712   7.565  20.567  0.00  0.00    +0.000 OA
ATOM      4  H   UNL     1       1.227   8.872  17.759  0.00  0.00    +0.000 HD
ENDROOT
BRANCH   1  13
ATOM      5  C   UNL     1      -0.110  14.037  18.534  0.00  0.00    +0.000 C 
ATOM      6  N   UNL     1       0.122  12.616  18.786  0.00  0.00    +0.000 NA
ATOM      7  C   UNL     1      -1.090  11.812  18.604  0.00  0.00    +0.000 C 
ATOM      8  C   UNL     1      -2.195  12.094  19.632  0.00  0.00    +0.000 C 
ATOM      9  C   UNL     1      -1.753  12.442  21.051  0.00  0.00    +0.000 C 
ATOM     10  C   UNL     1      -0.272  12.735  21.265  0.00  0.00    +0.000 C 
ATOM     11  C   UNL     1       0.673  12.354  20.117  0.00  0.00    +0.000 C 
ATOM     12  C   UNL     1       1.190  10.911  20.195  0.00  0.00    +0.000 C 
ATOM     13  C   UNL     1       0.376   9.832  19.466  0.00  0.00    +0.000 C 
ATOM     14  C   UNL     1      -0.703  10.331  18.496  0.00  0.00    +0.000 C 
ENDBRANCH   1  13
BRANCH   2  15
ATOM     15  C   UNL     1       2.709   6.994  18.499  0.00  0.00    +0.000 A 
ATOM     16  C   UNL     1       3.773   7.414  17.719  0.00  0.00    +0.000 A 
ATOM     17  N   UNL     1       4.347   6.319  17.125  0.00  0.00    +0.000 N 
ATOM     18  C   UNL     1       5.554   6.343  16.330  0.00  0.00    +0.000 C 
ATOM     19  C   UNL     1       3.633   5.182  17.434  0.00  0.00    +0.000 A 
ATOM     20  C   UNL     1       3.816   3.842  17.034  0.00  0.00    +0.000 A 
ATOM     21  C   UNL     1       2.920   2.884  17.520  0.00  0.00    +0.000 A 
ATOM     22  C   UNL     1       1.883   3.248  18.375  0.00  0.00    +0.000 A 
ATOM     23  C   UNL     1       1.716   4.580  18.769  0.00  0.00    +0.000 A 
ATOM     24  C   UNL     1       2.602   5.573  18.291  0.00  0.00    +0.000 A 
ENDBRANCH   2  15
TORSDOF 2
ENDMDL
MODEL 9
REMARK VINA RESULT:      -7.7      1.267      1.294
REMARK  Name = 
REMARK  4 active torsions:
REMARK  status: ('A' for Active; 'I' for Inactive)
REMARK    1  A    between atoms: C_1  and  N_2
REMARK    2  A    between atoms: C_9  and  N_10
REMARK    3  A    between atoms: C_11  and  C_13
REMARK    4  A    between atoms: N_15  and  C_16
REMARK                            x       y       z     vdW  Elec       q    Type
REMARK                         _______ _______ _______ _____ _____    ______ ____
ROOT
ATOM      1  N   UNL     1       2.207   7.433  18.595  0.00  0.00    +0.000 N 
ATOM      2  C   UNL     1       1.638   7.746  19.809  0.00  0.00    +0.000 C 
ATOM      3  O   UNL     1       1.493   6.918  20.707  0.00  0.00    +0.000 OA
ATOM      4  H   UNL     1       2.584   8.216  18.070  0.00  0.00    +0.000 HD
ENDROOT
BRANCH   1  13
ATOM      5  C   UNL     1       1.813   2.479  20.474  0.00  0.00    +0.000 C 
ATOM      6  N   UNL     1       2.082   3.746  19.798  0.00  0.00    +0.000 NA
ATOM      7  C   UNL     1       1.711   3.712  18.380  0.00  0.00    +0.000 C 
ATOM      8  C   UNL     1       2.563   2.762  17.528  0.00  0.00    +0.000 C 
ATOM      9  C   UNL     1       4.037   2.622  17.903  0.00  0.00    +0.000 C 
ATOM     10  C   UNL     1       4.474   3.223  19.234  0.00  0.00    +0.000 C 
ATOM     11  C   UNL     1       3.478   4.170  19.916  0.00  0.00    +0.000 C 
ATOM     12  C   UNL     1       3.619   5.635  19.478  0.00  0.00    +0.000 C 
ATOM     13  C   UNL     1       2.765   6.099  18.289  0.00  0.00    +0.000 C 
ATOM     14  C   UNL     1       1.648   5.147  17.840  0.00  0.00    +0.000 C 
ENDBRANCH   1  13
BRANCH   2  15
ATOM     15  C   UNL     1       1.224   9.145  19.955  0.00  0.00    +0.000 A 
ATOM     16  C   UNL     1       1.440  10.171  19.050  0.00  0.00    +0.000 A 
ATOM     17  N   UNL     1       0.811  11.302  19.505  0.00  0.00    +0.000 N 
ATOM     18  C   UNL     1       0.713  12.547  18.775  0.00  0.00    +0.000 C 
ATOM     19  C   UNL     1       0.247  11.069  20.740  0.00  0.00    +0.000 A 
ATOM     20  C   UNL     1      -0.463  11.927  21.604  0.00  0.00    +0.000 A 
ATOM     21  C   UNL     1      -0.930  11.400  22.814  0.00  0.00    +0.000 A 
ATOM     22  C   UNL     1      -0.701  10.067  23.145  0.00  0.00    +0.000 A 
ATOM     23  C   UNL     1      -0.001   9.225  22.275  0.00  0.00    +0.000 A 
ATOM     24  C   UNL     1       0.489   9.729  21.048  0.00  0.00    +0.000 A 
ENDBRANCH   2  15
TORSDOF 2
ENDMDL
