MODEL 1
REMARK VINA RESULT:      -8.1      0.000      0.000
REMARK  Name = 
REMARK  7 active torsions:
REMARK  status: ('A' for Active; 'I' for Inactive)
REMARK    1  A    between atoms: C_1  and  C_2
REMARK    2  A    between atoms: C_3  and  O_4
REMARK    3  A    between atoms: C_6  and  C_7
REMARK    4  A    between atoms: C_8  and  C_9
REMARK    5  A    between atoms: C_10  and  C_11
REMARK    6  A    between atoms: C_12  and  C_13
REMARK    7  A    between atoms: C_14  and  C_15
REMARK                            x       y       z     vdW  Elec       q    Type
REMARK                         _______ _______ _______ _____ _____    ______ ____
ROOT
ATOM      1  C   UNL     1       1.127   9.052  17.738  0.00  0.00    +0.000 C 
ATOM      2  C   UNL     1       0.742   9.775  18.804  0.00  0.00    +0.000 C 
ENDROOT
BRANCH   1   4
ATOM      3  C   UNL     1       2.667   7.179  18.133  0.00  0.00    +0.000 C 
ATOM      4  C   UNL     1       2.424   8.406  17.640  0.00  0.00    +0.000 C 
BRANCH   3   9
ATOM      5  C   UNL     1       7.787   4.592  17.724  0.00  0.00    +0.000 C 
ATOM      6  C   UNL     1       6.413   5.172  17.890  0.00  0.00    +0.000 A 
ATOM      7  C   UNL     1       5.375   4.600  18.521  0.00  0.00    +0.000 A 
ATOM      8  C   UNL     1       4.104   5.253  18.616  0.00  0.00    +0.000 A 
ATOM      9  C   UNL     1       3.929   6.462  18.072  0.00  0.00    +0.000 A 
ATOM     10  O   UNL     1       4.986   7.112  17.397  0.00  0.00    +0.000 OA
ATOM     11  C   UNL     1       6.216   6.521  17.281  0.00  0.00    +0.000 A 
ATOM     12  O   UNL     1       7.137   7.082  16.694  0.00  0.00    +0.000 OA
BRANCH   7  13
ATOM     13  O   UNL     1       5.387   3.369  19.130  0.00  0.00    +0.000 OA
ATOM     14  H   UNL     1       4.590   3.251  19.669  0.00  0.00    +0.000 HD
ENDBRANCH   7  13
ENDBRANCH   3   9
ENDBRANCH   1   4
BRANCH   2  15
ATOM     15  C   UNL     1      -0.553  10.422  18.906  0.00  0.00    +0.000 C 
ATOM     16  C   UNL     1      -1.574  10.173  18.066  0.00  0.00    +0.000 C 
BRANCH  16  17
ATOM     17  C   UNL     1      -2.848  10.858  18.165  0.00  0.00    +0.000 C 
ATOM     18  C   UNL     1      -3.947  10.520  17.468  0.00  0.00    +0.000 C 
BRANCH  18  19
ATOM     19  C   UNL     1      -5.137  11.294  17.563  0.00  0.00    +0.000 A 
ATOM     20  N   UNL     1      -5.162  12.522  16.932  0.00  0.00    +0.000 N 
ATOM     21  C   UNL     1      -6.382  13.123  17.117  0.00  0.00    +0.000 A 
ATOM     22  C   UNL     1      -7.148  12.291  17.898  0.00  0.00    +0.000 A 
ATOM     23  C   UNL     1      -6.366  11.148  18.189  0.00  0.00    +0.000 A 
ATOM     24 CL   UNL     1      -6.912   9.876  19.181  0.00  0.00    +0.000 Cl
ATOM     25  H   UNL     1      -4.404  12.917  16.392  0.00  0.00    +0.000 HD
ENDBRANCH  18  19
ENDBRANCH  16  17
ENDBRANCH   2  15
TORSDOF 6
ENDMDL
MODEL 2
REMARK VINA RESULT:      -7.8      8.847     10.990
REMARK  Name = 
REMARK  7 active torsions:
REMARK  status: ('A' for Active; 'I' for Inactive)
REMARK    1  A    between atoms: C_1  and  C_2
REMARK    2  A    between atoms: C_3  and  O_4
REMARK    3  A    between atoms: C_6  and  C_7
REMARK    4  A    between atoms: C_8  and  C_9
REMARK    5  A    between atoms: C_10  and  C_11
REMARK    6  A    between atoms: C_12  and  C_13
REMARK    7  A    between atoms: C_14  and  C_15
REMARK                            x       y       z     vdW  Elec       q    Type
REMARK                         _______ _______ _______ _____ _____    ______ ____
ROOT
ATOM      1  C   UNL     1       8.539   9.022  18.676  0.00  0.00    +0.000 C 
ATOM      2  C   UNL     1       7.998   8.496  17.564  0.00  0.00    +0.000 C 
ENDROOT
BRANCH   1   4
ATOM      3  C   UNL     1       8.897  11.387  18.113  0.00  0.00    +0.000 C 
ATOM      4  C   UNL     1       9.323  10.244  18.680  0.00  0.00    +0.000 C 
BRANCH   3   9
ATOM      5  C   UNL     1      11.542  16.492  18.205  0.00  0.00    +0.000 C 
ATOM      6  C   UNL     1      10.927  15.128  18.096  0.00  0.00    +0.000 A 
ATOM      7  C   UNL     1      11.307  14.145  17.264  0.00  0.00    +0.000 A 
ATOM      8  C   UNL     1      10.639  12.878  17.249  0.00  0.00    +0.000 A 
ATOM      9  C   UNL     1       9.615  12.649  18.078  0.00  0.00    +0.000 A 
ATOM     10  O   UNL     1       9.174  13.647  18.974  0.00  0.00    +0.000 OA
ATOM     11  C   UNL     1       9.782  14.873  19.019  0.00  0.00    +0.000 A 
ATOM     12  O   UNL     1       9.400  15.743  19.796  0.00  0.00    +0.000 OA
BRANCH   7  13
ATOM     13  O   UNL     1      12.333  14.215  16.355  0.00  0.00    +0.000 OA
ATOM     14  H   UNL     1      12.252  15.016  15.814  0.00  0.00    +0.000 HD
ENDBRANCH   7  13
ENDBRANCH   3   9
ENDBRANCH   1   4
BRANCH   2  15
ATOM     15  C   UNL     1       7.213   7.275  17.557  0.00  0.00    +0.000 C 
ATOM     16  C   UNL     1       7.363   6.293  18.464  0.00  0.00    +0.000 C 
BRANCH  16  17
ATOM     17  C   UNL     1       6.593   5.066  18.416  0.00  0.00    +0.000 C 
ATOM     18  C   UNL     1       5.385   4.904  18.985  0.00  0.00    +0.000 C 
BRANCH  18  19
ATOM     19  C   UNL     1       4.730   3.642  18.960  0.00  0.00    +0.000 A 
ATOM     20  N   UNL     1       5.139   2.684  19.866  0.00  0.00    +0.000 N 
ATOM     21  C   UNL     1       4.397   1.539  19.709  0.00  0.00    +0.000 A 
ATOM     22  C   UNL     1       3.516   1.746  18.674  0.00  0.00    +0.000 A 
ATOM     23  C   UNL     1       3.730   3.060  18.195  0.00  0.00    +0.000 A 
ATOM     24 CL   UNL     1       2.883   3.716  16.872  0.00  0.00    +0.000 Cl
ATOM     25  H   UNL     1       5.863   2.807  20.561  0.00  0.00    +0.000 HD
ENDBRANCH  18  19
ENDBRANCH  16  17
ENDBRANCH   2  15
TORSDOF 6
ENDMDL
MODEL 3
REMARK VINA RESULT:      -7.8      0.793      1.635
REMARK  Name = 
REMARK  7 active torsions:
REMARK  status: ('A' for Active; 'I' for Inactive)
REMARK    1  A    between atoms: C_1  and  C_2
REMARK    2  A    between atoms: C_3  and  O_4
REMARK    3  A    between atoms: C_6  and  C_7
REMARK    4  A    between atoms: C_8  and  C_9
REMARK    5  A    between atoms: C_10  and  C_11
REMARK    6  A    between atoms: C_12  and  C_13
REMARK    7  A    between atoms: C_14  and  C_15
REMARK                            x       y       z     vdW  Elec       q    Type
REMARK                         _______ _______ _______ _____ _____    ______ ____
ROOT
ATOM      1  C   UNL     1       1.096   9.076  17.799  0.00  0.00    +0.000 C 
ATOM      2  C   UNL     1       0.672   9.771  18.868  0.00  0.00    +0.000 C 
ENDROOT
BRANCH   1   4
ATOM      3  C   UNL     1       2.675   7.194  17.851  0.00  0.00    +0.000 C 
ATOM      4  C   UNL     1       2.429   8.507  17.696  0.00  0.00    +0.000 C 
BRANCH   3   9
ATOM      5  C   UNL     1       7.774   4.536  17.795  0.00  0.00    +0.000 C 
ATOM      6  C   UNL     1       6.466   5.262  17.698  0.00  0.00    +0.000 A 
ATOM      7  C   UNL     1       5.995   5.921  16.627  0.00  0.00    +0.000 A 
ATOM      8  C   UNL     1       4.723   6.580  16.653  0.00  0.00    +0.000 A 
ATOM      9  C   UNL     1       3.973   6.547  17.759  0.00  0.00    +0.000 A 
ATOM     10  O   UNL     1       4.418   5.869  18.915  0.00  0.00    +0.000 OA
ATOM     11  C   UNL     1       5.628   5.228  18.934  0.00  0.00    +0.000 A 
ATOM     12  O   UNL     1       6.019   4.638  19.937  0.00  0.00    +0.000 OA
BRANCH   7  13
ATOM     13  O   UNL     1       6.636   6.050  15.419  0.00  0.00    +0.000 OA
ATOM     14  H   UNL     1       6.934   5.184  15.100  0.00  0.00    +0.000 HD
ENDBRANCH   7  13
ENDBRANCH   3   9
ENDBRANCH   1   4
BRANCH   2  15
ATOM     15  C   UNL     1      -0.659  10.340  18.975  0.00  0.00    +0.000 C 
ATOM     16  C   UNL     1      -1.474  10.521  17.921  0.00  0.00    +0.000 C 
BRANCH  16  17
ATOM     17  C   UNL     1      -2.786  11.125  18.046  0.00  0.00    +0.000 C 
ATOM     18  C   UNL     1      -3.897  10.660  17.446  0.00  0.00    +0.000 C 
BRANCH  18  19
ATOM     19  C   UNL     1      -5.131  11.358  17.556  0.00  0.00    +0.000 A 
ATOM     20  N   UNL     1      -5.240  12.582  16.926  0.00  0.00    +0.000 N 
ATOM     21  C   UNL     1      -6.493  13.106  17.126  0.00  0.00    +0.000 A 
ATOM     22  C   UNL     1      -7.197  12.227  17.915  0.00  0.00    +0.000 A 
ATOM     23  C   UNL     1      -6.341  11.135  18.196  0.00  0.00    +0.000 A 
ATOM     24 CL   UNL     1      -6.795   9.831  19.193  0.00  0.00    +0.000 Cl
ATOM     25  H   UNL     1      -4.515  13.024  16.378  0.00  0.00    +0.000 HD
ENDBRANCH  18  19
ENDBRANCH  16  17
ENDBRANCH   2  15
TORSDOF 6
ENDMDL
MODEL 4
REMARK VINA RESULT:      -7.7      8.083     10.515
REMARK  Name = 
REMARK  7 active torsions:
REMARK  status: ('A' for Active; 'I' for Inactive)
REMARK    1  A    between atoms: C_1  and  C_2
REMARK    2  A    between atoms: C_3  and  O_4
REMARK    3  A    between atoms: C_6  and  C_7
REMARK    4  A    between atoms: C_8  and  C_9
REMARK    5  A    between atoms: C_10  and  C_11
REMARK    6  A    between atoms: C_12  and  C_13
REMARK    7  A    between atoms: C_14  and  C_15
REMARK                            x       y       z     vdW  Elec       q    Type
REMARK                         _______ _______ _______ _____ _____    ______ ____
ROOT
ATOM      1  C   UNL     1       7.364   7.948  17.350  0.00  0.00    +0.000 C 
ATOM      2  C   UNL     1       8.188   8.590  18.195  0.00  0.00    +0.000 C 
ENDROOT
BRANCH   1   4
ATOM      3  C   UNL     1       5.380   6.544  17.715  0.00  0.00    +0.000 C 
ATOM      4  C   UNL     1       6.717   6.688  17.671  0.00  0.00    +0.000 C 
BRANCH   3   9
ATOM      5  C   UNL     1       2.267   1.824  18.763  0.00  0.00    +0.000 C 
ATOM      6  C   UNL     1       3.166   3.007  18.554  0.00  0.00    +0.000 A 
ATOM      7  C   UNL     1       4.412   3.158  19.031  0.00  0.00    +0.000 A 
ATOM      8  C   UNL     1       5.178   4.338  18.764  0.00  0.00    +0.000 A 
ATOM      9  C   UNL     1       4.657   5.322  18.023  0.00  0.00    +0.000 A 
ATOM     10  O   UNL     1       3.351   5.218  17.496  0.00  0.00    +0.000 OA
ATOM     11  C   UNL     1       2.584   4.107  17.729  0.00  0.00    +0.000 A 
ATOM     12  O   UNL     1       1.448   4.014  17.273  0.00  0.00    +0.000 OA
BRANCH   7  13
ATOM     13  O   UNL     1       5.090   2.248  19.804  0.00  0.00    +0.000 OA
ATOM     14  H   UNL     1       6.047   2.379  19.720  0.00  0.00    +0.000 HD
ENDBRANCH   7  13
ENDBRANCH   3   9
ENDBRANCH   1   4
BRANCH   2  15
ATOM     15  C   UNL     1       8.836   9.849  17.877  0.00  0.00    +0.000 C 
ATOM     16  C   UNL     1       9.231  10.735  18.809  0.00  0.00    +0.000 C 
BRANCH  16  17
ATOM     17  C   UNL     1       9.843  12.004  18.467  0.00  0.00    +0.000 C 
ATOM     18  C   UNL     1       9.223  13.194  18.552  0.00  0.00    +0.000 C 
BRANCH  18  19
ATOM     19  C   UNL     1       9.867  14.386  18.121  0.00  0.00    +0.000 A 
ATOM     20  N   UNL     1      10.623  14.330  16.967  0.00  0.00    +0.000 N 
ATOM     21  C   UNL     1      11.161  15.564  16.695  0.00  0.00    +0.000 A 
ATOM     22  C   UNL     1      10.773  16.423  17.696  0.00  0.00    +0.000 A 
ATOM     23  C   UNL     1       9.971  15.684  18.598  0.00  0.00    +0.000 A 
ATOM     24 CL   UNL     1       9.319  16.351  20.023  0.00  0.00    +0.000 Cl
ATOM     25  H   UNL     1      10.749  13.510  16.389  0.00  0.00    +0.000 HD
ENDBRANCH  18  19
ENDBRANCH  16  17
ENDBRANCH   2  15
TORSDOF 6
ENDMDL
MODEL 5
REMARK VINA RESULT:      -7.2      8.444     10.898
REMARK  Name = 
REMARK  7 active torsions:
REMARK  status: ('A' for Active; 'I' for Inactive)
REMARK    1  A    between atoms: C_1  and  C_2
REMARK    2  A    between atoms: C_3  and  O_4
REMARK    3  A    between atoms: C_6  and  C_7
REMARK    4  A    between atoms: C_8  and  C_9
REMARK    5  A    between atoms: C_10  and  C_11
REMARK    6  A    between atoms: C_12  and  C_13
REMARK    7  A    between atoms: C_14  and  C_15
REMARK                            x       y       z     vdW  Elec       q    Type
REMARK                         _______ _______ _______ _____ _____    ______ ____
ROOT
ATOM      1  C   UNL     1       8.270   9.111  17.934  0.00  0.00    +0.000 C 
ATOM      2  C   UNL     1       9.021   9.627  18.922  0.00  0.00    +0.000 C 
ENDROOT
BRANCH   1   4
ATOM      3  C   UNL     1       6.561   7.470  17.286  0.00  0.00    +0.000 C 
ATOM      4  C   UNL     1       7.646   7.802  18.007  0.00  0.00    +0.000 C 
BRANCH   3   9
ATOM      5  C   UNL     1       3.684   2.499  17.573  0.00  0.00    +0.000 C 
ATOM      6  C   UNL     1       4.500   3.747  17.412  0.00  0.00    +0.000 A 
ATOM      7  C   UNL     1       5.502   3.940  16.540  0.00  0.00    +0.000 A 
ATOM      8  C   UNL     1       6.212   5.182  16.478  0.00  0.00    +0.000 A 
ATOM      9  C   UNL     1       5.881   6.186  17.298  0.00  0.00    +0.000 A 
ATOM     10  O   UNL     1       4.835   6.039  18.235  0.00  0.00    +0.000 OA
ATOM     11  C   UNL     1       4.133   4.867  18.329  0.00  0.00    +0.000 A 
ATOM     12  O   UNL     1       3.223   4.736  19.144  0.00  0.00    +0.000 OA
BRANCH   7  13
ATOM     13  O   UNL     1       5.964   3.018  15.634  0.00  0.00    +0.000 OA
ATOM     14  H   UNL     1       5.639   3.225  14.744  0.00  0.00    +0.000 HD
ENDBRANCH   7  13
ENDBRANCH   3   9
ENDBRANCH   1   4
BRANCH   2  15
ATOM     15  C   UNL     1       9.645  10.936  18.853  0.00  0.00    +0.000 C 
ATOM     16  C   UNL     1       9.581  11.730  17.770  0.00  0.00    +0.000 C 
BRANCH  16  17
ATOM     17  C   UNL     1      10.243  13.018  17.710  0.00  0.00    +0.000 C 
ATOM     18  C   UNL     1       9.650  14.191  17.994  0.00  0.00    +0.000 C 
BRANCH  18  19
ATOM     19  C   UNL     1      10.348  15.420  17.834  0.00  0.00    +0.000 A 
ATOM     20  N   UNL     1      11.705  15.365  17.586  0.00  0.00    +0.000 N 
ATOM     21  C   UNL     1      12.212  16.633  17.449  0.00  0.00    +0.000 A 
ATOM     22  C   UNL     1      11.180  17.522  17.636  0.00  0.00    +0.000 A 
ATOM     23  C   UNL     1      10.012  16.765  17.889  0.00  0.00    +0.000 A 
ATOM     24 CL   UNL     1       8.501  17.472  18.230  0.00  0.00    +0.000 Cl
ATOM     25  H   UNL     1      12.249  14.517  17.496  0.00  0.00    +0.000 HD
ENDBRANCH  18  19
ENDBRANCH  16  17
ENDBRANCH   2  15
TORSDOF 6
ENDMDL
MODEL 6
REMARK VINA RESULT:      -7.2      8.093     10.830
REMARK  Name = 
REMARK  7 active torsions:
REMARK  status: ('A' for Active; 'I' for Inactive)
REMARK    1  A    between atoms: C_1  and  C_2
REMARK    2  A    between atoms: C_3  and  O_4
REMARK    3  A    between atoms: C_6  and  C_7
REMARK    4  A    between atoms: C_8  and  C_9
REMARK    5  A    between atoms: C_10  and  C_11
REMARK    6  A    between atoms: C_12  and  C_13
REMARK    7  A    between atoms: C_14  and  C_15
REMARK                            x       y       z     vdW  Elec       q    Type
REMARK                         _______ _______ _______ _____ _____    ______ ____
ROOT
ATOM      1  C   UNL     1       8.161   8.795  17.649  0.00  0.00    +0.000 C 
ATOM      2  C   UNL     1       8.787   9.307  18.722  0.00  0.00    +0.000 C 
ENDROOT
BRANCH   1   4
ATOM      3  C   UNL     1       6.163   7.431  17.221  0.00  0.00    +0.000 C 
ATOM      4  C   UNL     1       7.423   7.545  17.676  0.00  0.00    +0.000 C 
BRANCH   3   9
ATOM      5  C   UNL     1       2.751   2.803  17.326  0.00  0.00    +0.000 C 
ATOM      6  C   UNL     1       3.722   3.943  17.245  0.00  0.00    +0.000 A 
ATOM      7  C   UNL     1       4.950   3.909  16.703  0.00  0.00    +0.000 A 
ATOM      8  C   UNL     1       5.791   5.068  16.683  0.00  0.00    +0.000 A 
ATOM      9  C   UNL     1       5.360   6.220  17.209  0.00  0.00    +0.000 A 
ATOM     10  O   UNL     1       4.077   6.313  17.792  0.00  0.00    +0.000 OA
ATOM     11  C   UNL     1       3.242   5.228  17.834  0.00  0.00    +0.000 A 
ATOM     12  O   UNL     1       2.126   5.306  18.341  0.00  0.00    +0.000 OA
BRANCH   7  13
ATOM     13  O   UNL     1       5.541   2.814  16.125  0.00  0.00    +0.000 OA
ATOM     14  H   UNL     1       4.897   2.325  15.589  0.00  0.00    +0.000 HD
ENDBRANCH   7  13
ENDBRANCH   3   9
ENDBRANCH   1   4
BRANCH   2  15
ATOM     15  C   UNL     1       9.524  10.557  18.697  0.00  0.00    +0.000 C 
ATOM     16  C   UNL     1       8.981  11.730  18.328  0.00  0.00    +0.000 C 
BRANCH  16  17
ATOM     17  C   UNL     1       9.746  12.960  18.276  0.00  0.00    +0.000 C 
ATOM     18  C   UNL     1       9.212  14.180  18.093  0.00  0.00    +0.000 C 
BRANCH  18  19
ATOM     19  C   UNL     1      10.040  15.330  17.975  0.00  0.00    +0.000 A 
ATOM     20  N   UNL     1       9.829  16.171  16.901  0.00  0.00    +0.000 N 
ATOM     21  C   UNL     1      10.704  17.228  16.949  0.00  0.00    +0.000 A 
ATOM     22  C   UNL     1      11.510  17.057  18.049  0.00  0.00    +0.000 A 
ATOM     23  C   UNL     1      11.104  15.862  18.688  0.00  0.00    +0.000 A 
ATOM     24 CL   UNL     1      11.875  15.240  20.073  0.00  0.00    +0.000 Cl
ATOM     25  H   UNL     1       9.120  16.046  16.190  0.00  0.00    +0.000 HD
ENDBRANCH  18  19
ENDBRANCH  16  17
ENDBRANCH   2  15
TORSDOF 6
ENDMDL
MODEL 7
REMARK VINA RESULT:      -7.2      3.881      4.338
REMARK  Name = 
REMARK  7 active torsions:
REMARK  status: ('A' for Active; 'I' for Inactive)
REMARK    1  A    between atoms: C_1  and  C_2
REMARK    2  A    between atoms: C_3  and  O_4
REMARK    3  A    between atoms: C_6  and  C_7
REMARK    4  A    between atoms: C_8  and  C_9
REMARK    5  A    between atoms: C_10  and  C_11
REMARK    6  A    between atoms: C_12  and  C_13
REMARK    7  A    between atoms: C_14  and  C_15
REMARK                            x       y       z     vdW  Elec       q    Type
REMARK                         _______ _______ _______ _____ _____    ______ ____
ROOT
ATOM      1  C   UNL     1       1.474   9.183  19.015  0.00  0.00    +0.000 C 
ATOM      2  C   UNL     1       0.278   9.660  18.632  0.00  0.00    +0.000 C 
ENDROOT
BRANCH   1   4
ATOM      3  C   UNL     1       2.703   7.096  18.596  0.00  0.00    +0.000 C 
ATOM      4  C   UNL     1       2.286   8.308  18.187  0.00  0.00    +0.000 C 
BRANCH   3   9
ATOM      5  C   UNL     1       6.009   3.649  15.395  0.00  0.00    +0.000 C 
ATOM      6  C   UNL     1       5.110   4.451  16.288  0.00  0.00    +0.000 A 
ATOM      7  C   UNL     1       4.329   3.976  17.272  0.00  0.00    +0.000 A 
ATOM      8  C   UNL     1       3.509   4.844  18.062  0.00  0.00    +0.000 A 
ATOM      9  C   UNL     1       3.510   6.162  17.831  0.00  0.00    +0.000 A 
ATOM     10  O   UNL     1       4.312   6.717  16.810  0.00  0.00    +0.000 OA
ATOM     11  C   UNL     1       5.109   5.922  16.030  0.00  0.00    +0.000 A 
ATOM     12  O   UNL     1       5.806   6.401  15.140  0.00  0.00    +0.000 OA
BRANCH   7  13
ATOM     13  O   UNL     1       4.212   2.658  17.636  0.00  0.00    +0.000 OA
ATOM     14  H   UNL     1       3.414   2.524  18.169  0.00  0.00    +0.000 HD
ENDBRANCH   7  13
ENDBRANCH   3   9
ENDBRANCH   1   4
BRANCH   2  15
ATOM     15  C   UNL     1      -0.535  10.536  19.456  0.00  0.00    +0.000 C 
ATOM     16  C   UNL     1      -0.085  11.125  20.578  0.00  0.00    +0.000 C 
BRANCH  16  17
ATOM     17  C   UNL     1      -0.927  11.967  21.405  0.00  0.00    +0.000 C 
ATOM     18  C   UNL     1      -1.433  11.599  22.596  0.00  0.00    +0.000 C 
BRANCH  18  19
ATOM     19  C   UNL     1      -2.316  12.455  23.309  0.00  0.00    +0.000 A 
ATOM     20  N   UNL     1      -3.547  11.951  23.678  0.00  0.00    +0.000 N 
ATOM     21  C   UNL     1      -4.261  12.903  24.363  0.00  0.00    +0.000 A 
ATOM     22  C   UNL     1      -3.498  14.045  24.417  0.00  0.00    +0.000 A 
ATOM     23  C   UNL     1      -2.282  13.771  23.747  0.00  0.00    +0.000 A 
ATOM     24 CL   UNL     1      -1.057  14.934  23.530  0.00  0.00    +0.000 Cl
ATOM     25  H   UNL     1      -3.874  11.012  23.493  0.00  0.00    +0.000 HD
ENDBRANCH  18  19
ENDBRANCH  16  17
ENDBRANCH   2  15
TORSDOF 6
ENDMDL
MODEL 8
REMARK VINA RESULT:      -7.1      4.327      4.938
REMARK  Name = 
REMARK  7 active torsions:
REMARK  status: ('A' for Active; 'I' for Inactive)
REMARK    1  A    between atoms: C_1  and  C_2
REMARK    2  A    between atoms: C_3  and  O_4
REMARK    3  A    between atoms: C_6  and  C_7
REMARK    4  A    between atoms: C_8  and  C_9
REMARK    5  A    between atoms: C_10  and  C_11
REMARK    6  A    between atoms: C_12  and  C_13
REMARK    7  A    between atoms: C_14  and  C_15
REMARK                            x       y       z     vdW  Elec       q    Type
REMARK                         _______ _______ _______ _____ _____    ______ ____
ROOT
ATOM      1  C   UNL     1       1.405   7.718  20.831  0.00  0.00    +0.000 C 
ATOM      2  C   UNL     1       0.853   8.825  20.307  0.00  0.00    +0.000 C 
ENDROOT
BRANCH   1   4
ATOM      3  C   UNL     1       2.544   6.999  18.776  0.00  0.00    +0.000 C 
ATOM      4  C   UNL     1       2.288   6.838  20.086  0.00  0.00    +0.000 C 
BRANCH   3   9
ATOM      5  C   UNL     1       5.846   3.452  15.681  0.00  0.00    +0.000 C 
ATOM      6  C   UNL     1       5.043   4.467  16.438  0.00  0.00    +0.000 A 
ATOM      7  C   UNL     1       5.163   5.802  16.358  0.00  0.00    +0.000 A 
ATOM      8  C   UNL     1       4.336   6.676  17.135  0.00  0.00    +0.000 A 
ATOM      9  C   UNL     1       3.415   6.169  17.962  0.00  0.00    +0.000 A 
ATOM     10  O   UNL     1       3.244   4.772  18.085  0.00  0.00    +0.000 OA
ATOM     11  C   UNL     1       4.016   3.902  17.363  0.00  0.00    +0.000 A 
ATOM     12  O   UNL     1       3.872   2.687  17.469  0.00  0.00    +0.000 OA
BRANCH   7  13
ATOM     13  O   UNL     1       6.054   6.481  15.564  0.00  0.00    +0.000 OA
ATOM     14  H   UNL     1       6.261   7.346  15.950  0.00  0.00    +0.000 HD
ENDBRANCH   7  13
ENDBRANCH   3   9
ENDBRANCH   1   4
BRANCH   2  15
ATOM     15  C   UNL     1      -0.029   9.707  21.050  0.00  0.00    +0.000 C 
ATOM     16  C   UNL     1      -0.103   9.722  22.393  0.00  0.00    +0.000 C 
BRANCH  16  17
ATOM     17  C   UNL     1      -1.018  10.586  23.112  0.00  0.00    +0.000 C 
ATOM     18  C   UNL     1      -1.571  11.700  22.600  0.00  0.00    +0.000 C 
BRANCH  18  19
ATOM     19  C   UNL     1      -2.397  12.537  23.399  0.00  0.00    +0.000 A 
ATOM     20  N   UNL     1      -3.586  12.014  23.868  0.00  0.00    +0.000 N 
ATOM     21  C   UNL     1      -4.248  12.950  24.625  0.00  0.00    +0.000 A 
ATOM     22  C   UNL     1      -3.496  14.101  24.625  0.00  0.00    +0.000 A 
ATOM     23  C   UNL     1      -2.340  13.849  23.847  0.00  0.00    +0.000 A 
ATOM     24 CL   UNL     1      -1.153  15.030  23.538  0.00  0.00    +0.000 Cl
ATOM     25  H   UNL     1      -3.917  11.073  23.702  0.00  0.00    +0.000 HD
ENDBRANCH  18  19
ENDBRANCH  16  17
ENDBRANCH   2  15
TORSDOF 6
ENDMDL
MODEL 9
REMARK VINA RESULT:      -7.1      8.079     10.764
REMARK  Name = 
REMARK  7 active torsions:
REMARK  status: ('A' for Active; 'I' for Inactive)
REMARK    1  A    between atoms: C_1  and  C_2
REMARK    2  A    between atoms: C_3  and  O_4
REMARK    3  A    between atoms: C_6  and  C_7
REMARK    4  A    between atoms: C_8  and  C_9
REMARK    5  A    between atoms: C_10  and  C_11
REMARK    6  A    between atoms: C_12  and  C_13
REMARK    7  A    between atoms: C_14  and  C_15
REMARK                            x       y       z     vdW  Elec       q    Type
REMARK                         _______ _______ _______ _____ _____    ______ ____
ROOT
ATOM      1  C   UNL     1       6.003   7.591  17.614  0.00  0.00    +0.000 C 
ATOM      2  C   UNL     1       7.306   7.290  17.746  0.00  0.00    +0.000 C 
ENDROOT
BRANCH   1   4
ATOM      3  C   UNL     1       4.928   5.590  18.552  0.00  0.00    +0.000 C 
ATOM      4  C   UNL     1       4.946   6.596  17.660  0.00  0.00    +0.000 C 
BRANCH   3   9
ATOM      5  C   UNL     1       0.706   1.733  19.153  0.00  0.00    +0.000 C 
ATOM      6  C   UNL     1       1.871   2.654  18.945  0.00  0.00    +0.000 A 
ATOM      7  C   UNL     1       3.041   2.344  18.363  0.00  0.00    +0.000 A 
ATOM      8  C   UNL     1       4.086   3.313  18.219  0.00  0.00    +0.000 A 
ATOM      9  C   UNL     1       3.910   4.561  18.667  0.00  0.00    +0.000 A 
ATOM     10  O   UNL     1       2.700   4.943  19.287  0.00  0.00    +0.000 OA
ATOM     11  C   UNL     1       1.677   4.047  19.447  0.00  0.00    +0.000 A 
ATOM     12  O   UNL     1       0.624   4.375  19.986  0.00  0.00    +0.000 OA
BRANCH   7  13
ATOM     13  O   UNL     1       3.382   1.116  17.852  0.00  0.00    +0.000 OA
ATOM     14  H   UNL     1       3.839   0.586  18.523  0.00  0.00    +0.000 HD
ENDBRANCH   7  13
ENDBRANCH   3   9
ENDBRANCH   1   4
BRANCH   2  15
ATOM     15  C   UNL     1       8.364   8.282  17.702  0.00  0.00    +0.000 C 
ATOM     16  C   UNL     1       8.238   9.523  18.204  0.00  0.00    +0.000 C 
BRANCH  16  17
ATOM     17  C   UNL     1       9.297  10.510  18.116  0.00  0.00    +0.000 C 
ATOM     18  C   UNL     1       9.095  11.839  18.086  0.00  0.00    +0.000 C 
BRANCH  18  19
ATOM     19  C   UNL     1      10.184  12.739  17.918  0.00  0.00    +0.000 A 
ATOM     20  N   UNL     1       9.999  13.831  17.094  0.00  0.00    +0.000 N 
ATOM     21  C   UNL     1      11.140  14.593  17.055  0.00  0.00    +0.000 A 
ATOM     22  C   UNL     1      12.085  13.975  17.840  0.00  0.00    +0.000 A 
ATOM     23  C   UNL     1      11.492  12.806  18.374  0.00  0.00    +0.000 A 
ATOM     24 CL   UNL     1      12.332  11.708  19.368  0.00  0.00    +0.000 Cl
ATOM     25  H   UNL     1       9.143  14.055  16.604  0.00  0.00    +0.000 HD
ENDBRANCH  18  19
ENDBRANCH  16  17
ENDBRANCH   2  15
TORSDOF 6
ENDMDL
