MODEL 1
REMARK VINA RESULT:      -7.7      0.000      0.000
REMARK  Name = 
REMARK  11 active torsions:
REMARK  status: ('A' for Active; 'I' for Inactive)
REMARK    1  A    between atoms: C_1  and  N_2
REMARK    2  A    between atoms: C_8  and  O_9
REMARK    3  A    between atoms: O_9  and  C_10
REMARK    4  A    between atoms: C_12  and  N_13
REMARK    5  A    between atoms: N_16  and  S_17
REMARK    6  A    between atoms: S_17  and  C_20
REMARK    7  A    between atoms: C_22  and  C_23
REMARK    8  A    between atoms: C_24  and  C_25
REMARK    9  A    between atoms: C_25  and  C_26
REMARK   10  A    between atoms: C_26  and  O_27
REMARK   11  A    between atoms: O_27  and  C_28
REMARK                            x       y       z     vdW  Elec       q    Type
REMARK                         _______ _______ _______ _____ _____    ______ ____
ROOT
ATOM      1  N   UNL     1       5.531   3.335  18.547  0.00  0.00    +0.000 N 
ATOM      2  C   UNL     1       4.445   3.523  19.364  0.00  0.00    +0.000 C 
ATOM      3  O   UNL     1       4.298   2.758  20.308  0.00  0.00    +0.000 OA
ATOM      4  N   UNL     1       3.570   4.573  19.114  0.00  0.00    +0.000 N 
ATOM      5  H   UNL     1       6.119   2.571  18.845  0.00  0.00    +0.000 HD
ATOM      6  H   UNL     1       3.743   5.224  18.337  0.00  0.00    +0.000 HD
ENDROOT
BRANCH   1  16
ATOM      7  C   UNL     1       8.957   9.561  18.991  0.00  0.00    +0.000 C 
ATOM      8  N   UNL     1       8.357   9.001  17.800  0.00  0.00    +0.000 N 
ATOM      9  C   UNL     1       7.871   7.712  17.866  0.00  0.00    +0.000 C 
ATOM     10  O   UNL     1       7.957   7.029  18.876  0.00  0.00    +0.000 OA
ATOM     11  N   UNL     1       7.359   7.280  16.665  0.00  0.00    +0.000 N 
ATOM     12  C   UNL     1       6.797   6.001  16.497  0.00  0.00    +0.000 A 
ATOM     13  C   UNL     1       6.646   5.515  15.209  0.00  0.00    +0.000 A 
ATOM     14  C   UNL     1       6.081   4.254  15.040  0.00  0.00    +0.000 A 
ATOM     15  C   UNL     1       5.685   3.521  16.159  0.00  0.00    +0.000 A 
ATOM     16  C   UNL     1       5.886   4.070  17.416  0.00  0.00    +0.000 A 
ATOM     17  N   UNL     1       6.419   5.295  17.575  0.00  0.00    +0.000 NA
ATOM     18  H   UNL     1       7.914   9.640  17.160  0.00  0.00    +0.000 HD
ATOM     19  H   UNL     1       7.604   7.807  15.843  0.00  0.00    +0.000 HD
BRANCH  14  20
ATOM     20  O   UNL     1       5.871   3.631  13.839  0.00  0.00    +0.000 OA
ATOM     21  C   UNL     1       6.694   4.029  12.747  0.00  0.00    +0.000 C 
ENDBRANCH  14  20
ENDBRANCH   1  16
BRANCH   4  22
ATOM     22  S   UNL     1       2.230   4.885  20.025  0.00  0.00    +0.000 S 
ATOM     23  O   UNL     1       1.071   4.235  19.435  0.00  0.00    +0.000 OA
ATOM     24  O   UNL     1       2.557   4.648  21.415  0.00  0.00    +0.000 OA
BRANCH  22  25
ATOM     25  C   UNL     1       1.867   6.627  19.932  0.00  0.00    +0.000 A 
ATOM     26  C   UNL     1       2.090   7.528  18.919  0.00  0.00    +0.000 A 
ATOM     27  C   UNL     1       1.606   8.847  19.198  0.00  0.00    +0.000 A 
ATOM     28  C   UNL     1       1.764   9.945  18.196  0.00  0.00    +0.000 C 
ATOM     29  C   UNL     1       1.002   8.904  20.452  0.00  0.00    +0.000 A 
ATOM     30  S   UNL     1       1.078   7.372  21.252  0.00  0.00    +0.000 S 
BRANCH  29  31
ATOM     31  C   UNL     1       0.319  10.066  21.159  0.00  0.00    +0.000 C 
BRANCH  31  32
ATOM     32  C   UNL     1       0.307   9.869  22.679  0.00  0.00    +0.000 C 
BRANCH  32  33
ATOM     33  O   UNL     1      -0.832  10.458  23.320  0.00  0.00    +0.000 OA
ATOM     34  C   UNL     1      -1.162  11.687  22.665  0.00  0.00    +0.000 C 
ENDBRANCH  32  33
ENDBRANCH  31  32
ENDBRANCH  29  31
ENDBRANCH  22  25
ENDBRANCH   4  22
TORSDOF 7
ENDMDL
MODEL 2
REMARK VINA RESULT:      -7.4      1.086      1.269
REMARK  Name = 
REMARK  11 active torsions:
REMARK  status: ('A' for Active; 'I' for Inactive)
REMARK    1  A    between atoms: C_1  and  N_2
REMARK    2  A    between atoms: C_8  and  O_9
REMARK    3  A    between atoms: O_9  and  C_10
REMARK    4  A    between atoms: C_12  and  N_13
REMARK    5  A    between atoms: N_16  and  S_17
REMARK    6  A    between atoms: S_17  and  C_20
REMARK    7  A    between atoms: C_22  and  C_23
REMARK    8  A    between atoms: C_24  and  C_25
REMARK    9  A    between atoms: C_25  and  C_26
REMARK   10  A    between atoms: C_26  and  O_27
REMARK   11  A    between atoms: O_27  and  C_28
REMARK                            x       y       z     vdW  Elec       q    Type
REMARK                         _______ _______ _______ _____ _____    ______ ____
ROOT
ATOM      1  N   UNL     1       5.218   3.247  18.296  0.00  0.00    +0.000 N 
ATOM      2  C   UNL     1       4.206   3.541  19.175  0.00  0.00    +0.000 C 
ATOM      3  O   UNL     1       3.986   2.749  20.082  0.00  0.00    +0.000 OA
ATOM      4  N   UNL     1       3.489   4.721  19.027  0.00  0.00    +0.000 N 
ATOM      5  H   UNL     1       5.697   2.387  18.522  0.00  0.00    +0.000 HD
ATOM      6  H   UNL     1       3.725   5.386  18.280  0.00  0.00    +0.000 HD
ENDROOT
BRANCH   1  16
ATOM      7  C   UNL     1       8.864   9.326  18.962  0.00  0.00    +0.000 C 
ATOM      8  N   UNL     1       8.276   8.813  17.744  0.00  0.00    +0.000 N 
ATOM      9  C   UNL     1       7.740   7.542  17.770  0.00  0.00    +0.000 C 
ATOM     10  O   UNL     1       7.772   6.836  18.767  0.00  0.00    +0.000 OA
ATOM     11  N   UNL     1       7.245   7.155  16.547  0.00  0.00    +0.000 N 
ATOM     12  C   UNL     1       6.640   5.902  16.337  0.00  0.00    +0.000 A 
ATOM     13  C   UNL     1       6.507   5.448  15.036  0.00  0.00    +0.000 A 
ATOM     14  C   UNL     1       5.899   4.214  14.825  0.00  0.00    +0.000 A 
ATOM     15  C   UNL     1       5.444   3.474  15.917  0.00  0.00    +0.000 A 
ATOM     16  C   UNL     1       5.631   3.990  17.190  0.00  0.00    +0.000 A 
ATOM     17  N   UNL     1       6.206   5.189  17.390  0.00  0.00    +0.000 NA
ATOM     18  H   UNL     1       7.875   9.482  17.106  0.00  0.00    +0.000 HD
ATOM     19  H   UNL     1       7.532   7.688  15.744  0.00  0.00    +0.000 HD
BRANCH  14  20
ATOM     20  O   UNL     1       5.698   3.623  13.606  0.00  0.00    +0.000 OA
ATOM     21  C   UNL     1       6.698   3.828  12.612  0.00  0.00    +0.000 C 
ENDBRANCH  14  20
ENDBRANCH   1  16
BRANCH   4  22
ATOM     22  S   UNL     1       2.250   5.170  20.020  0.00  0.00    +0.000 S 
ATOM     23  O   UNL     1       1.019   4.525  19.593  0.00  0.00    +0.000 OA
ATOM     24  O   UNL     1       2.692   5.037  21.393  0.00  0.00    +0.000 OA
BRANCH  22  25
ATOM     25  C   UNL     1       1.947   6.912  19.806  0.00  0.00    +0.000 A 
ATOM     26  C   UNL     1       2.172   7.727  18.722  0.00  0.00    +0.000 A 
ATOM     27  C   UNL     1       1.743   9.080  18.914  0.00  0.00    +0.000 A 
ATOM     28  C   UNL     1       1.910  10.093  17.828  0.00  0.00    +0.000 C 
ATOM     29  C   UNL     1       1.177   9.253  20.175  0.00  0.00    +0.000 A 
ATOM     30  S   UNL     1       1.222   7.783  21.086  0.00  0.00    +0.000 S 
BRANCH  29  31
ATOM     31  C   UNL     1       0.556  10.489  20.810  0.00  0.00    +0.000 C 
BRANCH  31  32
ATOM     32  C   UNL     1      -0.923  10.630  20.435  0.00  0.00    +0.000 C 
BRANCH  32  33
ATOM     33  O   UNL     1      -1.145  11.487  19.309  0.00  0.00    +0.000 OA
ATOM     34  C   UNL     1      -1.707  10.724  18.235  0.00  0.00    +0.000 C 
ENDBRANCH  32  33
ENDBRANCH  31  32
ENDBRANCH  29  31
ENDBRANCH  22  25
ENDBRANCH   4  22
TORSDOF 7
ENDMDL
MODEL 3
REMARK VINA RESULT:      -7.4      1.253      1.880
REMARK  Name = 
REMARK  11 active torsions:
REMARK  status: ('A' for Active; 'I' for Inactive)
REMARK    1  A    between atoms: C_1  and  N_2
REMARK    2  A    between atoms: C_8  and  O_9
REMARK    3  A    between atoms: O_9  and  C_10
REMARK    4  A    between atoms: C_12  and  N_13
REMARK    5  A    between atoms: N_16  and  S_17
REMARK    6  A    between atoms: S_17  and  C_20
REMARK    7  A    between atoms: C_22  and  C_23
REMARK    8  A    between atoms: C_24  and  C_25
REMARK    9  A    between atoms: C_25  and  C_26
REMARK   10  A    between atoms: C_26  and  O_27
REMARK   11  A    between atoms: O_27  and  C_28
REMARK                            x       y       z     vdW  Elec       q    Type
REMARK                         _______ _______ _______ _____ _____    ______ ____
ROOT
ATOM      1  N   UNL     1       5.536   3.443  18.542  0.00  0.00    +0.000 N 
ATOM      2  C   UNL     1       4.492   3.556  19.425  0.00  0.00    +0.000 C 
ATOM      3  O   UNL     1       4.426   2.749  20.342  0.00  0.00    +0.000 OA
ATOM      4  N   UNL     1       3.568   4.582  19.268  0.00  0.00    +0.000 N 
ATOM      5  H   UNL     1       6.167   2.690  18.775  0.00  0.00    +0.000 HD
ATOM      6  H   UNL     1       3.673   5.269  18.511  0.00  0.00    +0.000 HD
ENDROOT
BRANCH   1  16
ATOM      7  C   UNL     1       9.034   9.626  19.021  0.00  0.00    +0.000 C 
ATOM      8  N   UNL     1       8.332   9.132  17.858  0.00  0.00    +0.000 N 
ATOM      9  C   UNL     1       7.843   7.842  17.897  0.00  0.00    +0.000 C 
ATOM     10  O   UNL     1       8.009   7.106  18.859  0.00  0.00    +0.000 OA
ATOM     11  N   UNL     1       7.228   7.476  16.722  0.00  0.00    +0.000 N 
ATOM     12  C   UNL     1       6.645   6.210  16.535  0.00  0.00    +0.000 A 
ATOM     13  C   UNL     1       6.383   5.793  15.241  0.00  0.00    +0.000 A 
ATOM     14  C   UNL     1       5.796   4.545  15.054  0.00  0.00    +0.000 A 
ATOM     15  C   UNL     1       5.490   3.755  16.162  0.00  0.00    +0.000 A 
ATOM     16  C   UNL     1       5.800   4.236  17.425  0.00  0.00    +0.000 A 
ATOM     17  N   UNL     1       6.354   5.449  17.603  0.00  0.00    +0.000 NA
ATOM     18  H   UNL     1       7.841   9.806  17.292  0.00  0.00    +0.000 HD
ATOM     19  H   UNL     1       7.407   8.046  15.912  0.00  0.00    +0.000 HD
BRANCH  14  20
ATOM     20  O   UNL     1       5.481   3.987  13.844  0.00  0.00    +0.000 OA
ATOM     21  C   UNL     1       6.516   3.925  12.868  0.00  0.00    +0.000 C 
ENDBRANCH  14  20
ENDBRANCH   1  16
BRANCH   4  22
ATOM     22  S   UNL     1       2.271   4.807  20.264  0.00  0.00    +0.000 S 
ATOM     23  O   UNL     1       1.117   4.097  19.737  0.00  0.00    +0.000 OA
ATOM     24  O   UNL     1       2.696   4.572  21.628  0.00  0.00    +0.000 OA
BRANCH  22  25
ATOM     25  C   UNL     1       1.806   6.526  20.219  0.00  0.00    +0.000 A 
ATOM     26  C   UNL     1       1.261   7.324  21.195  0.00  0.00    +0.000 A 
ATOM     27  C   UNL     1       1.073   8.687  20.794  0.00  0.00    +0.000 A 
ATOM     28  C   UNL     1       0.496   9.688  21.742  0.00  0.00    +0.000 C 
ATOM     29  C   UNL     1       1.506   8.887  19.485  0.00  0.00    +0.000 A 
ATOM     30  S   UNL     1       2.087   7.415  18.787  0.00  0.00    +0.000 S 
BRANCH  29  31
ATOM     31  C   UNL     1       1.540  10.158  18.648  0.00  0.00    +0.000 C 
BRANCH  31  32
ATOM     32  C   UNL     1       0.135  10.736  18.449  0.00  0.00    +0.000 C 
BRANCH  32  33
ATOM     33  O   UNL     1       0.015  12.098  18.880  0.00  0.00    +0.000 OA
ATOM     34  C   UNL     1       1.216  12.806  18.556  0.00  0.00    +0.000 C 
ENDBRANCH  32  33
ENDBRANCH  31  32
ENDBRANCH  29  31
ENDBRANCH  22  25
ENDBRANCH   4  22
TORSDOF 7
ENDMDL
MODEL 4
REMARK VINA RESULT:      -7.4      1.699      3.694
REMARK  Name = 
REMARK  11 active torsions:
REMARK  status: ('A' for Active; 'I' for Inactive)
REMARK    1  A    between atoms: C_1  and  N_2
REMARK    2  A    between atoms: C_8  and  O_9
REMARK    3  A    between atoms: O_9  and  C_10
REMARK    4  A    between atoms: C_12  and  N_13
REMARK    5  A    between atoms: N_16  and  S_17
REMARK    6  A    between atoms: S_17  and  C_20
REMARK    7  A    between atoms: C_22  and  C_23
REMARK    8  A    between atoms: C_24  and  C_25
REMARK    9  A    between atoms: C_25  and  C_26
REMARK   10  A    between atoms: C_26  and  O_27
REMARK   11  A    between atoms: O_27  and  C_28
REMARK                            x       y       z     vdW  Elec       q    Type
REMARK                         _______ _______ _______ _____ _____    ______ ____
ROOT
ATOM      1  N   UNL     1       5.802   3.650  18.982  0.00  0.00    +0.000 N 
ATOM      2  C   UNL     1       4.553   3.772  19.538  0.00  0.00    +0.000 C 
ATOM      3  O   UNL     1       4.122   2.831  20.191  0.00  0.00    +0.000 OA
ATOM      4  N   UNL     1       3.836   4.950  19.367  0.00  0.00    +0.000 N 
ATOM      5  H   UNL     1       6.246   2.772  19.204  0.00  0.00    +0.000 HD
ATOM      6  H   UNL     1       4.243   5.738  18.848  0.00  0.00    +0.000 HD
ENDROOT
BRANCH   1  16
ATOM      7  C   UNL     1       5.887   3.267  11.872  0.00  0.00    +0.000 C 
ATOM      8  N   UNL     1       6.705   4.137  12.689  0.00  0.00    +0.000 N 
ATOM      9  C   UNL     1       6.442   4.187  14.043  0.00  0.00    +0.000 C 
ATOM     10  O   UNL     1       5.535   3.552  14.560  0.00  0.00    +0.000 OA
ATOM     11  N   UNL     1       7.259   5.074  14.705  0.00  0.00    +0.000 N 
ATOM     12  C   UNL     1       7.181   5.284  16.094  0.00  0.00    +0.000 A 
ATOM     13  C   UNL     1       7.761   6.427  16.618  0.00  0.00    +0.000 A 
ATOM     14  C   UNL     1       7.694   6.631  17.993  0.00  0.00    +0.000 A 
ATOM     15  C   UNL     1       7.052   5.691  18.799  0.00  0.00    +0.000 A 
ATOM     16  C   UNL     1       6.481   4.581  18.196  0.00  0.00    +0.000 A 
ATOM     17  N   UNL     1       6.559   4.379  16.868  0.00  0.00    +0.000 NA
ATOM     18  H   UNL     1       7.651   4.304  12.386  0.00  0.00    +0.000 HD
ATOM     19  H   UNL     1       7.759   5.745  14.146  0.00  0.00    +0.000 HD
BRANCH  14  20
ATOM     20  O   UNL     1       8.209   7.709  18.663  0.00  0.00    +0.000 OA
ATOM     21  C   UNL     1       8.203   8.960  17.983  0.00  0.00    +0.000 C 
ENDBRANCH  14  20
ENDBRANCH   1  16
BRANCH   4  22
ATOM     22  S   UNL     1       2.326   5.200  19.983  0.00  0.00    +0.000 S 
ATOM     23  O   UNL     1       1.341   4.507  19.170  0.00  0.00    +0.000 OA
ATOM     24  O   UNL     1       2.371   4.966  21.412  0.00  0.00    +0.000 OA
BRANCH  22  25
ATOM     25  C   UNL     1       1.919   6.926  19.816  0.00  0.00    +0.000 A 
ATOM     26  C   UNL     1       2.117   7.789  18.766  0.00  0.00    +0.000 A 
ATOM     27  C   UNL     1       1.599   9.105  18.989  0.00  0.00    +0.000 A 
ATOM     28  C   UNL     1       1.727  10.162  17.940  0.00  0.00    +0.000 C 
ATOM     29  C   UNL     1       0.995   9.201  20.240  0.00  0.00    +0.000 A 
ATOM     30  S   UNL     1       1.111   7.707  21.105  0.00  0.00    +0.000 S 
BRANCH  29  31
ATOM     31  C   UNL     1       0.283  10.374  20.898  0.00  0.00    +0.000 C 
BRANCH  31  32
ATOM     32  C   UNL     1       0.759  11.713  20.324  0.00  0.00    +0.000 C 
BRANCH  32  33
ATOM     33  O   UNL     1       1.534  12.484  21.250  0.00  0.00    +0.000 OA
ATOM     34  C   UNL     1       2.398  13.367  20.525  0.00  0.00    +0.000 C 
ENDBRANCH  32  33
ENDBRANCH  31  32
ENDBRANCH  29  31
ENDBRANCH  22  25
ENDBRANCH   4  22
TORSDOF 7
ENDMDL
MODEL 5
REMARK VINA RESULT:      -7.3      5.501      9.858
REMARK  Name = 
REMARK  11 active torsions:
REMARK  status: ('A' for Active; 'I' for Inactive)
REMARK    1  A    between atoms: C_1  and  N_2
REMARK    2  A    between atoms: C_8  and  O_9
REMARK    3  A    between atoms: O_9  and  C_10
REMARK    4  A    between atoms: C_12  and  N_13
REMARK    5  A    between atoms: N_16  and  S_17
REMARK    6  A    between atoms: S_17  and  C_20
REMARK    7  A    between atoms: C_22  and  C_23
REMARK    8  A    between atoms: C_24  and  C_25
REMARK    9  A    between atoms: C_25  and  C_26
REMARK   10  A    between atoms: C_26  and  O_27
REMARK   11  A    between atoms: O_27  and  C_28
REMARK                            x       y       z     vdW  Elec       q    Type
REMARK                         _______ _______ _______ _____ _____    ______ ____
ROOT
ATOM      1  N   UNL     1      -0.712  11.860  18.257  0.00  0.00    +0.000 N 
ATOM      2  C   UNL     1       0.089  11.164  19.128  0.00  0.00    +0.000 C 
ATOM      3  O   UNL     1       1.258  11.511  19.234  0.00  0.00    +0.000 OA
ATOM      4  N   UNL     1      -0.447  10.118  19.869  0.00  0.00    +0.000 N 
ATOM      5  H   UNL     1      -0.229  12.622  17.804  0.00  0.00    +0.000 HD
ATOM      6  H   UNL     1      -1.443   9.877  19.787  0.00  0.00    +0.000 HD
ENDROOT
BRANCH   1  16
ATOM      7  C   UNL     1      -5.886  13.253  22.945  0.00  0.00    +0.000 C 
ATOM      8  N   UNL     1      -6.034  12.526  21.703  0.00  0.00    +0.000 N 
ATOM      9  C   UNL     1      -4.954  12.487  20.845  0.00  0.00    +0.000 C 
ATOM     10  O   UNL     1      -3.903  13.063  21.085  0.00  0.00    +0.000 OA
ATOM     11  N   UNL     1      -5.228  11.799  19.686  0.00  0.00    +0.000 N 
ATOM     12  C   UNL     1      -4.273  11.619  18.669  0.00  0.00    +0.000 A 
ATOM     13  C   UNL     1      -4.717  11.251  17.410  0.00  0.00    +0.000 A 
ATOM     14  C   UNL     1      -3.774  11.062  16.405  0.00  0.00    +0.000 A 
ATOM     15  C   UNL     1      -2.420  11.247  16.687  0.00  0.00    +0.000 A 
ATOM     16  C   UNL     1      -2.057  11.633  17.968  0.00  0.00    +0.000 A 
ATOM     17  N   UNL     1      -2.970  11.801  18.941  0.00  0.00    +0.000 NA
ATOM     18  H   UNL     1      -6.671  11.746  21.696  0.00  0.00    +0.000 HD
ATOM     19  H   UNL     1      -6.195  11.625  19.471  0.00  0.00    +0.000 HD
BRANCH  14  20
ATOM     20  O   UNL     1      -4.049  10.705  15.112  0.00  0.00    +0.000 OA
ATOM     21  C   UNL     1      -3.019  10.039  14.388  0.00  0.00    +0.000 C 
ENDBRANCH  14  20
ENDBRANCH   1  16
BRANCH   4  22
ATOM     22  S   UNL     1       0.424   9.210  20.936  0.00  0.00    +0.000 S 
ATOM     23  O   UNL     1       1.379  10.054  21.635  0.00  0.00    +0.000 OA
ATOM     24  O   UNL     1      -0.496   8.387  21.693  0.00  0.00    +0.000 OA
BRANCH  22  25
ATOM     25  C   UNL     1       1.424   8.055  20.021  0.00  0.00    +0.000 A 
ATOM     26  C   UNL     1       2.215   8.246  18.914  0.00  0.00    +0.000 A 
ATOM     27  C   UNL     1       2.917   7.070  18.492  0.00  0.00    +0.000 A 
ATOM     28  C   UNL     1       3.826   7.111  17.306  0.00  0.00    +0.000 C 
ATOM     29  C   UNL     1       2.635   5.991  19.326  0.00  0.00    +0.000 A 
ATOM     30  S   UNL     1       1.507   6.435  20.560  0.00  0.00    +0.000 S 
BRANCH  29  31
ATOM     31  C   UNL     1       3.165   4.565  19.297  0.00  0.00    +0.000 C 
BRANCH  31  32
ATOM     32  C   UNL     1       2.728   3.829  18.025  0.00  0.00    +0.000 C 
BRANCH  32  33
ATOM     33  O   UNL     1       1.310   3.645  17.934  0.00  0.00    +0.000 OA
ATOM     34  C   UNL     1       0.916   2.563  18.785  0.00  0.00    +0.000 C 
ENDBRANCH  32  33
ENDBRANCH  31  32
ENDBRANCH  29  31
ENDBRANCH  22  25
ENDBRANCH   4  22
TORSDOF 7
ENDMDL
MODEL 6
REMARK VINA RESULT:      -7.3      2.017      4.091
REMARK  Name = 
REMARK  11 active torsions:
REMARK  status: ('A' for Active; 'I' for Inactive)
REMARK    1  A    between atoms: C_1  and  N_2
REMARK    2  A    between atoms: C_8  and  O_9
REMARK    3  A    between atoms: O_9  and  C_10
REMARK    4  A    between atoms: C_12  and  N_13
REMARK    5  A    between atoms: N_16  and  S_17
REMARK    6  A    between atoms: S_17  and  C_20
REMARK    7  A    between atoms: C_22  and  C_23
REMARK    8  A    between atoms: C_24  and  C_25
REMARK    9  A    between atoms: C_25  and  C_26
REMARK   10  A    between atoms: C_26  and  O_27
REMARK   11  A    between atoms: O_27  and  C_28
REMARK                            x       y       z     vdW  Elec       q    Type
REMARK                         _______ _______ _______ _____ _____    ______ ____
ROOT
ATOM      1  N   UNL     1       5.789   3.622  18.992  0.00  0.00    +0.000 N 
ATOM      2  C   UNL     1       4.543   3.716  19.560  0.00  0.00    +0.000 C 
ATOM      3  O   UNL     1       4.137   2.766  20.215  0.00  0.00    +0.000 OA
ATOM      4  N   UNL     1       3.800   4.879  19.395  0.00  0.00    +0.000 N 
ATOM      5  H   UNL     1       6.254   2.753  19.210  0.00  0.00    +0.000 HD
ATOM      6  H   UNL     1       4.185   5.676  18.874  0.00  0.00    +0.000 HD
ENDROOT
BRANCH   1  16
ATOM      7  C   UNL     1       5.861   3.218  11.884  0.00  0.00    +0.000 C 
ATOM      8  N   UNL     1       6.659   4.111  12.695  0.00  0.00    +0.000 N 
ATOM      9  C   UNL     1       6.399   4.159  14.049  0.00  0.00    +0.000 C 
ATOM     10  O   UNL     1       5.510   3.502  14.572  0.00  0.00    +0.000 OA
ATOM     11  N   UNL     1       7.195   5.068  14.706  0.00  0.00    +0.000 N 
ATOM     12  C   UNL     1       7.116   5.281  16.094  0.00  0.00    +0.000 A 
ATOM     13  C   UNL     1       7.668   6.440  16.613  0.00  0.00    +0.000 A 
ATOM     14  C   UNL     1       7.600   6.647  17.987  0.00  0.00    +0.000 A 
ATOM     15  C   UNL     1       6.986   5.694  18.799  0.00  0.00    +0.000 A 
ATOM     16  C   UNL     1       6.441   4.568  18.201  0.00  0.00    +0.000 A 
ATOM     17  N   UNL     1       6.521   4.363  16.874  0.00  0.00    +0.000 NA
ATOM     18  H   UNL     1       7.599   4.301  12.388  0.00  0.00    +0.000 HD
ATOM     19  H   UNL     1       7.675   5.751  14.143  0.00  0.00    +0.000 HD
BRANCH  14  20
ATOM     20  O   UNL     1       8.089   7.740  18.652  0.00  0.00    +0.000 OA
ATOM     21  C   UNL     1       8.132   8.971  17.937  0.00  0.00    +0.000 C 
ENDBRANCH  14  20
ENDBRANCH   1  16
BRANCH   4  22
ATOM     22  S   UNL     1       2.290   5.097  20.025  0.00  0.00    +0.000 S 
ATOM     23  O   UNL     1       1.312   4.392  19.213  0.00  0.00    +0.000 OA
ATOM     24  O   UNL     1       2.349   4.852  21.451  0.00  0.00    +0.000 OA
BRANCH  22  25
ATOM     25  C   UNL     1       1.850   6.816  19.874  0.00  0.00    +0.000 A 
ATOM     26  C   UNL     1       1.285   7.672  20.789  0.00  0.00    +0.000 A 
ATOM     27  C   UNL     1       1.128   9.013  20.310  0.00  0.00    +0.000 A 
ATOM     28  C   UNL     1       0.535  10.070  21.184  0.00  0.00    +0.000 C 
ATOM     29  C   UNL     1       1.606   9.139  19.007  0.00  0.00    +0.000 A 
ATOM     30  S   UNL     1       2.188   7.625  18.407  0.00  0.00    +0.000 S 
BRANCH  29  31
ATOM     31  C   UNL     1       1.683  10.362  18.105  0.00  0.00    +0.000 C 
BRANCH  31  32
ATOM     32  C   UNL     1       1.871  11.648  18.918  0.00  0.00    +0.000 C 
BRANCH  32  33
ATOM     33  O   UNL     1       1.809  12.838  18.123  0.00  0.00    +0.000 OA
ATOM     34  C   UNL     1       2.920  13.682  18.443  0.00  0.00    +0.000 C 
ENDBRANCH  32  33
ENDBRANCH  31  32
ENDBRANCH  29  31
ENDBRANCH  22  25
ENDBRANCH   4  22
TORSDOF 7
ENDMDL
MODEL 7
REMARK VINA RESULT:      -7.3      5.517      9.875
REMARK  Name = 
REMARK  11 active torsions:
REMARK  status: ('A' for Active; 'I' for Inactive)
REMARK    1  A    between atoms: C_1  and  N_2
REMARK    2  A    between atoms: C_8  and  O_9
REMARK    3  A    between atoms: O_9  and  C_10
REMARK    4  A    between atoms: C_12  and  N_13
REMARK    5  A    between atoms: N_16  and  S_17
REMARK    6  A    between atoms: S_17  and  C_20
REMARK    7  A    between atoms: C_22  and  C_23
REMARK    8  A    between atoms: C_24  and  C_25
REMARK    9  A    between atoms: C_25  and  C_26
REMARK   10  A    between atoms: C_26  and  O_27
REMARK   11  A    between atoms: O_27  and  C_28
REMARK                            x       y       z     vdW  Elec       q    Type
REMARK                         _______ _______ _______ _____ _____    ______ ____
ROOT
ATOM      1  N   UNL     1      -0.718  11.846  18.124  0.00  0.00    +0.000 N 
ATOM      2  C   UNL     1       0.078  11.191  19.031  0.00  0.00    +0.000 C 
ATOM      3  O   UNL     1       1.249  11.533  19.118  0.00  0.00    +0.000 OA
ATOM      4  N   UNL     1      -0.468  10.192  19.827  0.00  0.00    +0.000 N 
ATOM      5  H   UNL     1      -0.229  12.578  17.631  0.00  0.00    +0.000 HD
ATOM      6  H   UNL     1      -1.466   9.956  19.760  0.00  0.00    +0.000 HD
ENDROOT
BRANCH   1  16
ATOM      7  C   UNL     1      -5.888  13.708  22.651  0.00  0.00    +0.000 C 
ATOM      8  N   UNL     1      -6.042  12.881  21.475  0.00  0.00    +0.000 N 
ATOM      9  C   UNL     1      -4.960  12.754  20.628  0.00  0.00    +0.000 C 
ATOM     10  O   UNL     1      -3.901  13.332  20.825  0.00  0.00    +0.000 OA
ATOM     11  N   UNL     1      -5.240  11.974  19.530  0.00  0.00    +0.000 N 
ATOM     12  C   UNL     1      -4.284  11.695  18.537  0.00  0.00    +0.000 A 
ATOM     13  C   UNL     1      -4.729  11.228  17.311  0.00  0.00    +0.000 A 
ATOM     14  C   UNL     1      -3.785  10.941  16.330  0.00  0.00    +0.000 A 
ATOM     15  C   UNL     1      -2.429  11.128  16.602  0.00  0.00    +0.000 A 
ATOM     16  C   UNL     1      -2.065  11.616  17.848  0.00  0.00    +0.000 A 
ATOM     17  N   UNL     1      -2.980  11.879  18.799  0.00  0.00    +0.000 NA
ATOM     18  H   UNL     1      -6.691  12.113  21.530  0.00  0.00    +0.000 HD
ATOM     19  H   UNL     1      -6.209  11.797  19.326  0.00  0.00    +0.000 HD
BRANCH  14  20
ATOM     20  O   UNL     1      -4.060  10.481  15.070  0.00  0.00    +0.000 OA
ATOM     21  C   UNL     1      -2.963  10.004  14.298  0.00  0.00    +0.000 C 
ENDBRANCH  14  20
ENDBRANCH   1  16
BRANCH   4  22
ATOM     22  S   UNL     1       0.397   9.335  20.942  0.00  0.00    +0.000 S 
ATOM     23  O   UNL     1       1.340  10.213  21.614  0.00  0.00    +0.000 OA
ATOM     24  O   UNL     1      -0.527   8.540  21.724  0.00  0.00    +0.000 OA
BRANCH  22  25
ATOM     25  C   UNL     1       1.412   8.146  20.088  0.00  0.00    +0.000 A 
ATOM     26  C   UNL     1       2.166   8.278  18.947  0.00  0.00    +0.000 A 
ATOM     27  C   UNL     1       2.897   7.098  18.594  0.00  0.00    +0.000 A 
ATOM     28  C   UNL     1       3.772   7.077  17.383  0.00  0.00    +0.000 C 
ATOM     29  C   UNL     1       2.676   6.077  19.516  0.00  0.00    +0.000 A 
ATOM     30  S   UNL     1       1.567   6.576  20.746  0.00  0.00    +0.000 S 
BRANCH  29  31
ATOM     31  C   UNL     1       3.255   4.671  19.579  0.00  0.00    +0.000 C 
BRANCH  31  32
ATOM     32  C   UNL     1       2.624   3.855  20.713  0.00  0.00    +0.000 C 
BRANCH  32  33
ATOM     33  O   UNL     1       3.227   2.567  20.890  0.00  0.00    +0.000 OA
ATOM     34  C   UNL     1       4.286   2.404  19.940  0.00  0.00    +0.000 C 
ENDBRANCH  32  33
ENDBRANCH  31  32
ENDBRANCH  29  31
ENDBRANCH  22  25
ENDBRANCH   4  22
TORSDOF 7
ENDMDL
MODEL 8
REMARK VINA RESULT:      -7.2      3.099      8.538
REMARK  Name = 
REMARK  11 active torsions:
REMARK  status: ('A' for Active; 'I' for Inactive)
REMARK    1  A    between atoms: C_1  and  N_2
REMARK    2  A    between atoms: C_8  and  O_9
REMARK    3  A    between atoms: O_9  and  C_10
REMARK    4  A    between atoms: C_12  and  N_13
REMARK    5  A    between atoms: N_16  and  S_17
REMARK    6  A    between atoms: S_17  and  C_20
REMARK    7  A    between atoms: C_22  and  C_23
REMARK    8  A    between atoms: C_24  and  C_25
REMARK    9  A    between atoms: C_25  and  C_26
REMARK   10  A    between atoms: C_26  and  O_27
REMARK   11  A    between atoms: O_27  and  C_28
REMARK                            x       y       z     vdW  Elec       q    Type
REMARK                         _______ _______ _______ _____ _____    ______ ____
ROOT
ATOM      1  N   UNL     1       3.512   6.801  17.239  0.00  0.00    +0.000 N 
ATOM      2  C   UNL     1       4.729   6.608  16.634  0.00  0.00    +0.000 C 
ATOM      3  O   UNL     1       4.946   7.194  15.582  0.00  0.00    +0.000 OA
ATOM      4  N   UNL     1       5.672   5.784  17.236  0.00  0.00    +0.000 N 
ATOM      5  H   UNL     1       2.923   7.448  16.737  0.00  0.00    +0.000 HD
ATOM      6  H   UNL     1       5.475   5.338  18.140  0.00  0.00    +0.000 HD
ENDROOT
BRANCH   1  16
ATOM      7  C   UNL     1      -0.105  10.550  22.093  0.00  0.00    +0.000 C 
ATOM      8  N   UNL     1       0.426   9.217  22.268  0.00  0.00    +0.000 N 
ATOM      9  C   UNL     1       0.964   8.585  21.166  0.00  0.00    +0.000 C 
ATOM     10  O   UNL     1       0.979   9.099  20.057  0.00  0.00    +0.000 OA
ATOM     11  N   UNL     1       1.403   7.313  21.450  0.00  0.00    +0.000 N 
ATOM     12  C   UNL     1       1.999   6.483  20.482  0.00  0.00    +0.000 A 
ATOM     13  C   UNL     1       2.072   5.124  20.739  0.00  0.00    +0.000 A 
ATOM     14  C   UNL     1       2.671   4.303  19.788  0.00  0.00    +0.000 A 
ATOM     15  C   UNL     1       3.176   4.863  18.615  0.00  0.00    +0.000 A 
ATOM     16  C   UNL     1       3.048   6.230  18.424  0.00  0.00    +0.000 A 
ATOM     17  N   UNL     1       2.481   7.023  19.351  0.00  0.00    +0.000 NA
ATOM     18  H   UNL     1       0.797   8.981  23.175  0.00  0.00    +0.000 HD
ATOM     19  H   UNL     1       1.078   6.894  22.306  0.00  0.00    +0.000 HD
BRANCH  14  20
ATOM     20  O   UNL     1       2.816   2.945  19.888  0.00  0.00    +0.000 OA
ATOM     21  C   UNL     1       4.123   2.415  19.693  0.00  0.00    +0.000 C 
ENDBRANCH  14  20
ENDBRANCH   1  16
BRANCH   4  22
ATOM     22  S   UNL     1       7.160   5.474  16.593  0.00  0.00    +0.000 S 
ATOM     23  O   UNL     1       7.938   6.701  16.538  0.00  0.00    +0.000 OA
ATOM     24  O   UNL     1       7.708   4.306  17.250  0.00  0.00    +0.000 OA
BRANCH  22  25
ATOM     25  C   UNL     1       6.959   4.988  14.891  0.00  0.00    +0.000 A 
ATOM     26  C   UNL     1       7.557   5.471  13.752  0.00  0.00    +0.000 A 
ATOM     27  C   UNL     1       7.174   4.781  12.557  0.00  0.00    +0.000 A 
ATOM     28  C   UNL     1       7.740   5.178  11.232  0.00  0.00    +0.000 C 
ATOM     29  C   UNL     1       6.274   3.754  12.838  0.00  0.00    +0.000 A 
ATOM     30  S   UNL     1       5.905   3.693  14.527  0.00  0.00    +0.000 S 
BRANCH  29  31
ATOM     31  C   UNL     1       5.624   2.740  11.909  0.00  0.00    +0.000 C 
BRANCH  31  32
ATOM     32  C   UNL     1       4.168   3.110  11.604  0.00  0.00    +0.000 C 
BRANCH  32  33
ATOM     33  O   UNL     1       4.037   4.113  10.590  0.00  0.00    +0.000 OA
ATOM     34  C   UNL     1       2.966   3.760   9.708  0.00  0.00    +0.000 C 
ENDBRANCH  32  33
ENDBRANCH  31  32
ENDBRANCH  29  31
ENDBRANCH  22  25
ENDBRANCH   4  22
TORSDOF 7
ENDMDL
MODEL 9
REMARK VINA RESULT:      -7.2      3.920      9.170
REMARK  Name = 
REMARK  11 active torsions:
REMARK  status: ('A' for Active; 'I' for Inactive)
REMARK    1  A    between atoms: C_1  and  N_2
REMARK    2  A    between atoms: C_8  and  O_9
REMARK    3  A    between atoms: O_9  and  C_10
REMARK    4  A    between atoms: C_12  and  N_13
REMARK    5  A    between atoms: N_16  and  S_17
REMARK    6  A    between atoms: S_17  and  C_20
REMARK    7  A    between atoms: C_22  and  C_23
REMARK    8  A    between atoms: C_24  and  C_25
REMARK    9  A    between atoms: C_25  and  C_26
REMARK   10  A    between atoms: C_26  and  O_27
REMARK   11  A    between atoms: O_27  and  C_28
REMARK                            x       y       z     vdW  Elec       q    Type
REMARK                         _______ _______ _______ _____ _____    ______ ____
ROOT
ATOM      1  N   UNL     1       2.077   9.325  18.117  0.00  0.00    +0.000 N 
ATOM      2  C   UNL     1       2.511   8.025  18.054  0.00  0.00    +0.000 C 
ATOM      3  O   UNL     1       3.337   7.736  17.200  0.00  0.00    +0.000 OA
ATOM      4  N   UNL     1       2.023   7.094  18.963  0.00  0.00    +0.000 N 
ATOM      5  H   UNL     1       2.527   9.922  17.438  0.00  0.00    +0.000 HD
ATOM      6  H   UNL     1       1.360   7.377  19.696  0.00  0.00    +0.000 HD
ENDROOT
BRANCH   1  16
ATOM      7  C   UNL     1      -4.344  11.483  15.925  0.00  0.00    +0.000 C 
ATOM      8  N   UNL     1      -3.758  11.732  17.223  0.00  0.00    +0.000 N 
ATOM      9  C   UNL     1      -2.568  11.104  17.527  0.00  0.00    +0.000 C 
ATOM     10  O   UNL     1      -2.017  10.333  16.755  0.00  0.00    +0.000 OA
ATOM     11  N   UNL     1      -2.131  11.391  18.799  0.00  0.00    +0.000 N 
ATOM     12  C   UNL     1      -0.933  10.872  19.323  0.00  0.00    +0.000 A 
ATOM     13  C   UNL     1      -0.751  10.901  20.696  0.00  0.00    +0.000 A 
ATOM     14  C   UNL     1       0.437  10.398  21.216  0.00  0.00    +0.000 A 
ATOM     15  C   UNL     1       1.404   9.882  20.353  0.00  0.00    +0.000 A 
ATOM     16  C   UNL     1       1.138   9.872  18.992  0.00  0.00    +0.000 A 
ATOM     17  N   UNL     1      -0.005  10.372  18.491  0.00  0.00    +0.000 NA
ATOM     18  H   UNL     1      -3.944  12.625  17.652  0.00  0.00    +0.000 HD
ATOM     19  H   UNL     1      -2.799  11.792  19.436  0.00  0.00    +0.000 HD
BRANCH  14  20
ATOM     20  O   UNL     1       0.767  10.348  22.545  0.00  0.00    +0.000 OA
ATOM     21  C   UNL     1      -0.004   9.483  23.373  0.00  0.00    +0.000 C 
ENDBRANCH  14  20
ENDBRANCH   1  16
BRANCH   4  22
ATOM     22  S   UNL     1       2.467   5.505  18.974  0.00  0.00    +0.000 S 
ATOM     23  O   UNL     1       2.401   4.984  20.329  0.00  0.00    +0.000 OA
ATOM     24  O   UNL     1       1.760   4.825  17.908  0.00  0.00    +0.000 OA
BRANCH  22  25
ATOM     25  C   UNL     1       4.187   5.388  18.526  0.00  0.00    +0.000 A 
ATOM     26  C   UNL     1       5.315   5.706  19.243  0.00  0.00    +0.000 A 
ATOM     27  C   UNL     1       6.540   5.420  18.557  0.00  0.00    +0.000 A 
ATOM     28  C   UNL     1       7.859   5.701  19.202  0.00  0.00    +0.000 C 
ATOM     29  C   UNL     1       6.293   4.866  17.302  0.00  0.00    +0.000 A 
ATOM     30  S   UNL     1       4.595   4.749  16.995  0.00  0.00    +0.000 S 
BRANCH  29  31
ATOM     31  C   UNL     1       7.265   4.374  16.240  0.00  0.00    +0.000 C 
BRANCH  31  32
ATOM     32  C   UNL     1       6.758   4.684  14.828  0.00  0.00    +0.000 C 
BRANCH  32  33
ATOM     33  O   UNL     1       6.302   3.525  14.120  0.00  0.00    +0.000 OA
ATOM     34  C   UNL     1       6.425   3.750  12.711  0.00  0.00    +0.000 C 
ENDBRANCH  32  33
ENDBRANCH  31  32
ENDBRANCH  29  31
ENDBRANCH  22  25
ENDBRANCH   4  22
TORSDOF 7
ENDMDL
