MODEL 1
REMARK VINA RESULT:      -6.8      0.000      0.000
REMARK  Name = 
REMARK  10 active torsions:
REMARK  status: ('A' for Active; 'I' for Inactive)
REMARK    1  A    between atoms: C_1  and  O_2
REMARK    2  A    between atoms: O_2  and  C_3
REMARK    3  A    between atoms: C_6  and  C_7
REMARK    4  A    between atoms: C_7  and  C_8
REMARK    5  A    between atoms: N_9  and  N_10
REMARK    6  A    between atoms: N_10  and  C_11
REMARK    7  A    between atoms: C_14  and  C_15
REMARK    8  A    between atoms: C_15  and  O_17
REMARK    9  A    between atoms: C_20  and  O_21
REMARK   10  A    between atoms: O_21  and  C_22
REMARK                            x       y       z     vdW  Elec       q    Type
REMARK                         _______ _______ _______ _____ _____    ______ ____
ROOT
ATOM      1  C   UNL     1       4.050   5.072  18.716  0.00  0.00    +0.000 C 
ATOM      2  C   UNL     1       3.589   3.857  19.499  0.00  0.00    +0.000 C 
ATOM      3  N   UNL     1       3.723   6.288  19.046  0.00  0.00    +0.000 NA
ENDROOT
BRANCH   1   7
ATOM      4  C   UNL     1       6.595   4.389  15.292  0.00  0.00    +0.000 A 
ATOM      5  C   UNL     1       5.225   4.591  15.141  0.00  0.00    +0.000 A 
ATOM      6  C   UNL     1       4.411   4.813  16.254  0.00  0.00    +0.000 A 
ATOM      7  C   UNL     1       4.966   4.862  17.541  0.00  0.00    +0.000 A 
ATOM      8  C   UNL     1       6.357   4.677  17.701  0.00  0.00    +0.000 A 
ATOM      9  C   UNL     1       7.154   4.428  16.570  0.00  0.00    +0.000 A 
BRANCH   4  11
ATOM     10  C   UNL     1       6.515   3.758  12.997  0.00  0.00    +0.000 C 
ATOM     11  O   UNL     1       7.277   4.171  14.125  0.00  0.00    +0.000 OA
ENDBRANCH   4  11
BRANCH   8  12
ATOM     12  O   UNL     1       6.876   4.795  18.965  0.00  0.00    +0.000 OA
ATOM     13  C   UNL     1       7.807   5.839  19.220  0.00  0.00    +0.000 C 
ENDBRANCH   8  12
ENDBRANCH   1   7
BRANCH   3  14
ATOM     14  N   UNL     1       2.848   6.500  20.063  0.00  0.00    +0.000 N 
ATOM     15  H   UNL     1       3.118   6.318  21.027  0.00  0.00    +0.000 HD
BRANCH  14  16
ATOM     16  C   UNL     1       2.002   7.622  19.956  0.00  0.00    +0.000 A 
ATOM     17  C   UNL     1       1.947   8.335  18.752  0.00  0.00    +0.000 A 
ATOM     18  C   UNL     1       1.128   9.462  18.630  0.00  0.00    +0.000 A 
ATOM     19  C   UNL     1       0.340   9.880  19.709  0.00  0.00    +0.000 A 
ATOM     20  C   UNL     1       0.367   9.158  20.907  0.00  0.00    +0.000 A 
ATOM     21  C   UNL     1       1.212   8.051  21.032  0.00  0.00    +0.000 A 
BRANCH  19  22
ATOM     22  C   UNL     1      -0.533  11.067  19.523  0.00  0.00    +0.000 C 
ATOM     23  O   UNL     1      -1.161  11.577  20.436  0.00  0.00    +0.000 OA
BRANCH  22  24
ATOM     24  O   UNL     1      -0.603  11.505  18.247  0.00  0.00    +0.000 OA
ATOM     25  H   UNL     1       0.068  12.167  18.000  0.00  0.00    +0.000 HD
ENDBRANCH  22  24
ENDBRANCH  19  22
ENDBRANCH  14  16
ENDBRANCH   3  14
TORSDOF 7
ENDMDL
MODEL 2
REMARK VINA RESULT:      -6.7      1.838      2.983
REMARK  Name = 
REMARK  10 active torsions:
REMARK  status: ('A' for Active; 'I' for Inactive)
REMARK    1  A    between atoms: C_1  and  O_2
REMARK    2  A    between atoms: O_2  and  C_3
REMARK    3  A    between atoms: C_6  and  C_7
REMARK    4  A    between atoms: C_7  and  C_8
REMARK    5  A    between atoms: N_9  and  N_10
REMARK    6  A    between atoms: N_10  and  C_11
REMARK    7  A    between atoms: C_14  and  C_15
REMARK    8  A    between atoms: C_15  and  O_17
REMARK    9  A    between atoms: C_20  and  O_21
REMARK   10  A    between atoms: O_21  and  C_22
REMARK                            x       y       z     vdW  Elec       q    Type
REMARK                         _______ _______ _______ _____ _____    ______ ____
ROOT
ATOM      1  C   UNL     1       2.605   5.933  19.777  0.00  0.00    +0.000 C 
ATOM      2  C   UNL     1       2.050   5.109  20.924  0.00  0.00    +0.000 C 
ATOM      3  N   UNL     1       2.455   7.224  19.700  0.00  0.00    +0.000 NA
ENDROOT
BRANCH   1   7
ATOM      4  C   UNL     1       4.953   4.031  16.688  0.00  0.00    +0.000 A 
ATOM      5  C   UNL     1       5.494   5.036  17.487  0.00  0.00    +0.000 A 
ATOM      6  C   UNL     1       4.727   5.643  18.484  0.00  0.00    +0.000 A 
ATOM      7  C   UNL     1       3.406   5.232  18.714  0.00  0.00    +0.000 A 
ATOM      8  C   UNL     1       2.856   4.201  17.921  0.00  0.00    +0.000 A 
ATOM      9  C   UNL     1       3.636   3.622  16.905  0.00  0.00    +0.000 A 
BRANCH   4  11
ATOM     10  C   UNL     1       6.757   4.425  15.185  0.00  0.00    +0.000 C 
ATOM     11  O   UNL     1       5.803   3.528  15.741  0.00  0.00    +0.000 OA
ENDBRANCH   4  11
BRANCH   8  12
ATOM     12  O   UNL     1       1.585   3.779  18.215  0.00  0.00    +0.000 OA
ATOM     13  C   UNL     1       1.381   2.406  18.519  0.00  0.00    +0.000 C 
ENDBRANCH   8  12
ENDBRANCH   1   7
BRANCH   3  14
ATOM     14  N   UNL     1       1.684   7.870  20.613  0.00  0.00    +0.000 N 
ATOM     15  H   UNL     1       1.985   7.954  21.581  0.00  0.00    +0.000 HD
BRANCH  14  16
ATOM     16  C   UNL     1       0.998   9.020  20.172  0.00  0.00    +0.000 A 
ATOM     17  C   UNL     1       0.091   9.655  21.030  0.00  0.00    +0.000 A 
ATOM     18  C   UNL     1      -0.613  10.787  20.606  0.00  0.00    +0.000 A 
ATOM     19  C   UNL     1      -0.404  11.308  19.324  0.00  0.00    +0.000 A 
ATOM     20  C   UNL     1       0.522  10.698  18.471  0.00  0.00    +0.000 A 
ATOM     21  C   UNL     1       1.198   9.548  18.889  0.00  0.00    +0.000 A 
BRANCH  19  22
ATOM     22  C   UNL     1      -1.155  12.527  18.930  0.00  0.00    +0.000 C 
ATOM     23  O   UNL     1      -1.679  13.273  19.740  0.00  0.00    +0.000 OA
BRANCH  22  24
ATOM     24  O   UNL     1      -1.243  12.713  17.595  0.00  0.00    +0.000 OA
ATOM     25  H   UNL     1      -0.426  13.028  17.167  0.00  0.00    +0.000 HD
ENDBRANCH  22  24
ENDBRANCH  19  22
ENDBRANCH  14  16
ENDBRANCH   3  14
TORSDOF 7
ENDMDL
MODEL 3
REMARK VINA RESULT:      -6.7      3.368      8.683
REMARK  Name = 
REMARK  10 active torsions:
REMARK  status: ('A' for Active; 'I' for Inactive)
REMARK    1  A    between atoms: C_1  and  O_2
REMARK    2  A    between atoms: O_2  and  C_3
REMARK    3  A    between atoms: C_6  and  C_7
REMARK    4  A    between atoms: C_7  and  C_8
REMARK    5  A    between atoms: N_9  and  N_10
REMARK    6  A    between atoms: N_10  and  C_11
REMARK    7  A    between atoms: C_14  and  C_15
REMARK    8  A    between atoms: C_15  and  O_17
REMARK    9  A    between atoms: C_20  and  O_21
REMARK   10  A    between atoms: O_21  and  C_22
REMARK                            x       y       z     vdW  Elec       q    Type
REMARK                         _______ _______ _______ _____ _____    ______ ____
ROOT
ATOM      1  C   UNL     1       0.958   9.424  18.917  0.00  0.00    +0.000 C 
ATOM      2  C   UNL     1       2.078   9.801  17.965  0.00  0.00    +0.000 C 
ATOM      3  N   UNL     1       1.108   8.552  19.871  0.00  0.00    +0.000 NA
ENDROOT
BRANCH   1   7
ATOM      4  C   UNL     1      -2.825  11.449  18.400  0.00  0.00    +0.000 A 
ATOM      5  C   UNL     1      -2.453  10.395  17.568  0.00  0.00    +0.000 A 
ATOM      6  C   UNL     1      -1.229   9.746  17.744  0.00  0.00    +0.000 A 
ATOM      7  C   UNL     1      -0.364  10.129  18.780  0.00  0.00    +0.000 A 
ATOM      8  C   UNL     1      -0.742  11.183  19.641  0.00  0.00    +0.000 A 
ATOM      9  C   UNL     1      -1.967  11.841  19.429  0.00  0.00    +0.000 A 
BRANCH   4  11
ATOM     10  C   UNL     1      -4.636  11.660  16.870  0.00  0.00    +0.000 C 
ATOM     11  O   UNL     1      -4.041  12.006  18.115  0.00  0.00    +0.000 OA
ENDBRANCH   4  11
BRANCH   8  12
ATOM     12  O   UNL     1       0.096  11.489  20.682  0.00  0.00    +0.000 OA
ATOM     13  C   UNL     1      -0.478  11.783  21.949  0.00  0.00    +0.000 C 
ENDBRANCH   8  12
ENDBRANCH   1   7
BRANCH   3  14
ATOM     14  N   UNL     1       2.271   7.858  19.975  0.00  0.00    +0.000 N 
ATOM     15  H   UNL     1       2.910   8.028  20.749  0.00  0.00    +0.000 HD
BRANCH  14  16
ATOM     16  C   UNL     1       2.241   6.498  19.606  0.00  0.00    +0.000 A 
ATOM     17  C   UNL     1       1.869   5.534  20.551  0.00  0.00    +0.000 A 
ATOM     18  C   UNL     1       1.849   4.178  20.211  0.00  0.00    +0.000 A 
ATOM     19  C   UNL     1       2.186   3.771  18.914  0.00  0.00    +0.000 A 
ATOM     20  C   UNL     1       2.531   4.730  17.956  0.00  0.00    +0.000 A 
ATOM     21  C   UNL     1       2.579   6.081  18.312  0.00  0.00    +0.000 A 
BRANCH  19  22
ATOM     22  C   UNL     1       2.125   2.322  18.594  0.00  0.00    +0.000 C 
ATOM     23  O   UNL     1       3.114   1.659  18.334  0.00  0.00    +0.000 OA
BRANCH  22  24
ATOM     24  O   UNL     1       0.873   1.814  18.575  0.00  0.00    +0.000 OA
ATOM     25  H   UNL     1       0.291   2.175  17.882  0.00  0.00    +0.000 HD
ENDBRANCH  22  24
ENDBRANCH  19  22
ENDBRANCH  14  16
ENDBRANCH   3  14
TORSDOF 7
ENDMDL
MODEL 4
REMARK VINA RESULT:      -6.6      1.288      1.320
REMARK  Name = 
REMARK  10 active torsions:
REMARK  status: ('A' for Active; 'I' for Inactive)
REMARK    1  A    between atoms: C_1  and  O_2
REMARK    2  A    between atoms: O_2  and  C_3
REMARK    3  A    between atoms: C_6  and  C_7
REMARK    4  A    between atoms: C_7  and  C_8
REMARK    5  A    between atoms: N_9  and  N_10
REMARK    6  A    between atoms: N_10  and  C_11
REMARK    7  A    between atoms: C_14  and  C_15
REMARK    8  A    between atoms: C_15  and  O_17
REMARK    9  A    between atoms: C_20  and  O_21
REMARK   10  A    between atoms: O_21  and  C_22
REMARK                            x       y       z     vdW  Elec       q    Type
REMARK                         _______ _______ _______ _____ _____    ______ ____
ROOT
ATOM      1  C   UNL     1       4.551   5.553  18.144  0.00  0.00    +0.000 C 
ATOM      2  C   UNL     1       5.273   5.197  19.431  0.00  0.00    +0.000 C 
ATOM      3  N   UNL     1       3.432   6.218  18.125  0.00  0.00    +0.000 NA
ENDROOT
BRANCH   1   7
ATOM      4  C   UNL     1       6.385   4.315  14.433  0.00  0.00    +0.000 A 
ATOM      5  C   UNL     1       5.427   3.522  15.062  0.00  0.00    +0.000 A 
ATOM      6  C   UNL     1       4.839   3.932  16.260  0.00  0.00    +0.000 A 
ATOM      7  C   UNL     1       5.185   5.163  16.837  0.00  0.00    +0.000 A 
ATOM      8  C   UNL     1       6.140   5.981  16.196  0.00  0.00    +0.000 A 
ATOM      9  C   UNL     1       6.740   5.538  15.004  0.00  0.00    +0.000 A 
BRANCH   4  11
ATOM     10  C   UNL     1       5.954   3.335  12.305  0.00  0.00    +0.000 C 
ATOM     11  O   UNL     1       6.891   3.795  13.273  0.00  0.00    +0.000 OA
ENDBRANCH   4  11
BRANCH   8  12
ATOM     12  O   UNL     1       6.408   7.206  16.752  0.00  0.00    +0.000 OA
ATOM     13  C   UNL     1       7.614   7.366  17.487  0.00  0.00    +0.000 C 
ENDBRANCH   8  12
ENDBRANCH   1   7
BRANCH   3  14
ATOM     14  N   UNL     1       2.809   6.526  19.291  0.00  0.00    +0.000 N 
ATOM     15  H   UNL     1       3.246   6.315  20.185  0.00  0.00    +0.000 HD
BRANCH  14  16
ATOM     16  C   UNL     1       2.085   7.735  19.331  0.00  0.00    +0.000 A 
ATOM     17  C   UNL     1       1.963   8.506  18.168  0.00  0.00    +0.000 A 
ATOM     18  C   UNL     1       1.265   9.717  18.190  0.00  0.00    +0.000 A 
ATOM     19  C   UNL     1       0.665  10.164  19.373  0.00  0.00    +0.000 A 
ATOM     20  C   UNL     1       0.758   9.387  20.533  0.00  0.00    +0.000 A 
ATOM     21  C   UNL     1       1.484   8.193  20.511  0.00  0.00    +0.000 A 
BRANCH  19  22
ATOM     22  C   UNL     1      -0.087  11.444  19.340  0.00  0.00    +0.000 C 
ATOM     23  O   UNL     1      -0.466  12.017  20.348  0.00  0.00    +0.000 OA
BRANCH  22  24
ATOM     24  O   UNL     1      -0.352  11.895  18.094  0.00  0.00    +0.000 OA
ATOM     25  H   UNL     1      -1.289  12.098  17.918  0.00  0.00    +0.000 HD
ENDBRANCH  22  24
ENDBRANCH  19  22
ENDBRANCH  14  16
ENDBRANCH   3  14
TORSDOF 7
ENDMDL
MODEL 5
REMARK VINA RESULT:      -6.6      1.427      2.102
REMARK  Name = 
REMARK  10 active torsions:
REMARK  status: ('A' for Active; 'I' for Inactive)
REMARK    1  A    between atoms: C_1  and  O_2
REMARK    2  A    between atoms: O_2  and  C_3
REMARK    3  A    between atoms: C_6  and  C_7
REMARK    4  A    between atoms: C_7  and  C_8
REMARK    5  A    between atoms: N_9  and  N_10
REMARK    6  A    between atoms: N_10  and  C_11
REMARK    7  A    between atoms: C_14  and  C_15
REMARK    8  A    between atoms: C_15  and  O_17
REMARK    9  A    between atoms: C_20  and  O_21
REMARK   10  A    between atoms: O_21  and  C_22
REMARK                            x       y       z     vdW  Elec       q    Type
REMARK                         _______ _______ _______ _____ _____    ______ ____
ROOT
ATOM      1  C   UNL     1       3.025   5.710  18.833  0.00  0.00    +0.000 C 
ATOM      2  C   UNL     1       1.840   4.802  18.564  0.00  0.00    +0.000 C 
ATOM      3  N   UNL     1       3.045   6.573  19.807  0.00  0.00    +0.000 NA
ENDROOT
BRANCH   1   7
ATOM      4  C   UNL     1       6.461   5.307  16.243  0.00  0.00    +0.000 A 
ATOM      5  C   UNL     1       5.456   6.232  15.967  0.00  0.00    +0.000 A 
ATOM      6  C   UNL     1       4.350   6.356  16.811  0.00  0.00    +0.000 A 
ATOM      7  C   UNL     1       4.247   5.568  17.967  0.00  0.00    +0.000 A 
ATOM      8  C   UNL     1       5.271   4.642  18.265  0.00  0.00    +0.000 A 
ATOM      9  C   UNL     1       6.362   4.514  17.388  0.00  0.00    +0.000 A 
BRANCH   4  11
ATOM     10  C   UNL     1       7.158   4.865  14.010  0.00  0.00    +0.000 C 
ATOM     11  O   UNL     1       7.482   5.277  15.333  0.00  0.00    +0.000 OA
ENDBRANCH   4  11
BRANCH   8  12
ATOM     12  O   UNL     1       5.171   3.934  19.435  0.00  0.00    +0.000 OA
ATOM     13  C   UNL     1       4.590   2.637  19.394  0.00  0.00    +0.000 C 
ENDBRANCH   8  12
ENDBRANCH   1   7
BRANCH   3  14
ATOM     14  N   UNL     1       1.932   6.765  20.563  0.00  0.00    +0.000 N 
ATOM     15  H   UNL     1       1.799   6.250  21.430  0.00  0.00    +0.000 HD
BRANCH  14  16
ATOM     16  C   UNL     1       1.435   8.081  20.649  0.00  0.00    +0.000 A 
ATOM     17  C   UNL     1       0.983   8.570  21.881  0.00  0.00    +0.000 A 
ATOM     18  C   UNL     1       0.469   9.866  21.985  0.00  0.00    +0.000 A 
ATOM     19  C   UNL     1       0.418  10.696  20.858  0.00  0.00    +0.000 A 
ATOM     20  C   UNL     1       0.894  10.227  19.630  0.00  0.00    +0.000 A 
ATOM     21  C   UNL     1       1.377   8.919  19.527  0.00  0.00    +0.000 A 
BRANCH  19  22
ATOM     22  C   UNL     1      -0.112  12.074  21.025  0.00  0.00    +0.000 C 
ATOM     23  O   UNL     1      -1.205  12.418  20.608  0.00  0.00    +0.000 OA
BRANCH  22  24
ATOM     24  O   UNL     1       0.741  12.922  21.640  0.00  0.00    +0.000 OA
ATOM     25  H   UNL     1       1.647  12.931  21.280  0.00  0.00    +0.000 HD
ENDBRANCH  22  24
ENDBRANCH  19  22
ENDBRANCH  14  16
ENDBRANCH   3  14
TORSDOF 7
ENDMDL
MODEL 6
REMARK VINA RESULT:      -6.6      0.663      1.206
REMARK  Name = 
REMARK  10 active torsions:
REMARK  status: ('A' for Active; 'I' for Inactive)
REMARK    1  A    between atoms: C_1  and  O_2
REMARK    2  A    between atoms: O_2  and  C_3
REMARK    3  A    between atoms: C_6  and  C_7
REMARK    4  A    between atoms: C_7  and  C_8
REMARK    5  A    between atoms: N_9  and  N_10
REMARK    6  A    between atoms: N_10  and  C_11
REMARK    7  A    between atoms: C_14  and  C_15
REMARK    8  A    between atoms: C_15  and  O_17
REMARK    9  A    between atoms: C_20  and  O_21
REMARK   10  A    between atoms: O_21  and  C_22
REMARK                            x       y       z     vdW  Elec       q    Type
REMARK                         _______ _______ _______ _____ _____    ______ ____
ROOT
ATOM      1  C   UNL     1       3.846   5.336  19.121  0.00  0.00    +0.000 C 
ATOM      2  C   UNL     1       3.362   4.095  19.847  0.00  0.00    +0.000 C 
ATOM      3  N   UNL     1       3.441   6.534  19.426  0.00  0.00    +0.000 NA
ENDROOT
BRANCH   1   7
ATOM      4  C   UNL     1       6.733   4.786  15.953  0.00  0.00    +0.000 A 
ATOM      5  C   UNL     1       5.370   4.876  15.676  0.00  0.00    +0.000 A 
ATOM      6  C   UNL     1       4.445   5.055  16.707  0.00  0.00    +0.000 A 
ATOM      7  C   UNL     1       4.877   5.174  18.037  0.00  0.00    +0.000 A 
ATOM      8  C   UNL     1       6.258   5.103  18.323  0.00  0.00    +0.000 A 
ATOM      9  C   UNL     1       7.170   4.895  17.274  0.00  0.00    +0.000 A 
BRANCH   4  11
ATOM     10  C   UNL     1       6.880   4.365  13.614  0.00  0.00    +0.000 C 
ATOM     11  O   UNL     1       7.531   4.598  14.857  0.00  0.00    +0.000 OA
ENDBRANCH   4  11
BRANCH   8  12
ATOM     12  O   UNL     1       6.651   5.288  19.624  0.00  0.00    +0.000 OA
ATOM     13  C   UNL     1       8.018   5.574  19.883  0.00  0.00    +0.000 C 
ENDBRANCH   8  12
ENDBRANCH   1   7
BRANCH   3  14
ATOM     14  N   UNL     1       2.465   6.701  20.357  0.00  0.00    +0.000 N 
ATOM     15  H   UNL     1       2.621   6.433  21.326  0.00  0.00    +0.000 HD
BRANCH  14  16
ATOM     16  C   UNL     1       1.671   7.860  20.252  0.00  0.00    +0.000 A 
ATOM     17  C   UNL     1       0.862   8.244  21.329  0.00  0.00    +0.000 A 
ATOM     18  C   UNL     1       0.053   9.381  21.239  0.00  0.00    +0.000 A 
ATOM     19  C   UNL     1       0.056  10.159  20.075  0.00  0.00    +0.000 A 
ATOM     20  C   UNL     1       0.883   9.799  19.005  0.00  0.00    +0.000 A 
ATOM     21  C   UNL     1       1.665   8.644  19.090  0.00  0.00    +0.000 A 
BRANCH  19  22
ATOM     22  C   UNL     1      -0.800  11.371  20.037  0.00  0.00    +0.000 C 
ATOM     23  O   UNL     1      -1.513  11.708  20.967  0.00  0.00    +0.000 OA
BRANCH  22  24
ATOM     24  O   UNL     1      -0.752  12.044  18.867  0.00  0.00    +0.000 OA
ATOM     25  H   UNL     1       0.085  12.515  18.695  0.00  0.00    +0.000 HD
ENDBRANCH  22  24
ENDBRANCH  19  22
ENDBRANCH  14  16
ENDBRANCH   3  14
TORSDOF 7
ENDMDL
MODEL 7
REMARK VINA RESULT:      -6.6      2.239      8.071
REMARK  Name = 
REMARK  10 active torsions:
REMARK  status: ('A' for Active; 'I' for Inactive)
REMARK    1  A    between atoms: C_1  and  O_2
REMARK    2  A    between atoms: O_2  and  C_3
REMARK    3  A    between atoms: C_6  and  C_7
REMARK    4  A    between atoms: C_7  and  C_8
REMARK    5  A    between atoms: N_9  and  N_10
REMARK    6  A    between atoms: N_10  and  C_11
REMARK    7  A    between atoms: C_14  and  C_15
REMARK    8  A    between atoms: C_15  and  O_17
REMARK    9  A    between atoms: C_20  and  O_21
REMARK   10  A    between atoms: O_21  and  C_22
REMARK                            x       y       z     vdW  Elec       q    Type
REMARK                         _______ _______ _______ _____ _____    ______ ____
ROOT
ATOM      1  C   UNL     1       3.170   4.684  18.280  0.00  0.00    +0.000 C 
ATOM      2  C   UNL     1       2.296   3.818  17.392  0.00  0.00    +0.000 C 
ATOM      3  N   UNL     1       4.468   4.583  18.305  0.00  0.00    +0.000 NA
ENDROOT
BRANCH   1   7
ATOM      4  C   UNL     1       1.375   7.786  20.694  0.00  0.00    +0.000 A 
ATOM      5  C   UNL     1       2.066   8.094  19.524  0.00  0.00    +0.000 A 
ATOM      6  C   UNL     1       2.641   7.084  18.750  0.00  0.00    +0.000 A 
ATOM      7  C   UNL     1       2.510   5.739  19.125  0.00  0.00    +0.000 A 
ATOM      8  C   UNL     1       1.794   5.417  20.299  0.00  0.00    +0.000 A 
ATOM      9  C   UNL     1       1.246   6.450  21.079  0.00  0.00    +0.000 A 
BRANCH   4  11
ATOM     10  C   UNL     1       0.564  10.022  20.597  0.00  0.00    +0.000 C 
ATOM     11  O   UNL     1       0.870   8.865  21.366  0.00  0.00    +0.000 OA
ENDBRANCH   4  11
BRANCH   8  12
ATOM     12  O   UNL     1       1.629   4.089  20.602  0.00  0.00    +0.000 OA
ATOM     13  C   UNL     1       2.315   3.563  21.730  0.00  0.00    +0.000 C 
ENDBRANCH   8  12
ENDBRANCH   1   7
BRANCH   3  14
ATOM     14  N   UNL     1       5.082   3.598  17.600  0.00  0.00    +0.000 N 
ATOM     15  H   UNL     1       4.659   2.676  17.518  0.00  0.00    +0.000 HD
BRANCH  14  16
ATOM     16  C   UNL     1       5.750   3.978  16.418  0.00  0.00    +0.000 A 
ATOM     17  C   UNL     1       6.908   4.761  16.500  0.00  0.00    +0.000 A 
ATOM     18  C   UNL     1       7.576   5.165  15.340  0.00  0.00    +0.000 A 
ATOM     19  C   UNL     1       7.102   4.773  14.082  0.00  0.00    +0.000 A 
ATOM     20  C   UNL     1       5.963   3.967  13.991  0.00  0.00    +0.000 A 
ATOM     21  C   UNL     1       5.282   3.594  15.154  0.00  0.00    +0.000 A 
BRANCH  19  22
ATOM     22  C   UNL     1       7.861   5.205  12.880  0.00  0.00    +0.000 C 
ATOM     23  O   UNL     1       7.600   4.812  11.755  0.00  0.00    +0.000 OA
BRANCH  22  24
ATOM     24  O   UNL     1       8.890   6.037  13.148  0.00  0.00    +0.000 OA
ATOM     25  H   UNL     1       9.106   6.669  12.438  0.00  0.00    +0.000 HD
ENDBRANCH  22  24
ENDBRANCH  19  22
ENDBRANCH  14  16
ENDBRANCH   3  14
TORSDOF 7
ENDMDL
MODEL 8
REMARK VINA RESULT:      -6.5      0.959      1.513
REMARK  Name = 
REMARK  10 active torsions:
REMARK  status: ('A' for Active; 'I' for Inactive)
REMARK    1  A    between atoms: C_1  and  O_2
REMARK    2  A    between atoms: O_2  and  C_3
REMARK    3  A    between atoms: C_6  and  C_7
REMARK    4  A    between atoms: C_7  and  C_8
REMARK    5  A    between atoms: N_9  and  N_10
REMARK    6  A    between atoms: N_10  and  C_11
REMARK    7  A    between atoms: C_14  and  C_15
REMARK    8  A    between atoms: C_15  and  O_17
REMARK    9  A    between atoms: C_20  and  O_21
REMARK   10  A    between atoms: O_21  and  C_22
REMARK                            x       y       z     vdW  Elec       q    Type
REMARK                         _______ _______ _______ _____ _____    ______ ____
ROOT
ATOM      1  C   UNL     1       4.532   5.099  18.288  0.00  0.00    +0.000 C 
ATOM      2  C   UNL     1       4.664   3.989  19.313  0.00  0.00    +0.000 C 
ATOM      3  N   UNL     1       3.843   6.182  18.506  0.00  0.00    +0.000 NA
ENDROOT
BRANCH   1   7
ATOM      4  C   UNL     1       6.615   4.586  14.537  0.00  0.00    +0.000 A 
ATOM      5  C   UNL     1       5.313   4.119  14.706  0.00  0.00    +0.000 A 
ATOM      6  C   UNL     1       4.648   4.291  15.922  0.00  0.00    +0.000 A 
ATOM      7  C   UNL     1       5.272   4.962  16.985  0.00  0.00    +0.000 A 
ATOM      8  C   UNL     1       6.583   5.456  16.814  0.00  0.00    +0.000 A 
ATOM      9  C   UNL     1       7.246   5.248  15.592  0.00  0.00    +0.000 A 
BRANCH   4  11
ATOM     10  C   UNL     1       6.398   3.540  12.409  0.00  0.00    +0.000 C 
ATOM     11  O   UNL     1       7.157   4.344  13.304  0.00  0.00    +0.000 OA
ENDBRANCH   4  11
BRANCH   8  12
ATOM     12  O   UNL     1       7.139   6.162  17.851  0.00  0.00    +0.000 OA
ATOM     13  C   UNL     1       7.552   7.501  17.611  0.00  0.00    +0.000 C 
ENDBRANCH   8  12
ENDBRANCH   1   7
BRANCH   3  14
ATOM     14  N   UNL     1       3.116   6.301  19.647  0.00  0.00    +0.000 N 
ATOM     15  H   UNL     1       3.520   6.056  20.548  0.00  0.00    +0.000 HD
BRANCH  14  16
ATOM     16  C   UNL     1       2.251   7.410  19.742  0.00  0.00    +0.000 A 
ATOM     17  C   UNL     1       1.557   7.645  20.936  0.00  0.00    +0.000 A 
ATOM     18  C   UNL     1       0.680   8.728  21.045  0.00  0.00    +0.000 A 
ATOM     19  C   UNL     1       0.499   9.601  19.966  0.00  0.00    +0.000 A 
ATOM     20  C   UNL     1       1.209   9.391  18.779  0.00  0.00    +0.000 A 
ATOM     21  C   UNL     1       2.060   8.287  18.666  0.00  0.00    +0.000 A 
BRANCH  19  22
ATOM     22  C   UNL     1      -0.424  10.752  20.139  0.00  0.00    +0.000 C 
ATOM     23  O   UNL     1      -1.158  11.153  19.251  0.00  0.00    +0.000 OA
BRANCH  22  24
ATOM     24  O   UNL     1      -0.347  11.341  21.352  0.00  0.00    +0.000 OA
ATOM     25  H   UNL     1      -0.083  12.279  21.340  0.00  0.00    +0.000 HD
ENDBRANCH  22  24
ENDBRANCH  19  22
ENDBRANCH  14  16
ENDBRANCH   3  14
TORSDOF 7
ENDMDL
MODEL 9
REMARK VINA RESULT:      -6.5      1.864      2.870
REMARK  Name = 
REMARK  10 active torsions:
REMARK  status: ('A' for Active; 'I' for Inactive)
REMARK    1  A    between atoms: C_1  and  O_2
REMARK    2  A    between atoms: O_2  and  C_3
REMARK    3  A    between atoms: C_6  and  C_7
REMARK    4  A    between atoms: C_7  and  C_8
REMARK    5  A    between atoms: N_9  and  N_10
REMARK    6  A    between atoms: N_10  and  C_11
REMARK    7  A    between atoms: C_14  and  C_15
REMARK    8  A    between atoms: C_15  and  O_17
REMARK    9  A    between atoms: C_20  and  O_21
REMARK   10  A    between atoms: O_21  and  C_22
REMARK                            x       y       z     vdW  Elec       q    Type
REMARK                         _______ _______ _______ _____ _____    ______ ____
ROOT
ATOM      1  C   UNL     1       2.559   5.805  19.962  0.00  0.00    +0.000 C 
ATOM      2  C   UNL     1       2.142   4.981  21.166  0.00  0.00    +0.000 C 
ATOM      3  N   UNL     1       2.269   7.068  19.838  0.00  0.00    +0.000 NA
ENDROOT
BRANCH   1   7
ATOM      4  C   UNL     1       4.990   4.013  16.871  0.00  0.00    +0.000 A 
ATOM      5  C   UNL     1       5.541   4.894  17.800  0.00  0.00    +0.000 A 
ATOM      6  C   UNL     1       4.747   5.466  18.796  0.00  0.00    +0.000 A 
ATOM      7  C   UNL     1       3.385   5.143  18.893  0.00  0.00    +0.000 A 
ATOM      8  C   UNL     1       2.824   4.236  17.968  0.00  0.00    +0.000 A 
ATOM      9  C   UNL     1       3.634   3.692  16.956  0.00  0.00    +0.000 A 
BRANCH   4  11
ATOM     10  C   UNL     1       6.745   4.474  15.330  0.00  0.00    +0.000 C 
ATOM     11  O   UNL     1       5.871   3.533  15.941  0.00  0.00    +0.000 OA
ENDBRANCH   4  11
BRANCH   8  12
ATOM     12  O   UNL     1       1.506   3.892  18.130  0.00  0.00    +0.000 OA
ATOM     13  C   UNL     1       1.200   2.577  18.575  0.00  0.00    +0.000 C 
ENDBRANCH   8  12
ENDBRANCH   1   7
BRANCH   3  14
ATOM     14  N   UNL     1       1.472   7.671  20.757  0.00  0.00    +0.000 N 
ATOM     15  H   UNL     1       1.704   7.639  21.747  0.00  0.00    +0.000 HD
BRANCH  14  16
ATOM     16  C   UNL     1       0.892   8.903  20.392  0.00  0.00    +0.000 A 
ATOM     17  C   UNL     1       1.208   9.475  19.153  0.00  0.00    +0.000 A 
ATOM     18  C   UNL     1       0.658  10.706  18.779  0.00  0.00    +0.000 A 
ATOM     19  C   UNL     1      -0.229  11.371  19.634  0.00  0.00    +0.000 A 
ATOM     20  C   UNL     1      -0.573  10.793  20.860  0.00  0.00    +0.000 A 
ATOM     21  C   UNL     1       0.006   9.579  21.242  0.00  0.00    +0.000 A 
BRANCH  19  22
ATOM     22  C   UNL     1      -0.807  12.662  19.180  0.00  0.00    +0.000 C 
ATOM     23  O   UNL     1      -1.507  13.361  19.893  0.00  0.00    +0.000 OA
BRANCH  22  24
ATOM     24  O   UNL     1      -0.523  12.972  17.897  0.00  0.00    +0.000 OA
ATOM     25  H   UNL     1      -1.061  12.508  17.230  0.00  0.00    +0.000 HD
ENDBRANCH  22  24
ENDBRANCH  19  22
ENDBRANCH  14  16
ENDBRANCH   3  14
TORSDOF 7
ENDMDL
