MODEL 1
REMARK VINA RESULT:      -7.8      0.000      0.000
REMARK  Name = 
REMARK  10 active torsions:
REMARK  status: ('A' for Active; 'I' for Inactive)
REMARK    1  A    between atoms: C_1  and  C_2
REMARK    2  A    between atoms: C_2  and  C_3
REMARK    3  A    between atoms: C_10  and  C_11
REMARK    4  A    between atoms: N_13  and  C_14
REMARK    5  A    between atoms: C_14  and  C_15
REMARK    6  A    between atoms: C_15  and  C_16
REMARK    7  A    between atoms: C_16  and  C_17
REMARK    8  A    between atoms: C_17  and  C_18
REMARK    9  A    between atoms: C_18  and  C_19
REMARK   10  A    between atoms: C_19  and  C_20
REMARK                            x       y       z     vdW  Elec       q    Type
REMARK                         _______ _______ _______ _____ _____    ______ ____
ROOT
ATOM      1  C   UNL     1       3.675   6.038  18.623  0.00  0.00    +0.000 C 
ATOM      2  O   UNL     1       4.369   5.559  19.517  0.00  0.00    +0.000 OA
ATOM      3  N   UNL     1       3.678   5.569  17.331  0.00  0.00    +0.000 N 
ATOM      4  H   UNL     1       2.990   5.899  16.667  0.00  0.00    +0.000 HD
ENDROOT
BRANCH   1  14
ATOM      5  C   UNL     1       0.920  11.810  19.720  0.00  0.00    +0.000 C 
ATOM      6  C   UNL     1       0.079  10.522  19.617  0.00  0.00    +0.000 C 
ATOM      7  C   UNL     1      -0.946  10.672  18.470  0.00  0.00    +0.000 C 
ATOM      8  C   UNL     1      -0.717  10.334  20.918  0.00  0.00    +0.000 C 
ATOM      9  C   UNL     1       0.146   9.814  22.036  0.00  0.00    +0.000 C 
ATOM     10  O   UNL     1       0.138  10.282  23.170  0.00  0.00    +0.000 OA
ATOM     11  N   UNL     1       0.877   8.701  21.716  0.00  0.00    +0.000 N 
ATOM     12  C   UNL     1       1.324   8.442  20.413  0.00  0.00    +0.000 A 
ATOM     13  C   UNL     1       2.184   7.355  20.201  0.00  0.00    +0.000 A 
ATOM     14  C   UNL     1       2.747   7.158  18.937  0.00  0.00    +0.000 A 
ATOM     15  C   UNL     1       2.444   8.042  17.898  0.00  0.00    +0.000 A 
ATOM     16  C   UNL     1       1.589   9.115  18.112  0.00  0.00    +0.000 A 
ATOM     17  C   UNL     1       0.998   9.327  19.370  0.00  0.00    +0.000 A 
ATOM     18  H   UNL     1       1.281   8.201  22.498  0.00  0.00    +0.000 HD
ENDBRANCH   1  14
BRANCH   3  19
ATOM     19  C   UNL     1       4.522   4.453  16.947  0.00  0.00    +0.000 C 
BRANCH  19  20
ATOM     20  C   UNL     1       3.894   3.122  17.344  0.00  0.00    +0.000 C 
BRANCH  20  21
ATOM     21  C   UNL     1       2.391   3.275  17.574  0.00  0.00    +0.000 C 
BRANCH  21  22
ATOM     22  C   UNL     1       1.849   2.194  18.503  0.00  0.00    +0.000 C 
BRANCH  22  23
ATOM     23  C   UNL     1       0.582   2.688  19.199  0.00  0.00    +0.000 C 
BRANCH  23  24
ATOM     24  C   UNL     1       0.859   3.882  20.112  0.00  0.00    +0.000 C 
BRANCH  24  25
ATOM     25  C   UNL     1       1.646   3.473  21.339  0.00  0.00    +0.000 C 
ATOM     26  N   UNL     1       2.688   4.292  21.648  0.00  0.00    +0.000 N 
ATOM     27  O   UNL     1       1.399   2.489  22.034  0.00  0.00    +0.000 OA
ATOM     28  H   UNL     1       2.932   5.120  21.128  0.00  0.00    +0.000 HD
ATOM     29  H   UNL     1       3.241   4.049  22.471  0.00  0.00    +0.000 HD
ENDBRANCH  24  25
ENDBRANCH  23  24
ENDBRANCH  22  23
ENDBRANCH  21  22
ENDBRANCH  20  21
ENDBRANCH  19  20
ENDBRANCH   3  19
TORSDOF 8
ENDMDL
MODEL 2
REMARK VINA RESULT:      -7.5      1.645      1.859
REMARK  Name = 
REMARK  10 active torsions:
REMARK  status: ('A' for Active; 'I' for Inactive)
REMARK    1  A    between atoms: C_1  and  C_2
REMARK    2  A    between atoms: C_2  and  C_3
REMARK    3  A    between atoms: C_10  and  C_11
REMARK    4  A    between atoms: N_13  and  C_14
REMARK    5  A    between atoms: C_14  and  C_15
REMARK    6  A    between atoms: C_15  and  C_16
REMARK    7  A    between atoms: C_16  and  C_17
REMARK    8  A    between atoms: C_17  and  C_18
REMARK    9  A    between atoms: C_18  and  C_19
REMARK   10  A    between atoms: C_19  and  C_20
REMARK                            x       y       z     vdW  Elec       q    Type
REMARK                         _______ _______ _______ _____ _____    ______ ____
ROOT
ATOM      1  C   UNL     1       3.560   6.664  17.643  0.00  0.00    +0.000 C 
ATOM      2  O   UNL     1       4.330   7.090  16.785  0.00  0.00    +0.000 OA
ATOM      3  N   UNL     1       3.488   5.339  18.002  0.00  0.00    +0.000 N 
ATOM      4  H   UNL     1       2.945   5.058  18.808  0.00  0.00    +0.000 HD
ENDROOT
BRANCH   1  14
ATOM      5  C   UNL     1       0.907  11.828  20.542  0.00  0.00    +0.000 C 
ATOM      6  C   UNL     1       0.097  10.540  20.290  0.00  0.00    +0.000 C 
ATOM      7  C   UNL     1      -1.131  10.872  19.412  0.00  0.00    +0.000 C 
ATOM      8  C   UNL     1      -0.432  10.007  21.631  0.00  0.00    +0.000 C 
ATOM      9  C   UNL     1       0.642   9.309  22.423  0.00  0.00    +0.000 C 
ATOM     10  O   UNL     1       0.837   9.507  23.617  0.00  0.00    +0.000 OA
ATOM     11  N   UNL     1       1.329   8.352  21.724  0.00  0.00    +0.000 N 
ATOM     12  C   UNL     1       1.527   8.427  20.339  0.00  0.00    +0.000 A 
ATOM     13  C   UNL     1       2.361   7.480  19.727  0.00  0.00    +0.000 A 
ATOM     14  C   UNL     1       2.679   7.615  18.372  0.00  0.00    +0.000 A 
ATOM     15  C   UNL     1       2.159   8.688  17.642  0.00  0.00    +0.000 A 
ATOM     16  C   UNL     1       1.332   9.620  18.252  0.00  0.00    +0.000 A 
ATOM     17  C   UNL     1       0.985   9.500  19.609  0.00  0.00    +0.000 A 
ATOM     18  H   UNL     1       1.887   7.719  22.281  0.00  0.00    +0.000 HD
ENDBRANCH   1  14
BRANCH   3  19
ATOM     19  C   UNL     1       4.341   4.350  17.371  0.00  0.00    +0.000 C 
BRANCH  19  20
ATOM     20  C   UNL     1       4.428   3.079  18.209  0.00  0.00    +0.000 C 
BRANCH  20  21
ATOM     21  C   UNL     1       4.524   3.412  19.697  0.00  0.00    +0.000 C 
BRANCH  21  22
ATOM     22  C   UNL     1       3.503   2.631  20.519  0.00  0.00    +0.000 C 
BRANCH  22  23
ATOM     23  C   UNL     1       2.395   3.564  21.001  0.00  0.00    +0.000 C 
BRANCH  23  24
ATOM     24  C   UNL     1       1.013   3.095  20.550  0.00  0.00    +0.000 C 
BRANCH  24  25
ATOM     25  C   UNL     1       0.934   2.968  19.043  0.00  0.00    +0.000 C 
ATOM     26  N   UNL     1       0.754   1.699  18.585  0.00  0.00    +0.000 N 
ATOM     27  O   UNL     1       1.017   3.908  18.255  0.00  0.00    +0.000 OA
ATOM     28  H   UNL     1       0.663   0.889  19.179  0.00  0.00    +0.000 HD
ATOM     29  H   UNL     1       0.694   1.575  17.574  0.00  0.00    +0.000 HD
ENDBRANCH  24  25
ENDBRANCH  23  24
ENDBRANCH  22  23
ENDBRANCH  21  22
ENDBRANCH  20  21
ENDBRANCH  19  20
ENDBRANCH   3  19
TORSDOF 8
ENDMDL
MODEL 3
REMARK VINA RESULT:      -7.3      0.987      1.095
REMARK  Name = 
REMARK  10 active torsions:
REMARK  status: ('A' for Active; 'I' for Inactive)
REMARK    1  A    between atoms: C_1  and  C_2
REMARK    2  A    between atoms: C_2  and  C_3
REMARK    3  A    between atoms: C_10  and  C_11
REMARK    4  A    between atoms: N_13  and  C_14
REMARK    5  A    between atoms: C_14  and  C_15
REMARK    6  A    between atoms: C_15  and  C_16
REMARK    7  A    between atoms: C_16  and  C_17
REMARK    8  A    between atoms: C_17  and  C_18
REMARK    9  A    between atoms: C_18  and  C_19
REMARK   10  A    between atoms: C_19  and  C_20
REMARK                            x       y       z     vdW  Elec       q    Type
REMARK                         _______ _______ _______ _____ _____    ______ ____
ROOT
ATOM      1  C   UNL     1       3.641   6.243  18.368  0.00  0.00    +0.000 C 
ATOM      2  O   UNL     1       4.043   6.191  17.207  0.00  0.00    +0.000 OA
ATOM      3  N   UNL     1       4.038   5.361  19.344  0.00  0.00    +0.000 N 
ATOM      4  H   UNL     1       3.794   5.527  20.311  0.00  0.00    +0.000 HD
ENDROOT
BRANCH   1  14
ATOM      5  C   UNL     1       0.841  11.900  19.873  0.00  0.00    +0.000 C 
ATOM      6  C   UNL     1       0.014  10.607  19.718  0.00  0.00    +0.000 C 
ATOM      7  C   UNL     1      -1.045  10.807  18.611  0.00  0.00    +0.000 C 
ATOM      8  C   UNL     1      -0.741  10.333  21.029  0.00  0.00    +0.000 C 
ATOM      9  C   UNL     1       0.160   9.763  22.090  0.00  0.00    +0.000 C 
ATOM     10  O   UNL     1       0.179  10.165  23.249  0.00  0.00    +0.000 OA
ATOM     11  N   UNL     1       0.897   8.681  21.686  0.00  0.00    +0.000 N 
ATOM     12  C   UNL     1       1.309   8.504  20.359  0.00  0.00    +0.000 A 
ATOM     13  C   UNL     1       2.178   7.444  20.061  0.00  0.00    +0.000 A 
ATOM     14  C   UNL     1       2.707   7.328  18.772  0.00  0.00    +0.000 A 
ATOM     15  C   UNL     1       2.363   8.266  17.794  0.00  0.00    +0.000 A 
ATOM     16  C   UNL     1       1.500   9.311  18.094  0.00  0.00    +0.000 A 
ATOM     17  C   UNL     1       0.942   9.442  19.378  0.00  0.00    +0.000 A 
ATOM     18  H   UNL     1       1.330   8.143  22.427  0.00  0.00    +0.000 HD
ENDBRANCH   1  14
BRANCH   3  19
ATOM     19  C   UNL     1       4.978   4.296  19.048  0.00  0.00    +0.000 C 
BRANCH  19  20
ATOM     20  C   UNL     1       4.642   3.614  17.726  0.00  0.00    +0.000 C 
BRANCH  20  21
ATOM     21  C   UNL     1       3.617   2.501  17.931  0.00  0.00    +0.000 C 
BRANCH  21  22
ATOM     22  C   UNL     1       2.244   2.890  17.392  0.00  0.00    +0.000 C 
BRANCH  22  23
ATOM     23  C   UNL     1       1.187   2.721  18.481  0.00  0.00    +0.000 C 
BRANCH  23  24
ATOM     24  C   UNL     1       1.775   2.142  19.766  0.00  0.00    +0.000 C 
BRANCH  24  25
ATOM     25  C   UNL     1       1.360   2.947  20.980  0.00  0.00    +0.000 C 
ATOM     26  N   UNL     1       0.832   4.170  20.700  0.00  0.00    +0.000 N 
ATOM     27  O   UNL     1       1.469   2.567  22.144  0.00  0.00    +0.000 OA
ATOM     28  H   UNL     1       0.702   4.532  19.769  0.00  0.00    +0.000 HD
ATOM     29  H   UNL     1       0.539   4.741  21.495  0.00  0.00    +0.000 HD
ENDBRANCH  24  25
ENDBRANCH  23  24
ENDBRANCH  22  23
ENDBRANCH  21  22
ENDBRANCH  20  21
ENDBRANCH  19  20
ENDBRANCH   3  19
TORSDOF 8
ENDMDL
MODEL 4
REMARK VINA RESULT:      -7.3      1.806      3.407
REMARK  Name = 
REMARK  10 active torsions:
REMARK  status: ('A' for Active; 'I' for Inactive)
REMARK    1  A    between atoms: C_1  and  C_2
REMARK    2  A    between atoms: C_2  and  C_3
REMARK    3  A    between atoms: C_10  and  C_11
REMARK    4  A    between atoms: N_13  and  C_14
REMARK    5  A    between atoms: C_14  and  C_15
REMARK    6  A    between atoms: C_15  and  C_16
REMARK    7  A    between atoms: C_16  and  C_17
REMARK    8  A    between atoms: C_17  and  C_18
REMARK    9  A    between atoms: C_18  and  C_19
REMARK   10  A    between atoms: C_19  and  C_20
REMARK                            x       y       z     vdW  Elec       q    Type
REMARK                         _______ _______ _______ _____ _____    ______ ____
ROOT
ATOM      1  C   UNL     1       2.979   5.996  19.310  0.00  0.00    +0.000 C 
ATOM      2  O   UNL     1       4.146   5.924  19.689  0.00  0.00    +0.000 OA
ATOM      3  N   UNL     1       2.307   4.947  18.729  0.00  0.00    +0.000 N 
ATOM      4  H   UNL     1       1.311   5.008  18.565  0.00  0.00    +0.000 HD
ENDROOT
BRANCH   1  14
ATOM      5  C   UNL     1       1.119  12.163  20.099  0.00  0.00    +0.000 C 
ATOM      6  C   UNL     1       0.093  11.034  19.877  0.00  0.00    +0.000 C 
ATOM      7  C   UNL     1      -0.737  11.339  18.610  0.00  0.00    +0.000 C 
ATOM      8  C   UNL     1      -0.883  10.999  21.064  0.00  0.00    +0.000 C 
ATOM      9  C   UNL     1      -0.271  10.354  22.278  0.00  0.00    +0.000 C 
ATOM     10  O   UNL     1      -0.344  10.831  23.406  0.00  0.00    +0.000 OA
ATOM     11  N   UNL     1       0.298   9.130  22.044  0.00  0.00    +0.000 N 
ATOM     12  C   UNL     1       0.857   8.784  20.807  0.00  0.00    +0.000 A 
ATOM     13  C   UNL     1       1.542   7.565  20.697  0.00  0.00    +0.000 A 
ATOM     14  C   UNL     1       2.221   7.260  19.513  0.00  0.00    +0.000 A 
ATOM     15  C   UNL     1       2.206   8.170  18.452  0.00  0.00    +0.000 A 
ATOM     16  C   UNL     1       1.524   9.374  18.565  0.00  0.00    +0.000 A 
ATOM     17  C   UNL     1       0.821   9.698  19.739  0.00  0.00    +0.000 A 
ATOM     18  H   UNL     1       0.508   8.579  22.866  0.00  0.00    +0.000 HD
ENDBRANCH   1  14
BRANCH   3  19
ATOM     19  C   UNL     1       2.957   3.666  18.531  0.00  0.00    +0.000 C 
BRANCH  19  20
ATOM     20  C   UNL     1       3.492   3.530  17.109  0.00  0.00    +0.000 C 
BRANCH  20  21
ATOM     21  C   UNL     1       4.982   3.862  17.053  0.00  0.00    +0.000 C 
BRANCH  21  22
ATOM     22  C   UNL     1       5.236   5.210  16.384  0.00  0.00    +0.000 C 
BRANCH  22  23
ATOM     23  C   UNL     1       6.582   5.773  16.835  0.00  0.00    +0.000 C 
BRANCH  23  24
ATOM     24  C   UNL     1       7.234   4.908  17.913  0.00  0.00    +0.000 C 
BRANCH  24  25
ATOM     25  C   UNL     1       7.688   5.739  19.094  0.00  0.00    +0.000 C 
ATOM     26  N   UNL     1       8.213   6.952  18.770  0.00  0.00    +0.000 N 
ATOM     27  O   UNL     1       7.605   5.391  20.270  0.00  0.00    +0.000 OA
ATOM     28  H   UNL     1       8.294   7.302  17.828  0.00  0.00    +0.000 HD
ATOM     29  H   UNL     1       8.528   7.542  19.541  0.00  0.00    +0.000 HD
ENDBRANCH  24  25
ENDBRANCH  23  24
ENDBRANCH  22  23
ENDBRANCH  21  22
ENDBRANCH  20  21
ENDBRANCH  19  20
ENDBRANCH   3  19
TORSDOF 8
ENDMDL
MODEL 5
REMARK VINA RESULT:      -7.2      3.841      5.584
REMARK  Name = 
REMARK  10 active torsions:
REMARK  status: ('A' for Active; 'I' for Inactive)
REMARK    1  A    between atoms: C_1  and  C_2
REMARK    2  A    between atoms: C_2  and  C_3
REMARK    3  A    between atoms: C_10  and  C_11
REMARK    4  A    between atoms: N_13  and  C_14
REMARK    5  A    between atoms: C_14  and  C_15
REMARK    6  A    between atoms: C_15  and  C_16
REMARK    7  A    between atoms: C_16  and  C_17
REMARK    8  A    between atoms: C_17  and  C_18
REMARK    9  A    between atoms: C_18  and  C_19
REMARK   10  A    between atoms: C_19  and  C_20
REMARK                            x       y       z     vdW  Elec       q    Type
REMARK                         _______ _______ _______ _____ _____    ______ ____
ROOT
ATOM      1  C   UNL     1       3.524   6.287  17.900  0.00  0.00    +0.000 C 
ATOM      2  O   UNL     1       3.063   5.157  17.748  0.00  0.00    +0.000 OA
ATOM      3  N   UNL     1       4.778   6.654  17.475  0.00  0.00    +0.000 N 
ATOM      4  H   UNL     1       5.058   7.626  17.493  0.00  0.00    +0.000 HD
ENDROOT
BRANCH   1  14
ATOM      5  C   UNL     1       1.156  11.779  20.417  0.00  0.00    +0.000 C 
ATOM      6  C   UNL     1       0.257  10.548  20.180  0.00  0.00    +0.000 C 
ATOM      7  C   UNL     1      -0.894  10.932  19.224  0.00  0.00    +0.000 C 
ATOM      8  C   UNL     1      -0.379  10.124  21.514  0.00  0.00    +0.000 C 
ATOM      9  C   UNL     1       0.594   9.385  22.392  0.00  0.00    +0.000 C 
ATOM     10  O   UNL     1       0.745   9.625  23.586  0.00  0.00    +0.000 OA
ATOM     11  N   UNL     1       1.236   8.343  21.775  0.00  0.00    +0.000 N 
ATOM     12  C   UNL     1       1.508   8.335  20.401  0.00  0.00    +0.000 A 
ATOM     13  C   UNL     1       2.292   7.296  19.878  0.00  0.00    +0.000 A 
ATOM     14  C   UNL     1       2.687   7.339  18.537  0.00  0.00    +0.000 A 
ATOM     15  C   UNL     1       2.293   8.411  17.733  0.00  0.00    +0.000 A 
ATOM     16  C   UNL     1       1.514   9.435  18.255  0.00  0.00    +0.000 A 
ATOM     17  C   UNL     1       1.091   9.409  19.595  0.00  0.00    +0.000 A 
ATOM     18  H   UNL     1       1.712   7.696  22.390  0.00  0.00    +0.000 HD
ENDBRANCH   1  14
BRANCH   3  19
ATOM     19  C   UNL     1       5.646   5.703  16.807  0.00  0.00    +0.000 C 
BRANCH  19  20
ATOM     20  C   UNL     1       7.087   6.197  16.773  0.00  0.00    +0.000 C 
BRANCH  20  21
ATOM     21  C   UNL     1       7.389   7.081  17.982  0.00  0.00    +0.000 C 
BRANCH  21  22
ATOM     22  C   UNL     1       7.819   8.484  17.563  0.00  0.00    +0.000 C 
BRANCH  22  23
ATOM     23  C   UNL     1       8.722   9.096  18.632  0.00  0.00    +0.000 C 
BRANCH  23  24
ATOM     24  C   UNL     1       9.012  10.572  18.361  0.00  0.00    +0.000 C 
BRANCH  24  25
ATOM     25  C   UNL     1       9.851  11.185  19.462  0.00  0.00    +0.000 C 
ATOM     26  N   UNL     1      11.168  11.341  19.158  0.00  0.00    +0.000 N 
ATOM     27  O   UNL     1       9.420  11.534  20.560  0.00  0.00    +0.000 OA
ATOM     28  H   UNL     1      11.579  11.090  18.273  0.00  0.00    +0.000 HD
ATOM     29  H   UNL     1      11.764  11.754  19.876  0.00  0.00    +0.000 HD
ENDBRANCH  24  25
ENDBRANCH  23  24
ENDBRANCH  22  23
ENDBRANCH  21  22
ENDBRANCH  20  21
ENDBRANCH  19  20
ENDBRANCH   3  19
TORSDOF 8
ENDMDL
MODEL 6
REMARK VINA RESULT:      -7.2      2.430      4.008
REMARK  Name = 
REMARK  10 active torsions:
REMARK  status: ('A' for Active; 'I' for Inactive)
REMARK    1  A    between atoms: C_1  and  C_2
REMARK    2  A    between atoms: C_2  and  C_3
REMARK    3  A    between atoms: C_10  and  C_11
REMARK    4  A    between atoms: N_13  and  C_14
REMARK    5  A    between atoms: C_14  and  C_15
REMARK    6  A    between atoms: C_15  and  C_16
REMARK    7  A    between atoms: C_16  and  C_17
REMARK    8  A    between atoms: C_17  and  C_18
REMARK    9  A    between atoms: C_18  and  C_19
REMARK   10  A    between atoms: C_19  and  C_20
REMARK                            x       y       z     vdW  Elec       q    Type
REMARK                         _______ _______ _______ _____ _____    ______ ____
ROOT
ATOM      1  C   UNL     1       3.220   6.701  17.981  0.00  0.00    +0.000 C 
ATOM      2  O   UNL     1       3.939   7.032  17.041  0.00  0.00    +0.000 OA
ATOM      3  N   UNL     1       3.159   5.419  18.472  0.00  0.00    +0.000 N 
ATOM      4  H   UNL     1       2.665   5.224  19.332  0.00  0.00    +0.000 HD
ENDROOT
BRANCH   1  14
ATOM      5  C   UNL     1       0.912  12.082  20.779  0.00  0.00    +0.000 C 
ATOM      6  C   UNL     1      -0.004  10.885  20.457  0.00  0.00    +0.000 C 
ATOM      7  C   UNL     1      -1.133  11.345  19.508  0.00  0.00    +0.000 C 
ATOM      8  C   UNL     1      -0.670  10.397  21.754  0.00  0.00    +0.000 C 
ATOM      9  C   UNL     1       0.275   9.589  22.603  0.00  0.00    +0.000 C 
ATOM     10  O   UNL     1       0.411   9.757  23.810  0.00  0.00    +0.000 OA
ATOM     11  N   UNL     1       0.908   8.573  21.936  0.00  0.00    +0.000 N 
ATOM     12  C   UNL     1       1.201   8.639  20.567  0.00  0.00    +0.000 A 
ATOM     13  C   UNL     1       1.975   7.618  19.996  0.00  0.00    +0.000 A 
ATOM     14  C   UNL     1       2.392   7.730  18.667  0.00  0.00    +0.000 A 
ATOM     15  C   UNL     1       2.031   8.855  17.920  0.00  0.00    +0.000 A 
ATOM     16  C   UNL     1       1.262   9.862  18.489  0.00  0.00    +0.000 A 
ATOM     17  C   UNL     1       0.817   9.766  19.819  0.00  0.00    +0.000 A 
ATOM     18  H   UNL     1       1.363   7.882  22.519  0.00  0.00    +0.000 HD
ENDBRANCH   1  14
BRANCH   3  19
ATOM     19  C   UNL     1       3.965   4.361  17.890  0.00  0.00    +0.000 C 
BRANCH  19  20
ATOM     20  C   UNL     1       5.134   3.994  18.796  0.00  0.00    +0.000 C 
BRANCH  20  21
ATOM     21  C   UNL     1       5.882   5.244  19.255  0.00  0.00    +0.000 C 
BRANCH  21  22
ATOM     22  C   UNL     1       7.291   5.306  18.673  0.00  0.00    +0.000 C 
BRANCH  22  23
ATOM     23  C   UNL     1       7.244   5.830  17.240  0.00  0.00    +0.000 C 
BRANCH  23  24
ATOM     24  C   UNL     1       7.415   4.710  16.214  0.00  0.00    +0.000 C 
BRANCH  24  25
ATOM     25  C   UNL     1       6.365   4.790  15.125  0.00  0.00    +0.000 C 
ATOM     26  N   UNL     1       5.686   5.968  15.071  0.00  0.00    +0.000 N 
ATOM     27  O   UNL     1       6.113   3.889  14.327  0.00  0.00    +0.000 OA
ATOM     28  H   UNL     1       5.855   6.749  15.685  0.00  0.00    +0.000 HD
ATOM     29  H   UNL     1       4.972   6.059  14.348  0.00  0.00    +0.000 HD
ENDBRANCH  24  25
ENDBRANCH  23  24
ENDBRANCH  22  23
ENDBRANCH  21  22
ENDBRANCH  20  21
ENDBRANCH  19  20
ENDBRANCH   3  19
TORSDOF 8
ENDMDL
MODEL 7
REMARK VINA RESULT:      -7.2      1.720      3.376
REMARK  Name = 
REMARK  10 active torsions:
REMARK  status: ('A' for Active; 'I' for Inactive)
REMARK    1  A    between atoms: C_1  and  C_2
REMARK    2  A    between atoms: C_2  and  C_3
REMARK    3  A    between atoms: C_10  and  C_11
REMARK    4  A    between atoms: N_13  and  C_14
REMARK    5  A    between atoms: C_14  and  C_15
REMARK    6  A    between atoms: C_15  and  C_16
REMARK    7  A    between atoms: C_16  and  C_17
REMARK    8  A    between atoms: C_17  and  C_18
REMARK    9  A    between atoms: C_18  and  C_19
REMARK   10  A    between atoms: C_19  and  C_20
REMARK                            x       y       z     vdW  Elec       q    Type
REMARK                         _______ _______ _______ _____ _____    ______ ____
ROOT
ATOM      1  C   UNL     1       2.814   5.837  19.671  0.00  0.00    +0.000 C 
ATOM      2  O   UNL     1       4.042   5.809  19.720  0.00  0.00    +0.000 OA
ATOM      3  N   UNL     1       2.035   4.708  19.581  0.00  0.00    +0.000 N 
ATOM      4  H   UNL     1       1.032   4.771  19.687  0.00  0.00    +0.000 HD
ENDROOT
BRANCH   1  14
ATOM      5  C   UNL     1       1.216  12.121  19.923  0.00  0.00    +0.000 C 
ATOM      6  C   UNL     1       0.147  11.024  19.748  0.00  0.00    +0.000 C 
ATOM      7  C   UNL     1      -0.624  11.267  18.431  0.00  0.00    +0.000 C 
ATOM      8  C   UNL     1      -0.870  11.123  20.897  0.00  0.00    +0.000 C 
ATOM      9  C   UNL     1      -0.330  10.548  22.178  0.00  0.00    +0.000 C 
ATOM     10  O   UNL     1      -0.419  11.113  23.264  0.00  0.00    +0.000 OA
ATOM     11  N   UNL     1       0.189   9.285  22.058  0.00  0.00    +0.000 N 
ATOM     12  C   UNL     1       0.774   8.821  20.873  0.00  0.00    +0.000 A 
ATOM     13  C   UNL     1       1.405   7.569  20.880  0.00  0.00    +0.000 A 
ATOM     14  C   UNL     1       2.109   7.145  19.749  0.00  0.00    +0.000 A 
ATOM     15  C   UNL     1       2.173   7.970  18.623  0.00  0.00    +0.000 A 
ATOM     16  C   UNL     1       1.543   9.207  18.620  0.00  0.00    +0.000 A 
ATOM     17  C   UNL     1       0.816   9.651  19.738  0.00  0.00    +0.000 A 
ATOM     18  H   UNL     1       0.345   8.791  22.927  0.00  0.00    +0.000 HD
ENDBRANCH   1  14
BRANCH   3  19
ATOM     19  C   UNL     1       2.639   3.389  19.541  0.00  0.00    +0.000 C 
BRANCH  19  20
ATOM     20  C   UNL     1       2.147   2.592  18.338  0.00  0.00    +0.000 C 
BRANCH  20  21
ATOM     21  C   UNL     1       2.835   3.057  17.057  0.00  0.00    +0.000 C 
BRANCH  21  22
ATOM     22  C   UNL     1       4.307   3.382  17.292  0.00  0.00    +0.000 C 
BRANCH  22  23
ATOM     23  C   UNL     1       4.739   4.539  16.392  0.00  0.00    +0.000 C 
BRANCH  23  24
ATOM     24  C   UNL     1       5.839   5.384  17.033  0.00  0.00    +0.000 C 
BRANCH  24  25
ATOM     25  C   UNL     1       7.200   4.743  16.866  0.00  0.00    +0.000 C 
ATOM     26  N   UNL     1       7.751   4.265  18.015  0.00  0.00    +0.000 N 
ATOM     27  O   UNL     1       7.798   4.636  15.797  0.00  0.00    +0.000 OA
ATOM     28  H   UNL     1       7.306   4.307  18.918  0.00  0.00    +0.000 HD
ATOM     29  H   UNL     1       8.669   3.823  17.940  0.00  0.00    +0.000 HD
ENDBRANCH  24  25
ENDBRANCH  23  24
ENDBRANCH  22  23
ENDBRANCH  21  22
ENDBRANCH  20  21
ENDBRANCH  19  20
ENDBRANCH   3  19
TORSDOF 8
ENDMDL
MODEL 8
REMARK VINA RESULT:      -7.1      3.327      5.097
REMARK  Name = 
REMARK  10 active torsions:
REMARK  status: ('A' for Active; 'I' for Inactive)
REMARK    1  A    between atoms: C_1  and  C_2
REMARK    2  A    between atoms: C_2  and  C_3
REMARK    3  A    between atoms: C_10  and  C_11
REMARK    4  A    between atoms: N_13  and  C_14
REMARK    5  A    between atoms: C_14  and  C_15
REMARK    6  A    between atoms: C_15  and  C_16
REMARK    7  A    between atoms: C_16  and  C_17
REMARK    8  A    between atoms: C_17  and  C_18
REMARK    9  A    between atoms: C_18  and  C_19
REMARK   10  A    between atoms: C_19  and  C_20
REMARK                            x       y       z     vdW  Elec       q    Type
REMARK                         _______ _______ _______ _____ _____    ______ ____
ROOT
ATOM      1  C   UNL     1       3.606   5.945  18.441  0.00  0.00    +0.000 C 
ATOM      2  O   UNL     1       3.312   5.273  17.455  0.00  0.00    +0.000 OA
ATOM      3  N   UNL     1       4.737   5.731  19.192  0.00  0.00    +0.000 N 
ATOM      4  H   UNL     1       5.010   6.395  19.904  0.00  0.00    +0.000 HD
ENDROOT
BRANCH   1  14
ATOM      5  C   UNL     1       1.113  11.745  19.941  0.00  0.00    +0.000 C 
ATOM      6  C   UNL     1       0.216  10.503  19.771  0.00  0.00    +0.000 C 
ATOM      7  C   UNL     1      -0.816  10.767  18.652  0.00  0.00    +0.000 C 
ATOM      8  C   UNL     1      -0.569  10.266  21.071  0.00  0.00    +0.000 C 
ATOM      9  C   UNL     1       0.286   9.640  22.140  0.00  0.00    +0.000 C 
ATOM     10  O   UNL     1       0.313  10.036  23.301  0.00  0.00    +0.000 OA
ATOM     11  N   UNL     1       0.965   8.520  21.739  0.00  0.00    +0.000 N 
ATOM     12  C   UNL     1       1.383   8.326  20.415  0.00  0.00    +0.000 A 
ATOM     13  C   UNL     1       2.193   7.221  20.122  0.00  0.00    +0.000 A 
ATOM     14  C   UNL     1       2.731   7.081  18.839  0.00  0.00    +0.000 A 
ATOM     15  C   UNL     1       2.451   8.041  17.862  0.00  0.00    +0.000 A 
ATOM     16  C   UNL     1       1.645   9.132  18.157  0.00  0.00    +0.000 A 
ATOM     17  C   UNL     1       1.080   9.288  19.435  0.00  0.00    +0.000 A 
ATOM     18  H   UNL     1       1.358   7.956  22.482  0.00  0.00    +0.000 HD
ENDBRANCH   1  14
BRANCH   3  19
ATOM     19  C   UNL     1       5.668   4.672  18.850  0.00  0.00    +0.000 C 
BRANCH  19  20
ATOM     20  C   UNL     1       7.077   5.217  18.647  0.00  0.00    +0.000 C 
BRANCH  20  21
ATOM     21  C   UNL     1       7.223   5.851  17.265  0.00  0.00    +0.000 C 
BRANCH  21  22
ATOM     22  C   UNL     1       6.955   7.352  17.300  0.00  0.00    +0.000 C 
BRANCH  22  23
ATOM     23  C   UNL     1       8.109   8.075  17.990  0.00  0.00    +0.000 C 
BRANCH  23  24
ATOM     24  C   UNL     1       8.039   9.589  17.791  0.00  0.00    +0.000 C 
BRANCH  24  25
ATOM     25  C   UNL     1       9.202  10.292  18.460  0.00  0.00    +0.000 C 
ATOM     26  N   UNL     1       9.364   9.999  19.779  0.00  0.00    +0.000 N 
ATOM     27  O   UNL     1       9.968  11.071  17.896  0.00  0.00    +0.000 OA
ATOM     28  H   UNL     1       8.780   9.358  20.294  0.00  0.00    +0.000 HD
ATOM     29  H   UNL     1      10.139  10.453  20.263  0.00  0.00    +0.000 HD
ENDBRANCH  24  25
ENDBRANCH  23  24
ENDBRANCH  22  23
ENDBRANCH  21  22
ENDBRANCH  20  21
ENDBRANCH  19  20
ENDBRANCH   3  19
TORSDOF 8
ENDMDL
MODEL 9
REMARK VINA RESULT:      -7.1      2.999      4.857
REMARK  Name = 
REMARK  10 active torsions:
REMARK  status: ('A' for Active; 'I' for Inactive)
REMARK    1  A    between atoms: C_1  and  C_2
REMARK    2  A    between atoms: C_2  and  C_3
REMARK    3  A    between atoms: C_10  and  C_11
REMARK    4  A    between atoms: N_13  and  C_14
REMARK    5  A    between atoms: C_14  and  C_15
REMARK    6  A    between atoms: C_15  and  C_16
REMARK    7  A    between atoms: C_16  and  C_17
REMARK    8  A    between atoms: C_17  and  C_18
REMARK    9  A    between atoms: C_18  and  C_19
REMARK   10  A    between atoms: C_19  and  C_20
REMARK                            x       y       z     vdW  Elec       q    Type
REMARK                         _______ _______ _______ _____ _____    ______ ____
ROOT
ATOM      1  C   UNL     1       3.401   5.825  18.825  0.00  0.00    +0.000 C 
ATOM      2  O   UNL     1       2.920   4.713  19.032  0.00  0.00    +0.000 OA
ATOM      3  N   UNL     1       4.662   6.020  18.314  0.00  0.00    +0.000 N 
ATOM      4  H   UNL     1       4.959   6.943  18.028  0.00  0.00    +0.000 HD
ENDROOT
BRANCH   1  14
ATOM      5  C   UNL     1       1.221  11.861  19.787  0.00  0.00    +0.000 C 
ATOM      6  C   UNL     1       0.254  10.667  19.649  0.00  0.00    +0.000 C 
ATOM      7  C   UNL     1      -0.698  10.915  18.458  0.00  0.00    +0.000 C 
ATOM      8  C   UNL     1      -0.613  10.573  20.915  0.00  0.00    +0.000 C 
ATOM      9  C   UNL     1       0.141   9.972  22.071  0.00  0.00    +0.000 C 
ATOM     10  O   UNL     1       0.134  10.447  23.203  0.00  0.00    +0.000 OA
ATOM     11  N   UNL     1       0.765   8.787  21.786  0.00  0.00    +0.000 N 
ATOM     12  C   UNL     1       1.238   8.474  20.505  0.00  0.00    +0.000 A 
ATOM     13  C   UNL     1       1.988   7.302  20.333  0.00  0.00    +0.000 A 
ATOM     14  C   UNL     1       2.582   7.038  19.095  0.00  0.00    +0.000 A 
ATOM     15  C   UNL     1       2.419   7.942  18.042  0.00  0.00    +0.000 A 
ATOM     16  C   UNL     1       1.672   9.099  18.216  0.00  0.00    +0.000 A 
ATOM     17  C   UNL     1       1.052   9.380  19.446  0.00  0.00    +0.000 A 
ATOM     18  H   UNL     1       1.080   8.253  22.586  0.00  0.00    +0.000 HD
ENDBRANCH   1  14
BRANCH   3  19
ATOM     19  C   UNL     1       5.512   4.892  17.983  0.00  0.00    +0.000 C 
BRANCH  19  20
ATOM     20  C   UNL     1       6.694   5.324  17.122  0.00  0.00    +0.000 C 
BRANCH  20  21
ATOM     21  C   UNL     1       6.959   4.310  16.011  0.00  0.00    +0.000 C 
BRANCH  21  22
ATOM     22  C   UNL     1       6.686   4.899  14.631  0.00  0.00    +0.000 C 
BRANCH  22  23
ATOM     23  C   UNL     1       5.785   3.962  13.829  0.00  0.00    +0.000 C 
BRANCH  23  24
ATOM     24  C   UNL     1       6.405   3.580  12.486  0.00  0.00    +0.000 C 
BRANCH  24  25
ATOM     25  C   UNL     1       5.498   2.659  11.697  0.00  0.00    +0.000 C 
ATOM     26  N   UNL     1       4.273   3.175  11.406  0.00  0.00    +0.000 N 
ATOM     27  O   UNL     1       5.802   1.528  11.324  0.00  0.00    +0.000 OA
ATOM     28  H   UNL     1       3.969   4.099  11.669  0.00  0.00    +0.000 HD
ATOM     29  H   UNL     1       3.635   2.582  10.873  0.00  0.00    +0.000 HD
ENDBRANCH  24  25
ENDBRANCH  23  24
ENDBRANCH  22  23
ENDBRANCH  21  22
ENDBRANCH  20  21
ENDBRANCH  19  20
ENDBRANCH   3  19
TORSDOF 8
ENDMDL
