MODEL 1
REMARK VINA RESULT:      -7.1      0.000      0.000
REMARK  Name = 
REMARK  6 active torsions:
REMARK  status: ('A' for Active; 'I' for Inactive)
REMARK    1  A    between atoms: C_1  and  N_2
REMARK    2  A    between atoms: N_2  and  C_3
REMARK    3  A    between atoms: N_2  and  C_4
REMARK    4  A    between atoms: C_7  and  N_8
REMARK    5  A    between atoms: C_11  and  C_12
REMARK    6  A    between atoms: N_19  and  C_20
REMARK                            x       y       z     vdW  Elec       q    Type
REMARK                         _______ _______ _______ _____ _____    ______ ____
ROOT
ATOM      1  N   UNL     1       1.567   7.031  20.709  0.00  0.00    +0.000 NA
ATOM      2  C   UNL     1       2.341   6.176  20.140  0.00  0.00    +0.000 A 
ATOM      3  N   UNL     1       3.189   6.317  19.057  0.00  0.00    +0.000 NA
ATOM      4  C   UNL     1       3.735   5.148  18.784  0.00  0.00    +0.000 A 
ATOM      5  N   UNL     1       3.374   4.055  19.579  0.00  0.00    +0.000 N 
ATOM      6  C   UNL     1       3.949   2.735  19.682  0.00  0.00    +0.000 C 
ATOM      7  S   UNL     1       2.324   4.533  20.791  0.00  0.00    +0.000 S 
ENDROOT
BRANCH   4   8
ATOM      8  C   UNL     1       4.725   5.030  17.666  0.00  0.00    +0.000 A 
ATOM      9  C   UNL     1       4.441   4.223  16.555  0.00  0.00    +0.000 A 
ATOM     10  C   UNL     1       5.298   4.222  15.444  0.00  0.00    +0.000 A 
ATOM     11  C   UNL     1       6.437   5.027  15.446  0.00  0.00    +0.000 A 
ATOM     12 CL   UNL     1       7.451   5.089  14.058  0.00  0.00    +0.000 Cl
ATOM     13  C   UNL     1       6.755   5.794  16.564  0.00  0.00    +0.000 A 
ATOM     14  C   UNL     1       5.919   5.767  17.682  0.00  0.00    +0.000 A 
ENDBRANCH   4   8
BRANCH   1  18
ATOM     15  C   UNL     1       0.860  11.132  19.812  0.00  0.00    +0.000 A 
ATOM     16  C   UNL     1       0.812  10.596  21.105  0.00  0.00    +0.000 A 
ATOM     17  C   UNL     1       1.034   9.236  21.348  0.00  0.00    +0.000 A 
ATOM     18  C   UNL     1       1.327   8.342  20.315  0.00  0.00    +0.000 A 
ATOM     19  C   UNL     1       1.442   8.856  19.031  0.00  0.00    +0.000 A 
ATOM     20  C   UNL     1       1.206  10.224  18.789  0.00  0.00    +0.000 A 
BRANCH  15  22
ATOM     21  C   UNL     1      -0.224  12.870  18.424  0.00  0.00    +0.000 C 
ATOM     22  N   UNL     1       0.609  12.482  19.560  0.00  0.00    +0.000 N 
ATOM     23  C   UNL     1       1.548  13.480  20.058  0.00  0.00    +0.000 C 
ENDBRANCH  15  22
ENDBRANCH   1  18
TORSDOF 3
ENDMDL
MODEL 2
REMARK VINA RESULT:      -7.0      0.462      1.086
REMARK  Name = 
REMARK  6 active torsions:
REMARK  status: ('A' for Active; 'I' for Inactive)
REMARK    1  A    between atoms: C_1  and  N_2
REMARK    2  A    between atoms: N_2  and  C_3
REMARK    3  A    between atoms: N_2  and  C_4
REMARK    4  A    between atoms: C_7  and  N_8
REMARK    5  A    between atoms: C_11  and  C_12
REMARK    6  A    between atoms: N_19  and  C_20
REMARK                            x       y       z     vdW  Elec       q    Type
REMARK                         _______ _______ _______ _____ _____    ______ ____
ROOT
ATOM      1  N   UNL     1       1.570   7.104  20.784  0.00  0.00    +0.000 NA
ATOM      2  C   UNL     1       2.316   6.235  20.198  0.00  0.00    +0.000 A 
ATOM      3  N   UNL     1       3.168   6.369  19.117  0.00  0.00    +0.000 NA
ATOM      4  C   UNL     1       3.675   5.189  18.821  0.00  0.00    +0.000 A 
ATOM      5  N   UNL     1       3.279   4.093  19.596  0.00  0.00    +0.000 N 
ATOM      6  C   UNL     1       3.810   2.753  19.673  0.00  0.00    +0.000 C 
ATOM      7  S   UNL     1       2.245   4.582  20.817  0.00  0.00    +0.000 S 
ENDROOT
BRANCH   4   8
ATOM      8  C   UNL     1       4.661   5.061  17.701  0.00  0.00    +0.000 A 
ATOM      9  C   UNL     1       4.376   4.237  16.602  0.00  0.00    +0.000 A 
ATOM     10  C   UNL     1       5.229   4.225  15.488  0.00  0.00    +0.000 A 
ATOM     11  C   UNL     1       6.364   5.035  15.474  0.00  0.00    +0.000 A 
ATOM     12 CL   UNL     1       7.372   5.083  14.081  0.00  0.00    +0.000 Cl
ATOM     13  C   UNL     1       6.683   5.818  16.581  0.00  0.00    +0.000 A 
ATOM     14  C   UNL     1       5.852   5.803  17.702  0.00  0.00    +0.000 A 
ENDBRANCH   4   8
BRANCH   1  18
ATOM     15  C   UNL     1       0.970  11.066  19.346  0.00  0.00    +0.000 A 
ATOM     16  C   UNL     1       1.374   9.995  18.539  0.00  0.00    +0.000 A 
ATOM     17  C   UNL     1       1.576   8.714  19.062  0.00  0.00    +0.000 A 
ATOM     18  C   UNL     1       1.373   8.430  20.415  0.00  0.00    +0.000 A 
ATOM     19  C   UNL     1       0.913   9.457  21.226  0.00  0.00    +0.000 A 
ATOM     20  C   UNL     1       0.722  10.750  20.698  0.00  0.00    +0.000 A 
BRANCH  15  22
ATOM     21  C   UNL     1      -0.514  12.778  18.351  0.00  0.00    +0.000 C 
ATOM     22  N   UNL     1       0.797  12.354  18.836  0.00  0.00    +0.000 N 
ATOM     23  C   UNL     1       1.955  13.064  18.306  0.00  0.00    +0.000 C 
ENDBRANCH  15  22
ENDBRANCH   1  18
TORSDOF 3
ENDMDL
MODEL 3
REMARK VINA RESULT:      -6.9      0.654      1.040
REMARK  Name = 
REMARK  6 active torsions:
REMARK  status: ('A' for Active; 'I' for Inactive)
REMARK    1  A    between atoms: C_1  and  N_2
REMARK    2  A    between atoms: N_2  and  C_3
REMARK    3  A    between atoms: N_2  and  C_4
REMARK    4  A    between atoms: C_7  and  N_8
REMARK    5  A    between atoms: C_11  and  C_12
REMARK    6  A    between atoms: N_19  and  C_20
REMARK                            x       y       z     vdW  Elec       q    Type
REMARK                         _______ _______ _______ _____ _____    ______ ____
ROOT
ATOM      1  N   UNL     1       1.467   7.306  20.827  0.00  0.00    +0.000 NA
ATOM      2  C   UNL     1       2.148   6.439  20.163  0.00  0.00    +0.000 A 
ATOM      3  N   UNL     1       2.826   6.560  18.964  0.00  0.00    +0.000 NA
ATOM      4  C   UNL     1       3.326   5.385  18.634  0.00  0.00    +0.000 A 
ATOM      5  N   UNL     1       3.088   4.307  19.493  0.00  0.00    +0.000 N 
ATOM      6  C   UNL     1       3.671   2.987  19.532  0.00  0.00    +0.000 C 
ATOM      7  S   UNL     1       2.228   4.808  20.838  0.00  0.00    +0.000 S 
ENDROOT
BRANCH   4   8
ATOM      8  C   UNL     1       4.140   5.246  17.384  0.00  0.00    +0.000 A 
ATOM      9  C   UNL     1       4.625   6.387  16.729  0.00  0.00    +0.000 A 
ATOM     10  C   UNL     1       5.505   6.258  15.643  0.00  0.00    +0.000 A 
ATOM     11  C   UNL     1       5.897   4.990  15.214  0.00  0.00    +0.000 A 
ATOM     12 CL   UNL     1       7.033   4.826  13.934  0.00  0.00    +0.000 Cl
ATOM     13  C   UNL     1       5.381   3.850  15.826  0.00  0.00    +0.000 A 
ATOM     14  C   UNL     1       4.479   3.980  16.883  0.00  0.00    +0.000 A 
ENDBRANCH   4   8
BRANCH   1  18
ATOM     15  C   UNL     1       0.571  11.382  19.984  0.00  0.00    +0.000 A 
ATOM     16  C   UNL     1       0.504  10.816  21.263  0.00  0.00    +0.000 A 
ATOM     17  C   UNL     1       0.791   9.465  21.487  0.00  0.00    +0.000 A 
ATOM     18  C   UNL     1       1.171   8.611  20.449  0.00  0.00    +0.000 A 
ATOM     19  C   UNL     1       1.306   9.158  19.182  0.00  0.00    +0.000 A 
ATOM     20  C   UNL     1       1.005  10.517  18.958  0.00  0.00    +0.000 A 
BRANCH  15  22
ATOM     21  C   UNL     1      -0.434  13.104  18.520  0.00  0.00    +0.000 C 
ATOM     22  N   UNL     1       0.256  12.721  19.750  0.00  0.00    +0.000 N 
ATOM     23  C   UNL     1       1.037  13.757  20.415  0.00  0.00    +0.000 C 
ENDBRANCH  15  22
ENDBRANCH   1  18
TORSDOF 3
ENDMDL
MODEL 4
REMARK VINA RESULT:      -6.8      4.477      8.970
REMARK  Name = 
REMARK  6 active torsions:
REMARK  status: ('A' for Active; 'I' for Inactive)
REMARK    1  A    between atoms: C_1  and  N_2
REMARK    2  A    between atoms: N_2  and  C_3
REMARK    3  A    between atoms: N_2  and  C_4
REMARK    4  A    between atoms: C_7  and  N_8
REMARK    5  A    between atoms: C_11  and  C_12
REMARK    6  A    between atoms: N_19  and  C_20
REMARK                            x       y       z     vdW  Elec       q    Type
REMARK                         _______ _______ _______ _____ _____    ______ ____
ROOT
ATOM      1  N   UNL     1       2.360   8.409  18.455  0.00  0.00    +0.000 NA
ATOM      2  C   UNL     1       1.754   9.471  18.854  0.00  0.00    +0.000 A 
ATOM      3  N   UNL     1       0.855   9.655  19.888  0.00  0.00    +0.000 NA
ATOM      4  C   UNL     1       0.442  10.907  19.881  0.00  0.00    +0.000 A 
ATOM      5  N   UNL     1       0.948  11.758  18.892  0.00  0.00    +0.000 N 
ATOM      6  C   UNL     1       0.874  13.193  18.757  0.00  0.00    +0.000 C 
ATOM      7  S   UNL     1       2.063  10.951  17.940  0.00  0.00    +0.000 S 
ENDROOT
BRANCH   4   8
ATOM      8  C   UNL     1      -0.520  11.381  20.927  0.00  0.00    +0.000 A 
ATOM      9  C   UNL     1      -1.609  12.188  20.568  0.00  0.00    +0.000 A 
ATOM     10  C   UNL     1      -2.590  12.515  21.517  0.00  0.00    +0.000 A 
ATOM     11  C   UNL     1      -2.480  12.034  22.822  0.00  0.00    +0.000 A 
ATOM     12 CL   UNL     1      -3.716  12.367  23.970  0.00  0.00    +0.000 Cl
ATOM     13  C   UNL     1      -1.376  11.274  23.201  0.00  0.00    +0.000 A 
ATOM     14  C   UNL     1      -0.384  10.979  22.264  0.00  0.00    +0.000 A 
ENDBRANCH   4   8
BRANCH   1  18
ATOM     15  C   UNL     1       1.983   4.342  19.656  0.00  0.00    +0.000 A 
ATOM     16  C   UNL     1       2.212   4.748  18.335  0.00  0.00    +0.000 A 
ATOM     17  C   UNL     1       2.310   6.099  17.986  0.00  0.00    +0.000 A 
ATOM     18  C   UNL     1       2.198   7.115  18.939  0.00  0.00    +0.000 A 
ATOM     19  C   UNL     1       2.031   6.741  20.264  0.00  0.00    +0.000 A 
ATOM     20  C   UNL     1       1.922   5.379  20.610  0.00  0.00    +0.000 A 
BRANCH  15  22
ATOM     21  C   UNL     1       1.394   2.026  19.014  0.00  0.00    +0.000 C 
ATOM     22  N   UNL     1       1.853   2.997  20.005  0.00  0.00    +0.000 N 
ATOM     23  C   UNL     1       1.657   2.647  21.407  0.00  0.00    +0.000 C 
ENDBRANCH  15  22
ENDBRANCH   1  18
TORSDOF 3
ENDMDL
MODEL 5
REMARK VINA RESULT:      -6.8      4.487      9.058
REMARK  Name = 
REMARK  6 active torsions:
REMARK  status: ('A' for Active; 'I' for Inactive)
REMARK    1  A    between atoms: C_1  and  N_2
REMARK    2  A    between atoms: N_2  and  C_3
REMARK    3  A    between atoms: N_2  and  C_4
REMARK    4  A    between atoms: C_7  and  N_8
REMARK    5  A    between atoms: C_11  and  C_12
REMARK    6  A    between atoms: N_19  and  C_20
REMARK                            x       y       z     vdW  Elec       q    Type
REMARK                         _______ _______ _______ _____ _____    ______ ____
ROOT
ATOM      1  N   UNL     1       2.354   8.356  18.524  0.00  0.00    +0.000 NA
ATOM      2  C   UNL     1       1.701   9.405  18.883  0.00  0.00    +0.000 A 
ATOM      3  N   UNL     1       0.723   9.566  19.847  0.00  0.00    +0.000 NA
ATOM      4  C   UNL     1       0.291  10.812  19.816  0.00  0.00    +0.000 A 
ATOM      5  N   UNL     1       0.855  11.678  18.873  0.00  0.00    +0.000 N 
ATOM      6  C   UNL     1       0.767  13.112  18.741  0.00  0.00    +0.000 C 
ATOM      7  S   UNL     1       2.052  10.896  18.003  0.00  0.00    +0.000 S 
ENDROOT
BRANCH   4   8
ATOM      8  C   UNL     1      -0.755  11.262  20.789  0.00  0.00    +0.000 A 
ATOM      9  C   UNL     1      -0.621  10.968  22.154  0.00  0.00    +0.000 A 
ATOM     10  C   UNL     1      -1.521  11.509  23.085  0.00  0.00    +0.000 A 
ATOM     11  C   UNL     1      -2.553  12.342  22.650  0.00  0.00    +0.000 A 
ATOM     12 CL   UNL     1      -3.612  13.069  23.792  0.00  0.00    +0.000 Cl
ATOM     13  C   UNL     1      -2.724  12.599  21.292  0.00  0.00    +0.000 A 
ATOM     14  C   UNL     1      -1.849  12.031  20.364  0.00  0.00    +0.000 A 
ENDBRANCH   4   8
BRANCH   1  18
ATOM     15  C   UNL     1       1.942   4.275  19.663  0.00  0.00    +0.000 A 
ATOM     16  C   UNL     1       2.204   4.697  18.354  0.00  0.00    +0.000 A 
ATOM     17  C   UNL     1       2.313   6.053  18.025  0.00  0.00    +0.000 A 
ATOM     18  C   UNL     1       2.178   7.057  18.988  0.00  0.00    +0.000 A 
ATOM     19  C   UNL     1       1.979   6.665  20.303  0.00  0.00    +0.000 A 
ATOM     20  C   UNL     1       1.859   5.300  20.629  0.00  0.00    +0.000 A 
BRANCH  15  22
ATOM     21  C   UNL     1       1.694   2.522  21.392  0.00  0.00    +0.000 C 
ATOM     22  N   UNL     1       1.801   2.925  19.992  0.00  0.00    +0.000 N 
ATOM     23  C   UNL     1       2.276   1.917  19.051  0.00  0.00    +0.000 C 
ENDBRANCH  15  22
ENDBRANCH   1  18
TORSDOF 3
ENDMDL
MODEL 6
REMARK VINA RESULT:      -6.7      0.509      1.489
REMARK  Name = 
REMARK  6 active torsions:
REMARK  status: ('A' for Active; 'I' for Inactive)
REMARK    1  A    between atoms: C_1  and  N_2
REMARK    2  A    between atoms: N_2  and  C_3
REMARK    3  A    between atoms: N_2  and  C_4
REMARK    4  A    between atoms: C_7  and  N_8
REMARK    5  A    between atoms: C_11  and  C_12
REMARK    6  A    between atoms: N_19  and  C_20
REMARK                            x       y       z     vdW  Elec       q    Type
REMARK                         _______ _______ _______ _____ _____    ______ ____
ROOT
ATOM      1  N   UNL     1       1.423   7.372  20.916  0.00  0.00    +0.000 NA
ATOM      2  C   UNL     1       2.132   6.518  20.265  0.00  0.00    +0.000 A 
ATOM      3  N   UNL     1       2.922   6.680  19.141  0.00  0.00    +0.000 NA
ATOM      4  C   UNL     1       3.408   5.507  18.785  0.00  0.00    +0.000 A 
ATOM      5  N   UNL     1       3.053   4.391  19.551  0.00  0.00    +0.000 N 
ATOM      6  C   UNL     1       3.583   3.049  19.561  0.00  0.00    +0.000 C 
ATOM      7  S   UNL     1       2.091   4.849  20.842  0.00  0.00    +0.000 S 
ENDROOT
BRANCH   4   8
ATOM      8  C   UNL     1       4.329   5.408  17.608  0.00  0.00    +0.000 A 
ATOM      9  C   UNL     1       5.382   6.322  17.459  0.00  0.00    +0.000 A 
ATOM     10  C   UNL     1       6.330   6.147  16.439  0.00  0.00    +0.000 A 
ATOM     11  C   UNL     1       6.224   5.060  15.571  0.00  0.00    +0.000 A 
ATOM     12 CL   UNL     1       7.424   4.797  14.369  0.00  0.00    +0.000 Cl
ATOM     13  C   UNL     1       5.154   4.175  15.681  0.00  0.00    +0.000 A 
ATOM     14  C   UNL     1       4.193   4.370  16.674  0.00  0.00    +0.000 A 
ENDBRANCH   4   8
BRANCH   1  18
ATOM     15  C   UNL     1       0.733  11.369  19.624  0.00  0.00    +0.000 A 
ATOM     16  C   UNL     1       1.014  10.306  18.757  0.00  0.00    +0.000 A 
ATOM     17  C   UNL     1       1.252   9.011  19.232  0.00  0.00    +0.000 A 
ATOM     18  C   UNL     1       1.210   8.707  20.594  0.00  0.00    +0.000 A 
ATOM     19  C   UNL     1       0.874   9.728  21.472  0.00  0.00    +0.000 A 
ATOM     20  C   UNL     1       0.646  11.033  20.992  0.00  0.00    +0.000 A 
BRANCH  15  22
ATOM     21  C   UNL     1      -0.715  13.008  18.467  0.00  0.00    +0.000 C 
ATOM     22  N   UNL     1       0.526  12.669  19.160  0.00  0.00    +0.000 N 
ATOM     23  C   UNL     1       1.683  13.514  18.887  0.00  0.00    +0.000 C 
ENDBRANCH  15  22
ENDBRANCH   1  18
TORSDOF 3
ENDMDL
MODEL 7
REMARK VINA RESULT:      -6.6      4.494      8.873
REMARK  Name = 
REMARK  6 active torsions:
REMARK  status: ('A' for Active; 'I' for Inactive)
REMARK    1  A    between atoms: C_1  and  N_2
REMARK    2  A    between atoms: N_2  and  C_3
REMARK    3  A    between atoms: N_2  and  C_4
REMARK    4  A    between atoms: C_7  and  N_8
REMARK    5  A    between atoms: C_11  and  C_12
REMARK    6  A    between atoms: N_19  and  C_20
REMARK                            x       y       z     vdW  Elec       q    Type
REMARK                         _______ _______ _______ _____ _____    ______ ____
ROOT
ATOM      1  N   UNL     1       2.492   8.368  18.306  0.00  0.00    +0.000 NA
ATOM      2  C   UNL     1       1.850   9.389  18.754  0.00  0.00    +0.000 A 
ATOM      3  N   UNL     1       0.873   9.477  19.729  0.00  0.00    +0.000 NA
ATOM      4  C   UNL     1       0.454  10.724  19.805  0.00  0.00    +0.000 A 
ATOM      5  N   UNL     1       1.029  11.663  18.941  0.00  0.00    +0.000 N 
ATOM      6  C   UNL     1       0.956  13.104  18.934  0.00  0.00    +0.000 C 
ATOM      7  S   UNL     1       2.219  10.947  18.007  0.00  0.00    +0.000 S 
ENDROOT
BRANCH   4   8
ATOM      8  C   UNL     1      -0.589  11.100  20.813  0.00  0.00    +0.000 A 
ATOM      9  C   UNL     1      -0.478  10.658  22.139  0.00  0.00    +0.000 A 
ATOM     10  C   UNL     1      -1.372  11.123  23.116  0.00  0.00    +0.000 A 
ATOM     11  C   UNL     1      -2.373  12.029  22.766  0.00  0.00    +0.000 A 
ATOM     12 CL   UNL     1      -3.423  12.662  23.972  0.00  0.00    +0.000 Cl
ATOM     13  C   UNL     1      -2.522  12.435  21.442  0.00  0.00    +0.000 A 
ATOM     14  C   UNL     1      -1.654  11.944  20.465  0.00  0.00    +0.000 A 
ENDBRANCH   4   8
BRANCH   1  18
ATOM     15  C   UNL     1       1.833   4.390  19.671  0.00  0.00    +0.000 A 
ATOM     16  C   UNL     1       1.965   5.495  20.521  0.00  0.00    +0.000 A 
ATOM     17  C   UNL     1       2.200   6.782  20.025  0.00  0.00    +0.000 A 
ATOM     18  C   UNL     1       2.302   7.035  18.655  0.00  0.00    +0.000 A 
ATOM     19  C   UNL     1       2.114   5.970  17.787  0.00  0.00    +0.000 A 
ATOM     20  C   UNL     1       1.889   4.673  18.290  0.00  0.00    +0.000 A 
BRANCH  15  22
ATOM     21  C   UNL     1       1.674   2.848  21.600  0.00  0.00    +0.000 C 
ATOM     22  N   UNL     1       1.630   3.099  20.161  0.00  0.00    +0.000 N 
ATOM     23  C   UNL     1       1.898   1.962  19.287  0.00  0.00    +0.000 C 
ENDBRANCH  15  22
ENDBRANCH   1  18
TORSDOF 3
ENDMDL
MODEL 8
REMARK VINA RESULT:      -6.6      4.481      8.929
REMARK  Name = 
REMARK  6 active torsions:
REMARK  status: ('A' for Active; 'I' for Inactive)
REMARK    1  A    between atoms: C_1  and  N_2
REMARK    2  A    between atoms: N_2  and  C_3
REMARK    3  A    between atoms: N_2  and  C_4
REMARK    4  A    between atoms: C_7  and  N_8
REMARK    5  A    between atoms: C_11  and  C_12
REMARK    6  A    between atoms: N_19  and  C_20
REMARK                            x       y       z     vdW  Elec       q    Type
REMARK                         _______ _______ _______ _____ _____    ______ ____
ROOT
ATOM      1  N   UNL     1       2.115   9.440  19.274  0.00  0.00    +0.000 NA
ATOM      2  C   UNL     1       1.162  10.274  19.043  0.00  0.00    +0.000 A 
ATOM      3  N   UNL     1      -0.196  10.062  18.891  0.00  0.00    +0.000 NA
ATOM      4  C   UNL     1      -0.778  11.208  18.599  0.00  0.00    +0.000 A 
ATOM      5  N   UNL     1       0.029  12.346  18.495  0.00  0.00    +0.000 N 
ATOM      6  C   UNL     1      -0.319  13.745  18.419  0.00  0.00    +0.000 C 
ATOM      7  S   UNL     1       1.622  11.968  18.846  0.00  0.00    +0.000 S 
ENDROOT
BRANCH   4   8
ATOM      8  C   UNL     1      -2.264  11.264  18.413  0.00  0.00    +0.000 A 
ATOM      9  C   UNL     1      -2.881  10.470  17.436  0.00  0.00    +0.000 A 
ATOM     10  C   UNL     1      -4.281  10.411  17.355  0.00  0.00    +0.000 A 
ATOM     11  C   UNL     1      -5.060  11.145  18.250  0.00  0.00    +0.000 A 
ATOM     12 CL   UNL     1      -6.774  11.018  18.205  0.00  0.00    +0.000 Cl
ATOM     13  C   UNL     1      -4.456  11.975  19.191  0.00  0.00    +0.000 A 
ATOM     14  C   UNL     1      -3.063  12.060  19.247  0.00  0.00    +0.000 A 
ENDBRANCH   4   8
BRANCH   1  18
ATOM     15  C   UNL     1       1.996   5.185  19.259  0.00  0.00    +0.000 A 
ATOM     16  C   UNL     1       2.383   5.959  18.158  0.00  0.00    +0.000 A 
ATOM     17  C   UNL     1       2.388   7.357  18.206  0.00  0.00    +0.000 A 
ATOM     18  C   UNL     1       2.020   8.056  19.358  0.00  0.00    +0.000 A 
ATOM     19  C   UNL     1       1.690   7.314  20.484  0.00  0.00    +0.000 A 
ATOM     20  C   UNL     1       1.675   5.906  20.428  0.00  0.00    +0.000 A 
BRANCH  15  22
ATOM     21  C   UNL     1       2.337   3.094  17.980  0.00  0.00    +0.000 C 
ATOM     22  N   UNL     1       1.959   3.790  19.208  0.00  0.00    +0.000 N 
ATOM     23  C   UNL     1       1.082   3.073  20.127  0.00  0.00    +0.000 C 
ENDBRANCH  15  22
ENDBRANCH   1  18
TORSDOF 3
ENDMDL
MODEL 9
REMARK VINA RESULT:      -6.6      0.909      1.147
REMARK  Name = 
REMARK  6 active torsions:
REMARK  status: ('A' for Active; 'I' for Inactive)
REMARK    1  A    between atoms: C_1  and  N_2
REMARK    2  A    between atoms: N_2  and  C_3
REMARK    3  A    between atoms: N_2  and  C_4
REMARK    4  A    between atoms: C_7  and  N_8
REMARK    5  A    between atoms: C_11  and  C_12
REMARK    6  A    between atoms: N_19  and  C_20
REMARK                            x       y       z     vdW  Elec       q    Type
REMARK                         _______ _______ _______ _____ _____    ______ ____
ROOT
ATOM      1  N   UNL     1       1.328   6.891  21.094  0.00  0.00    +0.000 NA
ATOM      2  C   UNL     1       2.154   6.128  20.468  0.00  0.00    +0.000 A 
ATOM      3  N   UNL     1       3.040   6.415  19.446  0.00  0.00    +0.000 NA
ATOM      4  C   UNL     1       3.637   5.300  19.070  0.00  0.00    +0.000 A 
ATOM      5  N   UNL     1       3.282   4.115  19.723  0.00  0.00    +0.000 N 
ATOM      6  C   UNL     1       3.896   2.809  19.704  0.00  0.00    +0.000 C 
ATOM      7  S   UNL     1       2.166   4.424  20.932  0.00  0.00    +0.000 S 
ENDROOT
BRANCH   4   8
ATOM      8  C   UNL     1       4.675   5.338  17.992  0.00  0.00    +0.000 A 
ATOM      9  C   UNL     1       5.933   4.755  18.205  0.00  0.00    +0.000 A 
ATOM     10  C   UNL     1       6.856   4.662  17.152  0.00  0.00    +0.000 A 
ATOM     11  C   UNL     1       6.520   5.150  15.889  0.00  0.00    +0.000 A 
ATOM     12 CL   UNL     1       7.616   4.970  14.576  0.00  0.00    +0.000 Cl
ATOM     13  C   UNL     1       5.293   5.776  15.680  0.00  0.00    +0.000 A 
ATOM     14  C   UNL     1       4.391   5.899  16.738  0.00  0.00    +0.000 A 
ENDBRANCH   4   8
BRANCH   1  18
ATOM     15  C   UNL     1       0.520  11.044  20.624  0.00  0.00    +0.000 A 
ATOM     16  C   UNL     1       0.448  10.368  21.848  0.00  0.00    +0.000 A 
ATOM     17  C   UNL     1       0.705   8.996  21.949  0.00  0.00    +0.000 A 
ATOM     18  C   UNL     1       1.060   8.231  20.836  0.00  0.00    +0.000 A 
ATOM     19  C   UNL     1       1.200   8.886  19.621  0.00  0.00    +0.000 A 
ATOM     20  C   UNL     1       0.929  10.265  19.522  0.00  0.00    +0.000 A 
BRANCH  15  22
ATOM     21  C   UNL     1       0.724  13.163  19.362  0.00  0.00    +0.000 C 
ATOM     22  N   UNL     1       0.235  12.406  20.512  0.00  0.00    +0.000 N 
ATOM     23  C   UNL     1      -0.066  13.166  21.720  0.00  0.00    +0.000 C 
ENDBRANCH  15  22
ENDBRANCH   1  18
TORSDOF 3
ENDMDL
