MODEL 1
REMARK VINA RESULT:      -8.9      0.000      0.000
REMARK  Name = 
REMARK  3 active torsions:
REMARK  status: ('A' for Active; 'I' for Inactive)
REMARK    1  A    between atoms: C_1  and  C_2
REMARK    2  A    between atoms: C_5  and  C_6
REMARK    3  A    between atoms: C_9  and  C_10
REMARK                            x       y       z     vdW  Elec       q    Type
REMARK                         _______ _______ _______ _____ _____    ______ ____
ROOT
ATOM      1  C   UNL     1       1.183   8.724  19.973  0.00  0.00    +0.000 A 
ATOM      2  C   UNL     1       0.642   8.702  21.255  0.00  0.00    +0.000 A 
ATOM      3  C   UNL     1      -0.161   9.754  21.688  0.00  0.00    +0.000 A 
ATOM      4  C   UNL     1      -0.440  10.825  20.840  0.00  0.00    +0.000 A 
ATOM      5  N   UNL     1      -1.270  11.834  21.243  0.00  0.00    +0.000 N 
ATOM      6  C   UNL     1      -2.063  12.597  20.271  0.00  0.00    +0.000 C 
ATOM      7  C   UNL     1      -3.523  12.694  20.783  0.00  0.00    +0.000 C 
ATOM      8  N   UNL     1      -3.557  13.172  22.171  0.00  0.00    +0.000 N 
ATOM      9  C   UNL     1      -4.363  14.205  22.557  0.00  0.00    +0.000 A 
ATOM     10  N   UNL     1      -5.121  14.819  21.634  0.00  0.00    +0.000 NA
ATOM     11  C   UNL     1      -5.888  15.850  22.034  0.00  0.00    +0.000 A 
ATOM     12  C   UNL     1      -5.935  16.302  23.326  0.00  0.00    +0.000 A 
ATOM     13  C   UNL     1      -5.136  15.621  24.204  0.00  0.00    +0.000 A 
ATOM     14  N   UNL     1      -4.354  14.586  23.847  0.00  0.00    +0.000 NA
ATOM     15  C   UNL     1      -2.705  12.471  23.135  0.00  0.00    +0.000 C 
ATOM     16  C   UNL     1      -1.260  12.391  22.599  0.00  0.00    +0.000 C 
ATOM     17  N   UNL     1       0.063  10.846  19.586  0.00  0.00    +0.000 NA
ATOM     18  C   UNL     1       0.866   9.824  19.189  0.00  0.00    +0.000 A 
ENDROOT
BRANCH   1  22
ATOM     19  C   UNL     1       3.264   6.262  18.517  0.00  0.00    +0.000 A 
ATOM     20  N   UNL     1       3.046   5.682  19.709  0.00  0.00    +0.000 NA
ATOM     21  O   UNL     1       2.220   6.587  20.374  0.00  0.00    +0.000 OA
ATOM     22  C   UNL     1       2.017   7.629  19.518  0.00  0.00    +0.000 A 
ATOM     23  N   UNL     1       2.635   7.479  18.370  0.00  0.00    +0.000 NA
BRANCH  19  28
ATOM     24  C   UNL     1       6.399   4.007  14.215  0.00  0.00    +0.000 C 
ATOM     25  C   UNL     1       5.599   4.575  15.349  0.00  0.00    +0.000 A 
ATOM     26  C   UNL     1       4.881   3.744  16.216  0.00  0.00    +0.000 A 
ATOM     27  C   UNL     1       4.124   4.290  17.258  0.00  0.00    +0.000 A 
ATOM     28  C   UNL     1       4.070   5.678  17.450  0.00  0.00    +0.000 A 
ATOM     29  C   UNL     1       4.802   6.505  16.585  0.00  0.00    +0.000 A 
ATOM     30  C   UNL     1       5.559   5.959  15.545  0.00  0.00    +0.000 A 
ENDBRANCH  19  28
ENDBRANCH   1  22
TORSDOF 2
ENDMDL
MODEL 2
REMARK VINA RESULT:      -8.5      1.100      1.835
REMARK  Name = 
REMARK  3 active torsions:
REMARK  status: ('A' for Active; 'I' for Inactive)
REMARK    1  A    between atoms: C_1  and  C_2
REMARK    2  A    between atoms: C_5  and  C_6
REMARK    3  A    between atoms: C_9  and  C_10
REMARK                            x       y       z     vdW  Elec       q    Type
REMARK                         _______ _______ _______ _____ _____    ______ ____
ROOT
ATOM      1  C   UNL     1       1.274   8.556  20.009  0.00  0.00    +0.000 A 
ATOM      2  C   UNL     1       1.051   9.696  19.243  0.00  0.00    +0.000 A 
ATOM      3  C   UNL     1       0.216  10.702  19.723  0.00  0.00    +0.000 A 
ATOM      4  C   UNL     1      -0.387  10.583  20.973  0.00  0.00    +0.000 A 
ATOM      5  N   UNL     1      -1.166  11.592  21.468  0.00  0.00    +0.000 N 
ATOM      6  C   UNL     1      -1.296  11.807  22.915  0.00  0.00    +0.000 C 
ATOM      7  C   UNL     1      -1.099  13.316  23.216  0.00  0.00    +0.000 C 
ATOM      8  N   UNL     1      -1.959  14.135  22.354  0.00  0.00    +0.000 N 
ATOM      9  C   UNL     1      -2.761  15.117  22.863  0.00  0.00    +0.000 A 
ATOM     10  N   UNL     1      -2.785  15.315  24.191  0.00  0.00    +0.000 NA
ATOM     11  C   UNL     1      -3.601  16.272  24.670  0.00  0.00    +0.000 A 
ATOM     12  C   UNL     1      -4.404  17.048  23.879  0.00  0.00    +0.000 A 
ATOM     13  C   UNL     1      -4.319  16.785  22.538  0.00  0.00    +0.000 A 
ATOM     14  N   UNL     1      -3.517  15.839  22.017  0.00  0.00    +0.000 NA
ATOM     15  C   UNL     1      -1.900  13.872  20.914  0.00  0.00    +0.000 C 
ATOM     16  C   UNL     1      -2.101  12.366  20.646  0.00  0.00    +0.000 C 
ATOM     17  N   UNL     1      -0.161   9.490  21.734  0.00  0.00    +0.000 NA
ATOM     18  C   UNL     1       0.635   8.506  21.240  0.00  0.00    +0.000 A 
ENDROOT
BRANCH   1  22
ATOM     19  C   UNL     1       3.412   6.207  18.451  0.00  0.00    +0.000 A 
ATOM     20  N   UNL     1       3.304   5.631  19.661  0.00  0.00    +0.000 NA
ATOM     21  O   UNL     1       2.465   6.492  20.367  0.00  0.00    +0.000 OA
ATOM     22  C   UNL     1       2.145   7.508  19.515  0.00  0.00    +0.000 A 
ATOM     23  N   UNL     1       2.701   7.381  18.332  0.00  0.00    +0.000 NA
BRANCH  19  28
ATOM     24  C   UNL     1       6.414   4.092  13.988  0.00  0.00    +0.000 C 
ATOM     25  C   UNL     1       5.650   4.624  15.163  0.00  0.00    +0.000 A 
ATOM     26  C   UNL     1       5.034   3.762  16.076  0.00  0.00    +0.000 A 
ATOM     27  C   UNL     1       4.309   4.275  17.157  0.00  0.00    +0.000 A 
ATOM     28  C   UNL     1       4.186   5.659  17.343  0.00  0.00    +0.000 A 
ATOM     29  C   UNL     1       4.817   6.518  16.431  0.00  0.00    +0.000 A 
ATOM     30  C   UNL     1       5.542   6.006  15.351  0.00  0.00    +0.000 A 
ENDBRANCH  19  28
ENDBRANCH   1  22
TORSDOF 2
ENDMDL
MODEL 3
REMARK VINA RESULT:      -7.9      2.050      2.255
REMARK  Name = 
REMARK  3 active torsions:
REMARK  status: ('A' for Active; 'I' for Inactive)
REMARK    1  A    between atoms: C_1  and  C_2
REMARK    2  A    between atoms: C_5  and  C_6
REMARK    3  A    between atoms: C_9  and  C_10
REMARK                            x       y       z     vdW  Elec       q    Type
REMARK                         _______ _______ _______ _____ _____    ______ ____
ROOT
ATOM      1  C   UNL     1       0.894   9.729  19.629  0.00  0.00    +0.000 A 
ATOM      2  C   UNL     1       0.997  10.000  20.990  0.00  0.00    +0.000 A 
ATOM      3  C   UNL     1       0.244  11.029  21.551  0.00  0.00    +0.000 A 
ATOM      4  C   UNL     1      -0.624  11.781  20.761  0.00  0.00    +0.000 A 
ATOM      5  N   UNL     1      -1.402  12.757  21.319  0.00  0.00    +0.000 N 
ATOM      6  C   UNL     1      -2.698  13.120  20.731  0.00  0.00    +0.000 C 
ATOM      7  C   UNL     1      -3.759  13.183  21.860  0.00  0.00    +0.000 C 
ATOM      8  N   UNL     1      -3.289  14.021  22.970  0.00  0.00    +0.000 N 
ATOM      9  C   UNL     1      -4.060  15.018  23.497  0.00  0.00    +0.000 A 
ATOM     10  N   UNL     1      -5.268  15.258  22.961  0.00  0.00    +0.000 NA
ATOM     11  C   UNL     1      -5.999  16.261  23.481  0.00  0.00    +0.000 A 
ATOM     12  C   UNL     1      -5.576  17.046  24.521  0.00  0.00    +0.000 A 
ATOM     13  C   UNL     1      -4.336  16.735  25.009  0.00  0.00    +0.000 A 
ATOM     14  N   UNL     1      -3.572  15.742  24.520  0.00  0.00    +0.000 NA
ATOM     15  C   UNL     1      -1.960  13.722  23.510  0.00  0.00    +0.000 C 
ATOM     16  C   UNL     1      -0.927  13.667  22.365  0.00  0.00    +0.000 C 
ATOM     17  N   UNL     1      -0.747  11.511  19.443  0.00  0.00    +0.000 NA
ATOM     18  C   UNL     1       0.015  10.521  18.907  0.00  0.00    +0.000 A 
ENDROOT
BRANCH   1  22
ATOM     19  C   UNL     1       2.601   6.861  18.454  0.00  0.00    +0.000 A 
ATOM     20  N   UNL     1       3.157   7.786  17.653  0.00  0.00    +0.000 NA
ATOM     21  O   UNL     1       2.543   8.976  18.042  0.00  0.00    +0.000 OA
ATOM     22  C   UNL     1       1.673   8.656  19.043  0.00  0.00    +0.000 A 
ATOM     23  N   UNL     1       1.670   7.375  19.331  0.00  0.00    +0.000 NA
BRANCH  19  28
ATOM     24  C   UNL     1       3.842   1.216  18.421  0.00  0.00    +0.000 C 
ATOM     25  C   UNL     1       3.546   2.686  18.422  0.00  0.00    +0.000 A 
ATOM     26  C   UNL     1       4.345   3.584  19.138  0.00  0.00    +0.000 A 
ATOM     27  C   UNL     1       4.044   4.950  19.144  0.00  0.00    +0.000 A 
ATOM     28  C   UNL     1       2.940   5.443  18.435  0.00  0.00    +0.000 A 
ATOM     29  C   UNL     1       2.150   4.538  17.709  0.00  0.00    +0.000 A 
ATOM     30  C   UNL     1       2.451   3.173  17.702  0.00  0.00    +0.000 A 
ENDBRANCH  19  28
ENDBRANCH   1  22
TORSDOF 2
ENDMDL
MODEL 4
REMARK VINA RESULT:      -7.9      1.247      1.297
REMARK  Name = 
REMARK  3 active torsions:
REMARK  status: ('A' for Active; 'I' for Inactive)
REMARK    1  A    between atoms: C_1  and  C_2
REMARK    2  A    between atoms: C_5  and  C_6
REMARK    3  A    between atoms: C_9  and  C_10
REMARK                            x       y       z     vdW  Elec       q    Type
REMARK                         _______ _______ _______ _____ _____    ______ ____
ROOT
ATOM      1  C   UNL     1       1.016   9.003  20.751  0.00  0.00    +0.000 A 
ATOM      2  C   UNL     1      -0.205   8.860  21.404  0.00  0.00    +0.000 A 
ATOM      3  C   UNL     1      -0.860   9.984  21.902  0.00  0.00    +0.000 A 
ATOM      4  C   UNL     1      -0.310  11.254  21.738  0.00  0.00    +0.000 A 
ATOM      5  N   UNL     1      -0.975  12.363  22.180  0.00  0.00    +0.000 N 
ATOM      6  C   UNL     1      -0.793  13.666  21.528  0.00  0.00    +0.000 C 
ATOM      7  C   UNL     1      -2.185  14.298  21.274  0.00  0.00    +0.000 C 
ATOM      8  N   UNL     1      -2.992  14.290  22.501  0.00  0.00    +0.000 N 
ATOM      9  C   UNL     1      -3.625  15.413  22.954  0.00  0.00    +0.000 A 
ATOM     10  N   UNL     1      -3.477  16.562  22.275  0.00  0.00    +0.000 NA
ATOM     11  C   UNL     1      -4.089  17.660  22.754  0.00  0.00    +0.000 A 
ATOM     12  C   UNL     1      -4.850  17.666  23.893  0.00  0.00    +0.000 A 
ATOM     13  C   UNL     1      -4.952  16.456  24.524  0.00  0.00    +0.000 A 
ATOM     14  N   UNL     1      -4.357  15.334  24.079  0.00  0.00    +0.000 NA
ATOM     15  C   UNL     1      -3.113  13.012  23.207  0.00  0.00    +0.000 C 
ATOM     16  C   UNL     1      -1.713  12.409  23.446  0.00  0.00    +0.000 C 
ATOM     17  N   UNL     1       0.865  11.404  21.087  0.00  0.00    +0.000 NA
ATOM     18  C   UNL     1       1.504  10.295  20.631  0.00  0.00    +0.000 A 
ENDROOT
BRANCH   1  22
ATOM     19  C   UNL     1       2.802   6.393  19.166  0.00  0.00    +0.000 A 
ATOM     20  N   UNL     1       2.362   5.727  20.247  0.00  0.00    +0.000 NA
ATOM     21  O   UNL     1       1.631   6.682  20.953  0.00  0.00    +0.000 OA
ATOM     22  C   UNL     1       1.699   7.836  20.229  0.00  0.00    +0.000 A 
ATOM     23  N   UNL     1       2.406   7.712  19.129  0.00  0.00    +0.000 NA
BRANCH  19  28
ATOM     24  C   UNL     1       5.950   4.110  14.889  0.00  0.00    +0.000 C 
ATOM     25  C   UNL     1       5.146   4.685  16.017  0.00  0.00    +0.000 A 
ATOM     26  C   UNL     1       4.407   3.861  16.872  0.00  0.00    +0.000 A 
ATOM     27  C   UNL     1       3.646   4.414  17.908  0.00  0.00    +0.000 A 
ATOM     28  C   UNL     1       3.611   5.801  18.106  0.00  0.00    +0.000 A 
ATOM     29  C   UNL     1       4.365   6.622  17.253  0.00  0.00    +0.000 A 
ATOM     30  C   UNL     1       5.125   6.069  16.218  0.00  0.00    +0.000 A 
ENDBRANCH  19  28
ENDBRANCH   1  22
TORSDOF 2
ENDMDL
MODEL 5
REMARK VINA RESULT:      -7.8      2.051      2.280
REMARK  Name = 
REMARK  3 active torsions:
REMARK  status: ('A' for Active; 'I' for Inactive)
REMARK    1  A    between atoms: C_1  and  C_2
REMARK    2  A    between atoms: C_5  and  C_6
REMARK    3  A    between atoms: C_9  and  C_10
REMARK                            x       y       z     vdW  Elec       q    Type
REMARK                         _______ _______ _______ _____ _____    ______ ____
ROOT
ATOM      1  C   UNL     1       0.912   9.985  19.651  0.00  0.00    +0.000 A 
ATOM      2  C   UNL     1       0.670   9.969  21.021  0.00  0.00    +0.000 A 
ATOM      3  C   UNL     1      -0.018  11.024  21.617  0.00  0.00    +0.000 A 
ATOM      4  C   UNL     1      -0.480  12.090  20.847  0.00  0.00    +0.000 A 
ATOM      5  N   UNL     1      -1.200  13.101  21.420  0.00  0.00    +0.000 N 
ATOM      6  C   UNL     1      -2.191  13.859  20.645  0.00  0.00    +0.000 C 
ATOM      7  C   UNL     1      -3.501  13.959  21.469  0.00  0.00    +0.000 C 
ATOM      8  N   UNL     1      -3.225  14.444  22.827  0.00  0.00    +0.000 N 
ATOM      9  C   UNL     1      -3.926  15.479  23.378  0.00  0.00    +0.000 A 
ATOM     10  N   UNL     1      -4.870  16.089  22.644  0.00  0.00    +0.000 NA
ATOM     11  C   UNL     1      -5.530  17.121  23.200  0.00  0.00    +0.000 A 
ATOM     12  C   UNL     1      -5.289  17.580  24.467  0.00  0.00    +0.000 A 
ATOM     13  C   UNL     1      -4.313  16.904  25.148  0.00  0.00    +0.000 A 
ATOM     14  N   UNL     1      -3.630  15.867  24.631  0.00  0.00    +0.000 NA
ATOM     15  C   UNL     1      -2.178  13.748  23.580  0.00  0.00    +0.000 C 
ATOM     16  C   UNL     1      -0.889  13.666  22.737  0.00  0.00    +0.000 C 
ATOM     17  N   UNL     1      -0.269  12.104  19.513  0.00  0.00    +0.000 NA
ATOM     18  C   UNL     1       0.427  11.080  18.952  0.00  0.00    +0.000 A 
ENDROOT
BRANCH   1  22
ATOM     19  C   UNL     1       2.469   7.064  18.403  0.00  0.00    +0.000 A 
ATOM     20  N   UNL     1       2.986   7.965  17.550  0.00  0.00    +0.000 NA
ATOM     21  O   UNL     1       2.427   9.173  17.963  0.00  0.00    +0.000 OA
ATOM     22  C   UNL     1       1.624   8.887  19.027  0.00  0.00    +0.000 A 
ATOM     23  N   UNL     1       1.614   7.611  19.335  0.00  0.00    +0.000 NA
BRANCH  19  28
ATOM     24  C   UNL     1       3.774   1.435  18.257  0.00  0.00    +0.000 C 
ATOM     25  C   UNL     1       3.412   2.889  18.309  0.00  0.00    +0.000 A 
ATOM     26  C   UNL     1       2.169   3.341  17.854  0.00  0.00    +0.000 A 
ATOM     27  C   UNL     1       1.853   4.704  17.891  0.00  0.00    +0.000 A 
ATOM     28  C   UNL     1       2.776   5.638  18.383  0.00  0.00    +0.000 A 
ATOM     29  C   UNL     1       4.016   5.176  18.849  0.00  0.00    +0.000 A 
ATOM     30  C   UNL     1       4.331   3.815  18.812  0.00  0.00    +0.000 A 
ENDBRANCH  19  28
ENDBRANCH   1  22
TORSDOF 2
ENDMDL
MODEL 6
REMARK VINA RESULT:      -7.7      1.970      2.922
REMARK  Name = 
REMARK  3 active torsions:
REMARK  status: ('A' for Active; 'I' for Inactive)
REMARK    1  A    between atoms: C_1  and  C_2
REMARK    2  A    between atoms: C_5  and  C_6
REMARK    3  A    between atoms: C_9  and  C_10
REMARK                            x       y       z     vdW  Elec       q    Type
REMARK                         _______ _______ _______ _____ _____    ______ ____
ROOT
ATOM      1  C   UNL     1       0.497  10.425  19.897  0.00  0.00    +0.000 A 
ATOM      2  C   UNL     1      -0.731  10.907  19.453  0.00  0.00    +0.000 A 
ATOM      3  C   UNL     1      -1.459  11.790  20.249  0.00  0.00    +0.000 A 
ATOM      4  C   UNL     1      -0.959  12.206  21.481  0.00  0.00    +0.000 A 
ATOM      5  N   UNL     1      -1.646  13.112  22.240  0.00  0.00    +0.000 N 
ATOM      6  C   UNL     1      -0.945  14.015  23.161  0.00  0.00    +0.000 C 
ATOM      7  C   UNL     1      -1.482  15.455  22.955  0.00  0.00    +0.000 C 
ATOM      8  N   UNL     1      -2.949  15.476  23.010  0.00  0.00    +0.000 N 
ATOM      9  C   UNL     1      -3.627  16.361  23.800  0.00  0.00    +0.000 A 
ATOM     10  N   UNL     1      -2.930  17.213  24.570  0.00  0.00    +0.000 NA
ATOM     11  C   UNL     1      -3.619  18.059  25.357  0.00  0.00    +0.000 A 
ATOM     12  C   UNL     1      -4.987  18.095  25.414  0.00  0.00    +0.000 A 
ATOM     13  C   UNL     1      -5.621  17.197  24.598  0.00  0.00    +0.000 A 
ATOM     14  N   UNL     1      -4.972  16.335  23.796  0.00  0.00    +0.000 NA
ATOM     15  C   UNL     1      -3.659  14.520  22.157  0.00  0.00    +0.000 C 
ATOM     16  C   UNL     1      -3.105  13.099  22.385  0.00  0.00    +0.000 C 
ATOM     17  N   UNL     1       0.242  11.760  21.911  0.00  0.00    +0.000 NA
ATOM     18  C   UNL     1       0.927  10.880  21.135  0.00  0.00    +0.000 A 
ENDROOT
BRANCH   1  22
ATOM     19  C   UNL     1       2.263   7.903  18.155  0.00  0.00    +0.000 A 
ATOM     20  N   UNL     1       2.481   8.934  17.321  0.00  0.00    +0.000 NA
ATOM     21  O   UNL     1       1.816   9.999  17.927  0.00  0.00    +0.000 OA
ATOM     22  C   UNL     1       1.259   9.510  19.071  0.00  0.00    +0.000 A 
ATOM     23  N   UNL     1       1.501   8.232  19.255  0.00  0.00    +0.000 NA
BRANCH  19  28
ATOM     24  C   UNL     1       4.293   2.535  17.464  0.00  0.00    +0.000 C 
ATOM     25  C   UNL     1       3.776   3.934  17.617  0.00  0.00    +0.000 A 
ATOM     26  C   UNL     1       4.606   5.040  17.406  0.00  0.00    +0.000 A 
ATOM     27  C   UNL     1       4.114   6.339  17.573  0.00  0.00    +0.000 A 
ATOM     28  C   UNL     1       2.782   6.555  17.954  0.00  0.00    +0.000 A 
ATOM     29  C   UNL     1       1.951   5.442  18.151  0.00  0.00    +0.000 A 
ATOM     30  C   UNL     1       2.443   4.144  17.985  0.00  0.00    +0.000 A 
ENDBRANCH  19  28
ENDBRANCH   1  22
TORSDOF 2
ENDMDL
MODEL 7
REMARK VINA RESULT:      -7.7      1.375      1.520
REMARK  Name = 
REMARK  3 active torsions:
REMARK  status: ('A' for Active; 'I' for Inactive)
REMARK    1  A    between atoms: C_1  and  C_2
REMARK    2  A    between atoms: C_5  and  C_6
REMARK    3  A    between atoms: C_9  and  C_10
REMARK                            x       y       z     vdW  Elec       q    Type
REMARK                         _______ _______ _______ _____ _____    ______ ____
ROOT
ATOM      1  C   UNL     1       0.644   9.702  19.904  0.00  0.00    +0.000 A 
ATOM      2  C   UNL     1       0.981  10.540  20.963  0.00  0.00    +0.000 A 
ATOM      3  C   UNL     1       0.206  11.666  21.230  0.00  0.00    +0.000 A 
ATOM      4  C   UNL     1      -0.915  11.953  20.452  0.00  0.00    +0.000 A 
ATOM      5  N   UNL     1      -1.706  13.029  20.743  0.00  0.00    +0.000 N 
ATOM      6  C   UNL     1      -3.136  13.030  20.408  0.00  0.00    +0.000 C 
ATOM      7  C   UNL     1      -3.939  13.515  21.643  0.00  0.00    +0.000 C 
ATOM      8  N   UNL     1      -3.388  14.775  22.159  0.00  0.00    +0.000 N 
ATOM      9  C   UNL     1      -4.183  15.857  22.413  0.00  0.00    +0.000 A 
ATOM     10  N   UNL     1      -5.498  15.774  22.152  0.00  0.00    +0.000 NA
ATOM     11  C   UNL     1      -6.256  16.861  22.387  0.00  0.00    +0.000 A 
ATOM     12  C   UNL     1      -5.758  18.040  22.874  0.00  0.00    +0.000 A 
ATOM     13  C   UNL     1      -4.410  18.040  23.114  0.00  0.00    +0.000 A 
ATOM     14  N   UNL     1      -3.616  16.978  22.894  0.00  0.00    +0.000 NA
ATOM     15  C   UNL     1      -1.947  14.813  22.417  0.00  0.00    +0.000 C 
ATOM     16  C   UNL     1      -1.176  14.327  21.172  0.00  0.00    +0.000 C 
ATOM     17  N   UNL     1      -1.261  11.134  19.435  0.00  0.00    +0.000 NA
ATOM     18  C   UNL     1      -0.480  10.054  19.172  0.00  0.00    +0.000 A 
ENDROOT
BRANCH   1  22
ATOM     19  C   UNL     1       2.676   7.001  18.860  0.00  0.00    +0.000 A 
ATOM     20  N   UNL     1       2.368   6.573  20.097  0.00  0.00    +0.000 NA
ATOM     21  O   UNL     1       1.553   7.584  20.605  0.00  0.00    +0.000 OA
ATOM     22  C   UNL     1       1.446   8.527  19.626  0.00  0.00    +0.000 A 
ATOM     23  N   UNL     1       2.116   8.218  18.540  0.00  0.00    +0.000 NA
BRANCH  19  28
ATOM     24  C   UNL     1       5.929   4.140  15.034  0.00  0.00    +0.000 C 
ATOM     25  C   UNL     1       5.094   4.864  16.047  0.00  0.00    +0.000 A 
ATOM     26  C   UNL     1       4.179   4.179  16.853  0.00  0.00    +0.000 A 
ATOM     27  C   UNL     1       3.393   4.872  17.780  0.00  0.00    +0.000 A 
ATOM     28  C   UNL     1       3.508   6.263  17.916  0.00  0.00    +0.000 A 
ATOM     29  C   UNL     1       4.436   6.942  17.113  0.00  0.00    +0.000 A 
ATOM     30  C   UNL     1       5.222   6.249  16.187  0.00  0.00    +0.000 A 
ENDBRANCH  19  28
ENDBRANCH   1  22
TORSDOF 2
ENDMDL
MODEL 8
REMARK VINA RESULT:      -7.6      1.635      2.940
REMARK  Name = 
REMARK  3 active torsions:
REMARK  status: ('A' for Active; 'I' for Inactive)
REMARK    1  A    between atoms: C_1  and  C_2
REMARK    2  A    between atoms: C_5  and  C_6
REMARK    3  A    between atoms: C_9  and  C_10
REMARK                            x       y       z     vdW  Elec       q    Type
REMARK                         _______ _______ _______ _____ _____    ______ ____
ROOT
ATOM      1  C   UNL     1       2.693   7.615  18.533  0.00  0.00    +0.000 A 
ATOM      2  C   UNL     1       2.213   8.704  17.811  0.00  0.00    +0.000 A 
ATOM      3  C   UNL     1       1.285   9.566  18.391  0.00  0.00    +0.000 A 
ATOM      4  C   UNL     1       0.843   9.355  19.695  0.00  0.00    +0.000 A 
ATOM      5  N   UNL     1      -0.029  10.228  20.284  0.00  0.00    +0.000 N 
ATOM      6  C   UNL     1      -0.038  10.423  21.740  0.00  0.00    +0.000 C 
ATOM      7  C   UNL     1      -0.050  11.944  22.041  0.00  0.00    +0.000 C 
ATOM      8  N   UNL     1      -1.115  12.615  21.286  0.00  0.00    +0.000 N 
ATOM      9  C   UNL     1      -2.004  13.458  21.890  0.00  0.00    +0.000 A 
ATOM     10  N   UNL     1      -1.919  13.652  23.217  0.00  0.00    +0.000 NA
ATOM     11  C   UNL     1      -2.821  14.468  23.793  0.00  0.00    +0.000 A 
ATOM     12  C   UNL     1      -3.815  15.106  23.101  0.00  0.00    +0.000 A 
ATOM     13  C   UNL     1      -3.831  14.857  21.755  0.00  0.00    +0.000 A 
ATOM     14  N   UNL     1      -2.950  14.050  21.139  0.00  0.00    +0.000 NA
ATOM     15  C   UNL     1      -1.168  12.362  19.844  0.00  0.00    +0.000 C 
ATOM     16  C   UNL     1      -1.156  10.843  19.576  0.00  0.00    +0.000 C 
ATOM     17  N   UNL     1       1.318   8.313  20.412  0.00  0.00    +0.000 NA
ATOM     18  C   UNL     1       2.203   7.466  19.822  0.00  0.00    +0.000 A 
ENDROOT
BRANCH   1  22
ATOM     19  C   UNL     1       4.935   5.573  16.712  0.00  0.00    +0.000 A 
ATOM     20  N   UNL     1       5.254   5.185  17.958  0.00  0.00    +0.000 NA
ATOM     21  O   UNL     1       4.411   5.943  18.770  0.00  0.00    +0.000 OA
ATOM     22  C   UNL     1       3.661   6.718  17.935  0.00  0.00    +0.000 A 
ATOM     23  N   UNL     1       3.945   6.530  16.666  0.00  0.00    +0.000 NA
BRANCH  19  28
ATOM     24  C   UNL     1       7.383   3.566  11.876  0.00  0.00    +0.000 C 
ATOM     25  C   UNL     1       6.740   4.060  13.137  0.00  0.00    +0.000 A 
ATOM     26  C   UNL     1       5.411   3.747  13.442  0.00  0.00    +0.000 A 
ATOM     27  C   UNL     1       4.820   4.233  14.614  0.00  0.00    +0.000 A 
ATOM     28  C   UNL     1       5.547   5.040  15.500  0.00  0.00    +0.000 A 
ATOM     29  C   UNL     1       6.883   5.339  15.194  0.00  0.00    +0.000 A 
ATOM     30  C   UNL     1       7.474   4.854  14.024  0.00  0.00    +0.000 A 
ENDBRANCH  19  28
ENDBRANCH   1  22
TORSDOF 2
ENDMDL
MODEL 9
REMARK VINA RESULT:      -7.6      1.736      2.494
REMARK  Name = 
REMARK  3 active torsions:
REMARK  status: ('A' for Active; 'I' for Inactive)
REMARK    1  A    between atoms: C_1  and  C_2
REMARK    2  A    between atoms: C_5  and  C_6
REMARK    3  A    between atoms: C_9  and  C_10
REMARK                            x       y       z     vdW  Elec       q    Type
REMARK                         _______ _______ _______ _____ _____    ______ ____
ROOT
ATOM      1  C   UNL     1       0.568   9.252  20.894  0.00  0.00    +0.000 A 
ATOM      2  C   UNL     1      -0.140   9.998  19.956  0.00  0.00    +0.000 A 
ATOM      3  C   UNL     1      -0.862  11.118  20.362  0.00  0.00    +0.000 A 
ATOM      4  C   UNL     1      -0.869  11.507  21.700  0.00  0.00    +0.000 A 
ATOM      5  N   UNL     1      -1.535  12.635  22.093  0.00  0.00    +0.000 N 
ATOM      6  C   UNL     1      -1.094  13.406  23.262  0.00  0.00    +0.000 C 
ATOM      7  C   UNL     1      -1.049  14.909  22.883  0.00  0.00    +0.000 C 
ATOM      8  N   UNL     1      -2.313  15.327  22.264  0.00  0.00    +0.000 N 
ATOM      9  C   UNL     1      -2.989  16.436  22.687  0.00  0.00    +0.000 A 
ATOM     10  N   UNL     1      -2.499  17.143  23.719  0.00  0.00    +0.000 NA
ATOM     11  C   UNL     1      -3.196  18.217  24.133  0.00  0.00    +0.000 A 
ATOM     12  C   UNL     1      -4.372  18.623  23.562  0.00  0.00    +0.000 A 
ATOM     13  C   UNL     1      -4.801  17.850  22.517  0.00  0.00    +0.000 A 
ATOM     14  N   UNL     1      -4.137  16.770  22.070  0.00  0.00    +0.000 NA
ATOM     15  C   UNL     1      -2.807  14.515  21.149  0.00  0.00    +0.000 C 
ATOM     16  C   UNL     1      -2.841  13.028  21.556  0.00  0.00    +0.000 C 
ATOM     17  N   UNL     1      -0.168  10.802  22.615  0.00  0.00    +0.000 NA
ATOM     18  C   UNL     1       0.509   9.697  22.207  0.00  0.00    +0.000 A 
ENDROOT
BRANCH   1  22
ATOM     19  C   UNL     1       2.570   6.649  19.581  0.00  0.00    +0.000 A 
ATOM     20  N   UNL     1       1.985   5.982  20.590  0.00  0.00    +0.000 NA
ATOM     21  O   UNL     1       1.158   6.934  21.184  0.00  0.00    +0.000 OA
ATOM     22  C   UNL     1       1.323   8.088  20.475  0.00  0.00    +0.000 A 
ATOM     23  N   UNL     1       2.178   7.966  19.486  0.00  0.00    +0.000 NA
BRANCH  19  28
ATOM     24  C   UNL     1       6.420   4.308  15.960  0.00  0.00    +0.000 C 
ATOM     25  C   UNL     1       5.404   4.919  16.877  0.00  0.00    +0.000 A 
ATOM     26  C   UNL     1       4.854   6.177  16.612  0.00  0.00    +0.000 A 
ATOM     27  C   UNL     1       3.921   6.743  17.489  0.00  0.00    +0.000 A 
ATOM     28  C   UNL     1       3.523   6.060  18.646  0.00  0.00    +0.000 A 
ATOM     29  C   UNL     1       4.068   4.792  18.899  0.00  0.00    +0.000 A 
ATOM     30  C   UNL     1       5.000   4.227  18.023  0.00  0.00    +0.000 A 
ENDBRANCH  19  28
ENDBRANCH   1  22
TORSDOF 2
ENDMDL
