MODEL 1
REMARK VINA RESULT:      -8.6      0.000      0.000
REMARK  Name = 
REMARK  4 active torsions:
REMARK  status: ('A' for Active; 'I' for Inactive)
REMARK    1  A    between atoms: S_2  and  N_4
REMARK    2  A    between atoms: S_2  and  C_12
REMARK    3  A    between atoms: N_4  and  C_5
REMARK    4  A    between atoms: C_5  and  C_6
REMARK                            x       y       z     vdW  Elec       q    Type
REMARK                         _______ _______ _______ _____ _____    ______ ____
ROOT
ATOM      1  O   UNL     1       7.741   5.435  19.327  0.00  0.00    +0.000 OA
ATOM      2  S   UNL     1       7.017   5.774  18.123  0.00  0.00    +0.000 S 
ATOM      3  O   UNL     1       7.030   7.118  17.585  0.00  0.00    +0.000 OA
ENDROOT
BRANCH   2   4
ATOM      4  C   UNL     1       5.320   5.306  18.376  0.00  0.00    +0.000 A 
ATOM      5  C   UNL     1       4.299   6.079  17.823  0.00  0.00    +0.000 A 
ATOM      6  C   UNL     1       2.968   5.770  18.110  0.00  0.00    +0.000 A 
ATOM      7  C   UNL     1       2.645   4.702  18.961  0.00  0.00    +0.000 A 
ATOM      8  C   UNL     1       1.310   4.401  19.281  0.00  0.00    +0.000 A 
ATOM      9  C   UNL     1       1.001   3.344  20.139  0.00  0.00    +0.000 A 
ATOM     10  C   UNL     1       2.024   2.576  20.687  0.00  0.00    +0.000 A 
ATOM     11  C   UNL     1       3.354   2.859  20.384  0.00  0.00    +0.000 A 
ATOM     12  C   UNL     1       3.684   3.922  19.523  0.00  0.00    +0.000 A 
ATOM     13  C   UNL     1       5.021   4.233  19.225  0.00  0.00    +0.000 A 
ENDBRANCH   2   4
BRANCH   2  14
ATOM     14  N   UNL     1       7.529   4.704  16.911  0.00  0.00    +0.000 NA
ATOM     15  H   UNL     1       8.043   3.911  17.302  0.00  0.00    +0.000 HD
BRANCH  14  16
ATOM     16  C   UNL     1       6.433   4.233  16.034  0.00  0.00    +0.000 C 
BRANCH  16  17
ATOM     17  C   UNL     1       6.721   4.395  14.557  0.00  0.00    +0.000 A 
ATOM     18  C   UNL     1       6.064   3.601  13.618  0.00  0.00    +0.000 A 
ATOM     19  C   UNL     1       6.405   3.727  12.274  0.00  0.00    +0.000 A 
ATOM     20  C   UNL     1       7.383   4.642  11.903  0.00  0.00    +0.000 A 
ATOM     21  C   UNL     1       7.976   5.403  12.897  0.00  0.00    +0.000 A 
ATOM     22  N   UNL     1       7.662   5.310  14.208  0.00  0.00    +0.000 NA
ENDBRANCH  16  17
ENDBRANCH  14  16
ENDBRANCH   2  14
TORSDOF 4
ENDMDL
MODEL 2
REMARK VINA RESULT:      -8.1      3.591      5.915
REMARK  Name = 
REMARK  4 active torsions:
REMARK  status: ('A' for Active; 'I' for Inactive)
REMARK    1  A    between atoms: S_2  and  N_4
REMARK    2  A    between atoms: S_2  and  C_12
REMARK    3  A    between atoms: N_4  and  C_5
REMARK    4  A    between atoms: C_5  and  C_6
REMARK                            x       y       z     vdW  Elec       q    Type
REMARK                         _______ _______ _______ _____ _____    ______ ____
ROOT
ATOM      1  O   UNL     1       5.206   5.238  19.183  0.00  0.00    +0.000 OA
ATOM      2  S   UNL     1       4.655   5.711  17.934  0.00  0.00    +0.000 S 
ATOM      3  O   UNL     1       5.492   6.311  16.916  0.00  0.00    +0.000 OA
ENDROOT
BRANCH   2   4
ATOM      4  C   UNL     1       3.365   6.870  18.329  0.00  0.00    +0.000 A 
ATOM      5  C   UNL     1       3.072   7.908  17.444  0.00  0.00    +0.000 A 
ATOM      6  C   UNL     1       2.133   8.875  17.804  0.00  0.00    +0.000 A 
ATOM      7  C   UNL     1       1.490   8.826  19.051  0.00  0.00    +0.000 A 
ATOM      8  C   UNL     1       0.566   9.812  19.436  0.00  0.00    +0.000 A 
ATOM      9  C   UNL     1      -0.057   9.760  20.684  0.00  0.00    +0.000 A 
ATOM     10  C   UNL     1       0.238   8.721  21.562  0.00  0.00    +0.000 A 
ATOM     11  C   UNL     1       1.153   7.735  21.200  0.00  0.00    +0.000 A 
ATOM     12  C   UNL     1       1.792   7.773  19.948  0.00  0.00    +0.000 A 
ATOM     13  C   UNL     1       2.733   6.798  19.577  0.00  0.00    +0.000 A 
ENDBRANCH   2   4
BRANCH   2  14
ATOM     14  N   UNL     1       3.805   4.419  17.238  0.00  0.00    +0.000 NA
ATOM     15  H   UNL     1       4.074   4.273  16.262  0.00  0.00    +0.000 HD
BRANCH  14  16
ATOM     16  C   UNL     1       3.916   3.155  18.003  0.00  0.00    +0.000 C 
BRANCH  16  17
ATOM     17  C   UNL     1       2.948   3.057  19.162  0.00  0.00    +0.000 A 
ATOM     18  C   UNL     1       1.606   3.393  18.993  0.00  0.00    +0.000 A 
ATOM     19  C   UNL     1       0.759   3.359  20.098  0.00  0.00    +0.000 A 
ATOM     20  C   UNL     1       1.271   2.986  21.335  0.00  0.00    +0.000 A 
ATOM     21  C   UNL     1       2.613   2.652  21.414  0.00  0.00    +0.000 A 
ATOM     22  N   UNL     1       3.457   2.668  20.359  0.00  0.00    +0.000 NA
ENDBRANCH  16  17
ENDBRANCH  14  16
ENDBRANCH   2  14
TORSDOF 4
ENDMDL
MODEL 3
REMARK VINA RESULT:      -8.0      2.456      3.520
REMARK  Name = 
REMARK  4 active torsions:
REMARK  status: ('A' for Active; 'I' for Inactive)
REMARK    1  A    between atoms: S_2  and  N_4
REMARK    2  A    between atoms: S_2  and  C_12
REMARK    3  A    between atoms: N_4  and  C_5
REMARK    4  A    between atoms: C_5  and  C_6
REMARK                            x       y       z     vdW  Elec       q    Type
REMARK                         _______ _______ _______ _____ _____    ______ ____
ROOT
ATOM      1  O   UNL     1       3.788   2.869  18.178  0.00  0.00    +0.000 OA
ATOM      2  S   UNL     1       4.635   4.038  18.133  0.00  0.00    +0.000 S 
ATOM      3  O   UNL     1       5.936   4.056  18.768  0.00  0.00    +0.000 OA
ENDROOT
BRANCH   2   4
ATOM      4  C   UNL     1       3.693   5.399  18.785  0.00  0.00    +0.000 A 
ATOM      5  C   UNL     1       3.068   5.276  20.025  0.00  0.00    +0.000 A 
ATOM      6  C   UNL     1       2.245   6.305  20.487  0.00  0.00    +0.000 A 
ATOM      7  C   UNL     1       2.025   7.454  19.711  0.00  0.00    +0.000 A 
ATOM      8  C   UNL     1       1.174   8.482  20.152  0.00  0.00    +0.000 A 
ATOM      9  C   UNL     1       0.954   9.614  19.366  0.00  0.00    +0.000 A 
ATOM     10  C   UNL     1       1.582   9.732  18.130  0.00  0.00    +0.000 A 
ATOM     11  C   UNL     1       2.428   8.723  17.674  0.00  0.00    +0.000 A 
ATOM     12  C   UNL     1       2.659   7.574  18.451  0.00  0.00    +0.000 A 
ATOM     13  C   UNL     1       3.493   6.539  17.996  0.00  0.00    +0.000 A 
ENDBRANCH   2   4
BRANCH   2  14
ATOM     14  N   UNL     1       4.827   4.457  16.501  0.00  0.00    +0.000 NA
ATOM     15  H   UNL     1       4.167   5.185  16.219  0.00  0.00    +0.000 HD
BRANCH  14  16
ATOM     16  C   UNL     1       6.212   4.845  16.147  0.00  0.00    +0.000 C 
BRANCH  16  17
ATOM     17  C   UNL     1       6.535   4.680  14.678  0.00  0.00    +0.000 A 
ATOM     18  C   UNL     1       5.816   3.779  13.894  0.00  0.00    +0.000 A 
ATOM     19  C   UNL     1       6.187   3.600  12.563  0.00  0.00    +0.000 A 
ATOM     20  C   UNL     1       7.255   4.327  12.051  0.00  0.00    +0.000 A 
ATOM     21  C   UNL     1       7.906   5.214  12.893  0.00  0.00    +0.000 A 
ATOM     22  N   UNL     1       7.565   5.415  14.186  0.00  0.00    +0.000 NA
ENDBRANCH  16  17
ENDBRANCH  14  16
ENDBRANCH   2  14
TORSDOF 4
ENDMDL
MODEL 4
REMARK VINA RESULT:      -7.9      1.215      1.901
REMARK  Name = 
REMARK  4 active torsions:
REMARK  status: ('A' for Active; 'I' for Inactive)
REMARK    1  A    between atoms: S_2  and  N_4
REMARK    2  A    between atoms: S_2  and  C_12
REMARK    3  A    between atoms: N_4  and  C_5
REMARK    4  A    between atoms: C_5  and  C_6
REMARK                            x       y       z     vdW  Elec       q    Type
REMARK                         _______ _______ _______ _____ _____    ______ ____
ROOT
ATOM      1  O   UNL     1       5.992   7.958  17.593  0.00  0.00    +0.000 OA
ATOM      2  S   UNL     1       5.767   6.762  16.815  0.00  0.00    +0.000 S 
ATOM      3  O   UNL     1       5.104   6.809  15.529  0.00  0.00    +0.000 OA
ENDROOT
BRANCH   2   4
ATOM      4  C   UNL     1       4.875   5.620  17.846  0.00  0.00    +0.000 A 
ATOM      5  C   UNL     1       5.510   5.035  18.941  0.00  0.00    +0.000 A 
ATOM      6  C   UNL     1       4.843   4.061  19.686  0.00  0.00    +0.000 A 
ATOM      7  C   UNL     1       3.545   3.652  19.337  0.00  0.00    +0.000 A 
ATOM      8  C   UNL     1       2.876   2.651  20.061  0.00  0.00    +0.000 A 
ATOM      9  C   UNL     1       1.592   2.243  19.697  0.00  0.00    +0.000 A 
ATOM     10  C   UNL     1       0.962   2.832  18.604  0.00  0.00    +0.000 A 
ATOM     11  C   UNL     1       1.610   3.825  17.872  0.00  0.00    +0.000 A 
ATOM     12  C   UNL     1       2.905   4.246  18.223  0.00  0.00    +0.000 A 
ATOM     13  C   UNL     1       3.580   5.231  17.482  0.00  0.00    +0.000 A 
ENDBRANCH   2   4
BRANCH   2  14
ATOM     14  N   UNL     1       7.270   6.001  16.618  0.00  0.00    +0.000 NA
ATOM     15  H   UNL     1       7.816   6.017  17.483  0.00  0.00    +0.000 HD
BRANCH  14  16
ATOM     16  C   UNL     1       7.172   4.621  16.090  0.00  0.00    +0.000 C 
BRANCH  16  17
ATOM     17  C   UNL     1       7.056   4.551  14.583  0.00  0.00    +0.000 A 
ATOM     18  C   UNL     1       6.142   3.684  13.984  0.00  0.00    +0.000 A 
ATOM     19  C   UNL     1       6.112   3.593  12.595  0.00  0.00    +0.000 A 
ATOM     20  C   UNL     1       6.984   4.370  11.843  0.00  0.00    +0.000 A 
ATOM     21  C   UNL     1       7.850   5.217  12.516  0.00  0.00    +0.000 A 
ATOM     22  N   UNL     1       7.898   5.333  13.862  0.00  0.00    +0.000 NA
ENDBRANCH  16  17
ENDBRANCH  14  16
ENDBRANCH   2  14
TORSDOF 4
ENDMDL
MODEL 5
REMARK VINA RESULT:      -7.9      0.943      1.255
REMARK  Name = 
REMARK  4 active torsions:
REMARK  status: ('A' for Active; 'I' for Inactive)
REMARK    1  A    between atoms: S_2  and  N_4
REMARK    2  A    between atoms: S_2  and  C_12
REMARK    3  A    between atoms: N_4  and  C_5
REMARK    4  A    between atoms: C_5  and  C_6
REMARK                            x       y       z     vdW  Elec       q    Type
REMARK                         _______ _______ _______ _____ _____    ______ ____
ROOT
ATOM      1  O   UNL     1       7.134   6.130  18.687  0.00  0.00    +0.000 OA
ATOM      2  S   UNL     1       6.260   5.888  17.562  0.00  0.00    +0.000 S 
ATOM      3  O   UNL     1       5.978   6.920  16.588  0.00  0.00    +0.000 OA
ENDROOT
BRANCH   2   4
ATOM      4  C   UNL     1       4.707   5.316  18.214  0.00  0.00    +0.000 A 
ATOM      5  C   UNL     1       3.534   6.009  17.914  0.00  0.00    +0.000 A 
ATOM      6  C   UNL     1       2.333   5.620  18.509  0.00  0.00    +0.000 A 
ATOM      7  C   UNL     1       2.293   4.551  19.419  0.00  0.00    +0.000 A 
ATOM      8  C   UNL     1       1.095   4.171  20.048  0.00  0.00    +0.000 A 
ATOM      9  C   UNL     1       1.071   3.115  20.960  0.00  0.00    +0.000 A 
ATOM     10  C   UNL     1       2.244   2.427  21.254  0.00  0.00    +0.000 A 
ATOM     11  C   UNL     1       3.442   2.790  20.643  0.00  0.00    +0.000 A 
ATOM     12  C   UNL     1       3.486   3.853  19.723  0.00  0.00    +0.000 A 
ATOM     13  C   UNL     1       4.690   4.244  19.114  0.00  0.00    +0.000 A 
ENDBRANCH   2   4
BRANCH   2  14
ATOM     14  N   UNL     1       6.855   4.525  16.747  0.00  0.00    +0.000 NA
ATOM     15  H   UNL     1       7.127   3.785  17.399  0.00  0.00    +0.000 HD
BRANCH  14  16
ATOM     16  C   UNL     1       5.930   3.998  15.719  0.00  0.00    +0.000 C 
BRANCH  16  17
ATOM     17  C   UNL     1       6.452   4.127  14.304  0.00  0.00    +0.000 A 
ATOM     18  C   UNL     1       7.429   5.072  13.996  0.00  0.00    +0.000 A 
ATOM     19  C   UNL     1       7.835   5.212  12.671  0.00  0.00    +0.000 A 
ATOM     20  C   UNL     1       7.263   4.405  11.695  0.00  0.00    +0.000 A 
ATOM     21  C   UNL     1       6.310   3.480  12.088  0.00  0.00    +0.000 A 
ATOM     22  N   UNL     1       5.900   3.316  13.366  0.00  0.00    +0.000 NA
ENDBRANCH  16  17
ENDBRANCH  14  16
ENDBRANCH   2  14
TORSDOF 4
ENDMDL
MODEL 6
REMARK VINA RESULT:      -7.9      3.618      6.108
REMARK  Name = 
REMARK  4 active torsions:
REMARK  status: ('A' for Active; 'I' for Inactive)
REMARK    1  A    between atoms: S_2  and  N_4
REMARK    2  A    between atoms: S_2  and  C_12
REMARK    3  A    between atoms: N_4  and  C_5
REMARK    4  A    between atoms: C_5  and  C_6
REMARK                            x       y       z     vdW  Elec       q    Type
REMARK                         _______ _______ _______ _____ _____    ______ ____
ROOT
ATOM      1  O   UNL     1       5.598   5.046  18.231  0.00  0.00    +0.000 OA
ATOM      2  S   UNL     1       4.540   5.509  17.362  0.00  0.00    +0.000 S 
ATOM      3  O   UNL     1       4.826   6.207  16.127  0.00  0.00    +0.000 OA
ENDROOT
BRANCH   2   4
ATOM      4  C   UNL     1       3.471   6.544  18.337  0.00  0.00    +0.000 A 
ATOM      5  C   UNL     1       3.111   6.149  19.625  0.00  0.00    +0.000 A 
ATOM      6  C   UNL     1       2.190   6.910  20.348  0.00  0.00    +0.000 A 
ATOM      7  C   UNL     1       1.610   8.059  19.788  0.00  0.00    +0.000 A 
ATOM      8  C   UNL     1       0.659   8.815  20.494  0.00  0.00    +0.000 A 
ATOM      9  C   UNL     1       0.080   9.949  19.922  0.00  0.00    +0.000 A 
ATOM     10  C   UNL     1       0.444  10.340  18.637  0.00  0.00    +0.000 A 
ATOM     11  C   UNL     1       1.383   9.602  17.919  0.00  0.00    +0.000 A 
ATOM     12  C   UNL     1       1.975   8.456  18.479  0.00  0.00    +0.000 A 
ATOM     13  C   UNL     1       2.908   7.690  17.760  0.00  0.00    +0.000 A 
ENDBRANCH   2   4
BRANCH   2  14
ATOM     14  N   UNL     1       3.557   4.173  17.011  0.00  0.00    +0.000 NA
ATOM     15  H   UNL     1       3.597   3.926  16.019  0.00  0.00    +0.000 HD
BRANCH  14  16
ATOM     16  C   UNL     1       3.841   2.989  17.853  0.00  0.00    +0.000 C 
BRANCH  16  17
ATOM     17  C   UNL     1       2.952   2.880  19.073  0.00  0.00    +0.000 A 
ATOM     18  C   UNL     1       1.570   3.015  18.954  0.00  0.00    +0.000 A 
ATOM     19  C   UNL     1       0.788   2.980  20.106  0.00  0.00    +0.000 A 
ATOM     20  C   UNL     1       1.403   2.805  21.340  0.00  0.00    +0.000 A 
ATOM     21  C   UNL     1       2.781   2.663  21.369  0.00  0.00    +0.000 A 
ATOM     22  N   UNL     1       3.565   2.685  20.268  0.00  0.00    +0.000 NA
ENDBRANCH  16  17
ENDBRANCH  14  16
ENDBRANCH   2  14
TORSDOF 4
ENDMDL
MODEL 7
REMARK VINA RESULT:      -7.9      3.465      4.966
REMARK  Name = 
REMARK  4 active torsions:
REMARK  status: ('A' for Active; 'I' for Inactive)
REMARK    1  A    between atoms: S_2  and  N_4
REMARK    2  A    between atoms: S_2  and  C_12
REMARK    3  A    between atoms: N_4  and  C_5
REMARK    4  A    between atoms: C_5  and  C_6
REMARK                            x       y       z     vdW  Elec       q    Type
REMARK                         _______ _______ _______ _____ _____    ______ ____
ROOT
ATOM      1  O   UNL     1       2.917   3.352  17.112  0.00  0.00    +0.000 OA
ATOM      2  S   UNL     1       3.160   3.418  18.535  0.00  0.00    +0.000 S 
ATOM      3  O   UNL     1       2.569   2.463  19.448  0.00  0.00    +0.000 OA
ENDROOT
BRANCH   2   4
ATOM      4  C   UNL     1       2.695   5.048  19.075  0.00  0.00    +0.000 A 
ATOM      5  C   UNL     1       2.200   5.233  20.366  0.00  0.00    +0.000 A 
ATOM      6  C   UNL     1       1.738   6.492  20.753  0.00  0.00    +0.000 A 
ATOM      7  C   UNL     1       1.750   7.571  19.854  0.00  0.00    +0.000 A 
ATOM      8  C   UNL     1       1.259   8.835  20.223  0.00  0.00    +0.000 A 
ATOM      9  C   UNL     1       1.264   9.895  19.315  0.00  0.00    +0.000 A 
ATOM     10  C   UNL     1       1.759   9.705  18.029  0.00  0.00    +0.000 A 
ATOM     11  C   UNL     1       2.249   8.458  17.644  0.00  0.00    +0.000 A 
ATOM     12  C   UNL     1       2.249   7.378  18.543  0.00  0.00    +0.000 A 
ATOM     13  C   UNL     1       2.720   6.110  18.163  0.00  0.00    +0.000 A 
ENDBRANCH   2   4
BRANCH   2  14
ATOM     14  N   UNL     1       4.841   3.409  18.759  0.00  0.00    +0.000 NA
ATOM     15  H   UNL     1       5.177   2.487  19.046  0.00  0.00    +0.000 HD
BRANCH  14  16
ATOM     16  C   UNL     1       5.599   3.897  17.584  0.00  0.00    +0.000 C 
BRANCH  16  17
ATOM     17  C   UNL     1       6.420   5.138  17.861  0.00  0.00    +0.000 A 
ATOM     18  C   UNL     1       6.254   6.282  17.081  0.00  0.00    +0.000 A 
ATOM     19  C   UNL     1       7.076   7.382  17.317  0.00  0.00    +0.000 A 
ATOM     20  C   UNL     1       8.032   7.313  18.324  0.00  0.00    +0.000 A 
ATOM     21  C   UNL     1       8.120   6.144  19.062  0.00  0.00    +0.000 A 
ATOM     22  N   UNL     1       7.333   5.064  18.862  0.00  0.00    +0.000 NA
ENDBRANCH  16  17
ENDBRANCH  14  16
ENDBRANCH   2  14
TORSDOF 4
ENDMDL
MODEL 8
REMARK VINA RESULT:      -7.8      3.282      4.780
REMARK  Name = 
REMARK  4 active torsions:
REMARK  status: ('A' for Active; 'I' for Inactive)
REMARK    1  A    between atoms: S_2  and  N_4
REMARK    2  A    between atoms: S_2  and  C_12
REMARK    3  A    between atoms: N_4  and  C_5
REMARK    4  A    between atoms: C_5  and  C_6
REMARK                            x       y       z     vdW  Elec       q    Type
REMARK                         _______ _______ _______ _____ _____    ______ ____
ROOT
ATOM      1  O   UNL     1       2.426   3.184  16.565  0.00  0.00    +0.000 OA
ATOM      2  S   UNL     1       2.981   3.057  17.893  0.00  0.00    +0.000 S 
ATOM      3  O   UNL     1       2.617   1.959  18.763  0.00  0.00    +0.000 OA
ENDROOT
BRANCH   2   4
ATOM      4  C   UNL     1       2.636   4.573  18.758  0.00  0.00    +0.000 A 
ATOM      5  C   UNL     1       2.369   4.543  20.127  0.00  0.00    +0.000 A 
ATOM      6  C   UNL     1       1.997   5.718  20.782  0.00  0.00    +0.000 A 
ATOM      7  C   UNL     1       1.871   6.926  20.077  0.00  0.00    +0.000 A 
ATOM      8  C   UNL     1       1.466   8.108  20.721  0.00  0.00    +0.000 A 
ATOM      9  C   UNL     1       1.332   9.300  20.007  0.00  0.00    +0.000 A 
ATOM     10  C   UNL     1       1.601   9.324  18.642  0.00  0.00    +0.000 A 
ATOM     11  C   UNL     1       2.001   8.162  17.985  0.00  0.00    +0.000 A 
ATOM     12  C   UNL     1       2.139   6.952  18.687  0.00  0.00    +0.000 A 
ATOM     13  C   UNL     1       2.521   5.767  18.036  0.00  0.00    +0.000 A 
ENDBRANCH   2   4
BRANCH   2  14
ATOM     14  N   UNL     1       4.669   3.085  17.738  0.00  0.00    +0.000 NA
ATOM     15  H   UNL     1       5.044   2.153  17.542  0.00  0.00    +0.000 HD
BRANCH  14  16
ATOM     16  C   UNL     1       5.157   4.062  16.738  0.00  0.00    +0.000 C 
BRANCH  16  17
ATOM     17  C   UNL     1       6.163   5.049  17.290  0.00  0.00    +0.000 A 
ATOM     18  C   UNL     1       6.708   4.865  18.560  0.00  0.00    +0.000 A 
ATOM     19  C   UNL     1       7.576   5.830  19.065  0.00  0.00    +0.000 A 
ATOM     20  C   UNL     1       7.881   6.943  18.291  0.00  0.00    +0.000 A 
ATOM     21  C   UNL     1       7.308   7.042  17.034  0.00  0.00    +0.000 A 
ATOM     22  N   UNL     1       6.469   6.119  16.513  0.00  0.00    +0.000 NA
ENDBRANCH  16  17
ENDBRANCH  14  16
ENDBRANCH   2  14
TORSDOF 4
ENDMDL
MODEL 9
REMARK VINA RESULT:      -7.8      1.427      1.754
REMARK  Name = 
REMARK  4 active torsions:
REMARK  status: ('A' for Active; 'I' for Inactive)
REMARK    1  A    between atoms: S_2  and  N_4
REMARK    2  A    between atoms: S_2  and  C_12
REMARK    3  A    between atoms: N_4  and  C_5
REMARK    4  A    between atoms: C_5  and  C_6
REMARK                            x       y       z     vdW  Elec       q    Type
REMARK                         _______ _______ _______ _____ _____    ______ ____
ROOT
ATOM      1  O   UNL     1       7.651   4.129  18.065  0.00  0.00    +0.000 OA
ATOM      2  S   UNL     1       7.056   5.215  18.810  0.00  0.00    +0.000 S 
ATOM      3  O   UNL     1       7.532   5.580  20.127  0.00  0.00    +0.000 OA
ENDROOT
BRANCH   2   4
ATOM      4  C   UNL     1       5.314   4.876  18.936  0.00  0.00    +0.000 A 
ATOM      5  C   UNL     1       4.461   5.833  19.486  0.00  0.00    +0.000 A 
ATOM      6  C   UNL     1       3.114   5.526  19.680  0.00  0.00    +0.000 A 
ATOM      7  C   UNL     1       2.609   4.259  19.344  0.00  0.00    +0.000 A 
ATOM      8  C   UNL     1       1.261   3.928  19.564  0.00  0.00    +0.000 A 
ATOM      9  C   UNL     1       0.774   2.661  19.238  0.00  0.00    +0.000 A 
ATOM     10  C   UNL     1       1.629   1.711  18.688  0.00  0.00    +0.000 A 
ATOM     11  C   UNL     1       2.970   2.019  18.465  0.00  0.00    +0.000 A 
ATOM     12  C   UNL     1       3.478   3.289  18.790  0.00  0.00    +0.000 A 
ATOM     13  C   UNL     1       4.832   3.608  18.590  0.00  0.00    +0.000 A 
ENDBRANCH   2   4
BRANCH   2  14
ATOM     14  N   UNL     1       7.104   6.590  17.819  0.00  0.00    +0.000 NA
ATOM     15  H   UNL     1       7.999   6.670  17.329  0.00  0.00    +0.000 HD
BRANCH  14  16
ATOM     16  C   UNL     1       5.978   6.671  16.861  0.00  0.00    +0.000 C 
BRANCH  16  17
ATOM     17  C   UNL     1       6.128   5.759  15.663  0.00  0.00    +0.000 A 
ATOM     18  C   UNL     1       5.045   5.011  15.205  0.00  0.00    +0.000 A 
ATOM     19  C   UNL     1       5.237   4.129  14.145  0.00  0.00    +0.000 A 
ATOM     20  C   UNL     1       6.497   4.021  13.569  0.00  0.00    +0.000 A 
ATOM     21  C   UNL     1       7.516   4.811  14.075  0.00  0.00    +0.000 A 
ATOM     22  N   UNL     1       7.359   5.682  15.097  0.00  0.00    +0.000 NA
ENDBRANCH  16  17
ENDBRANCH  14  16
ENDBRANCH   2  14
TORSDOF 4
ENDMDL
