MODEL 1
REMARK VINA RESULT:      -9.7      0.000      0.000
REMARK  Name = 
REMARK  6 active torsions:
REMARK  status: ('A' for Active; 'I' for Inactive)
REMARK    1  A    between atoms: C_2  and  C_23
REMARK    2  A    between atoms: N_3  and  C_4
REMARK    3  A    between atoms: C_4  and  C_5
REMARK    4  A    between atoms: C_5  and  C_6
REMARK    5  A    between atoms: C_6  and  N_7
REMARK    6  A    between atoms: C_13  and  C_15
REMARK                            x       y       z     vdW  Elec       q    Type
REMARK                         _______ _______ _______ _____ _____    ______ ____
ROOT
ATOM      1  C   UNL     1       6.566   5.898  17.271  0.00  0.00    +0.000 C 
ATOM      2  C   UNL     1       5.363   6.600  16.599  0.00  0.00    +0.000 C 
ATOM      3  C   UNL     1       4.332   7.092  17.616  0.00  0.00    +0.000 C 
ATOM      4  N   UNL     1       3.943   6.009  18.521  0.00  0.00    +0.000 N 
ATOM      5  C   UNL     1       2.617   5.547  18.499  0.00  0.00    +0.000 C 
ATOM      6  O   UNL     1       1.789   5.953  17.679  0.00  0.00    +0.000 OA
ATOM      7  C   UNL     1       5.055   5.375  19.229  0.00  0.00    +0.000 C 
ATOM      8  C   UNL     1       6.065   4.816  18.244  0.00  0.00    +0.000 C 
ENDROOT
BRANCH   5   9
ATOM      9  C   UNL     1       2.158   4.513  19.468  0.00  0.00    +0.000 A 
ATOM     10  C   UNL     1       2.339   4.651  20.853  0.00  0.00    +0.000 A 
ATOM     11  C   UNL     1       1.988   3.618  21.720  0.00  0.00    +0.000 A 
ATOM     12  C   UNL     1       1.344   2.486  21.226  0.00  0.00    +0.000 A 
ATOM     13  C   UNL     1       1.060   2.385  19.863  0.00  0.00    +0.000 A 
ATOM     14  C   UNL     1       1.477   3.386  18.983  0.00  0.00    +0.000 A 
ENDBRANCH   5   9
BRANCH   1  15
ATOM     15  N   UNL     1       7.372   5.125  16.216  0.00  0.00    +0.000 N 
ATOM     16  O   UNL     1       8.026   4.142  16.588  0.00  0.00    +0.000 OA
ATOM     17  O   UNL     1       7.376   5.573  15.062  0.00  0.00    +0.000 OA
ENDBRANCH   1  15
BRANCH   1  18
ATOM     18  C   UNL     1       7.513   6.876  18.025  0.00  0.00    +0.000 C 
BRANCH  18  19
ATOM     19  C   UNL     1       7.527   8.324  17.536  0.00  0.00    +0.000 C 
BRANCH  19  22
ATOM     20  O   UNL     1       7.860  11.110  17.469  0.00  0.00    +0.000 OA
ATOM     21  C   UNL     1       8.691  10.435  18.070  0.00  0.00    +0.000 C 
ATOM     22  N   UNL     1       8.612   9.061  18.162  0.00  0.00    +0.000 N 
ATOM     23  H   UNL     1       9.358   8.536  18.601  0.00  0.00    +0.000 HD
BRANCH  21  24
ATOM     24  C   UNL     1       9.858  11.093  18.726  0.00  0.00    +0.000 A 
ATOM     25  C   UNL     1       9.903  11.335  20.105  0.00  0.00    +0.000 A 
ATOM     26  C   UNL     1      11.001  11.997  20.662  0.00  0.00    +0.000 A 
ATOM     27  C   UNL     1      12.052  12.418  19.849  0.00  0.00    +0.000 A 
ATOM     28  C   UNL     1      12.014  12.179  18.478  0.00  0.00    +0.000 A 
ATOM     29  C   UNL     1      10.918  11.521  17.916  0.00  0.00    +0.000 A 
ENDBRANCH  21  24
ENDBRANCH  19  22
ENDBRANCH  18  19
ENDBRANCH   1  18
TORSDOF 6
ENDMDL
MODEL 2
REMARK VINA RESULT:      -9.3      0.532      1.049
REMARK  Name = 
REMARK  6 active torsions:
REMARK  status: ('A' for Active; 'I' for Inactive)
REMARK    1  A    between atoms: C_2  and  C_23
REMARK    2  A    between atoms: N_3  and  C_4
REMARK    3  A    between atoms: C_4  and  C_5
REMARK    4  A    between atoms: C_5  and  C_6
REMARK    5  A    between atoms: C_6  and  N_7
REMARK    6  A    between atoms: C_13  and  C_15
REMARK                            x       y       z     vdW  Elec       q    Type
REMARK                         _______ _______ _______ _____ _____    ______ ____
ROOT
ATOM      1  C   UNL     1       6.427   5.794  16.676  0.00  0.00    +0.000 C 
ATOM      2  C   UNL     1       5.180   6.588  16.223  0.00  0.00    +0.000 C 
ATOM      3  C   UNL     1       4.329   7.059  17.402  0.00  0.00    +0.000 C 
ATOM      4  N   UNL     1       4.014   5.940  18.292  0.00  0.00    +0.000 N 
ATOM      5  C   UNL     1       2.675   5.538  18.434  0.00  0.00    +0.000 C 
ATOM      6  O   UNL     1       1.763   6.031  17.764  0.00  0.00    +0.000 OA
ATOM      7  C   UNL     1       5.179   5.215  18.797  0.00  0.00    +0.000 C 
ATOM      8  C   UNL     1       6.011   4.675  17.648  0.00  0.00    +0.000 C 
ENDROOT
BRANCH   5   9
ATOM      9  C   UNL     1       2.303   4.466  19.399  0.00  0.00    +0.000 A 
ATOM     10  C   UNL     1       1.917   3.183  18.980  0.00  0.00    +0.000 A 
ATOM     11  C   UNL     1       1.479   2.238  19.906  0.00  0.00    +0.000 A 
ATOM     12  C   UNL     1       1.535   2.524  21.268  0.00  0.00    +0.000 A 
ATOM     13  C   UNL     1       2.020   3.759  21.703  0.00  0.00    +0.000 A 
ATOM     14  C   UNL     1       2.389   4.733  20.773  0.00  0.00    +0.000 A 
ENDBRANCH   5   9
BRANCH   1  15
ATOM     15  N   UNL     1       7.036   5.054  15.474  0.00  0.00    +0.000 N 
ATOM     16  O   UNL     1       6.739   3.863  15.312  0.00  0.00    +0.000 OA
ATOM     17  O   UNL     1       7.845   5.675  14.774  0.00  0.00    +0.000 OA
ENDBRANCH   1  15
BRANCH   1  18
ATOM     18  C   UNL     1       7.519   6.680  17.340  0.00  0.00    +0.000 C 
BRANCH  18  19
ATOM     19  C   UNL     1       7.239   8.181  17.396  0.00  0.00    +0.000 C 
BRANCH  19  22
ATOM     20  O   UNL     1       7.701  10.948  17.321  0.00  0.00    +0.000 OA
ATOM     21  C   UNL     1       8.467  10.243  17.971  0.00  0.00    +0.000 C 
ATOM     22  N   UNL     1       8.322   8.876  18.071  0.00  0.00    +0.000 N 
ATOM     23  H   UNL     1       9.019   8.323  18.554  0.00  0.00    +0.000 HD
BRANCH  21  24
ATOM     24  C   UNL     1       9.627  10.857  18.682  0.00  0.00    +0.000 A 
ATOM     25  C   UNL     1       9.627  11.074  20.066  0.00  0.00    +0.000 A 
ATOM     26  C   UNL     1      10.721  11.694  20.675  0.00  0.00    +0.000 A 
ATOM     27  C   UNL     1      11.814  12.098  19.910  0.00  0.00    +0.000 A 
ATOM     28  C   UNL     1      11.821  11.884  18.534  0.00  0.00    +0.000 A 
ATOM     29  C   UNL     1      10.729  11.268  17.919  0.00  0.00    +0.000 A 
ENDBRANCH  21  24
ENDBRANCH  19  22
ENDBRANCH  18  19
ENDBRANCH   1  18
TORSDOF 6
ENDMDL
MODEL 3
REMARK VINA RESULT:      -8.8      0.978      1.162
REMARK  Name = 
REMARK  6 active torsions:
REMARK  status: ('A' for Active; 'I' for Inactive)
REMARK    1  A    between atoms: C_2  and  C_23
REMARK    2  A    between atoms: N_3  and  C_4
REMARK    3  A    between atoms: C_4  and  C_5
REMARK    4  A    between atoms: C_5  and  C_6
REMARK    5  A    between atoms: C_6  and  N_7
REMARK    6  A    between atoms: C_13  and  C_15
REMARK                            x       y       z     vdW  Elec       q    Type
REMARK                         _______ _______ _______ _____ _____    ______ ____
ROOT
ATOM      1  C   UNL     1       6.430   5.715  16.359  0.00  0.00    +0.000 C 
ATOM      2  C   UNL     1       5.182   6.541  15.969  0.00  0.00    +0.000 C 
ATOM      3  C   UNL     1       4.423   7.062  17.190  0.00  0.00    +0.000 C 
ATOM      4  N   UNL     1       4.131   5.970  18.121  0.00  0.00    +0.000 N 
ATOM      5  C   UNL     1       2.792   5.616  18.355  0.00  0.00    +0.000 C 
ATOM      6  O   UNL     1       1.855   6.126  17.735  0.00  0.00    +0.000 OA
ATOM      7  C   UNL     1       5.302   5.217  18.566  0.00  0.00    +0.000 C 
ATOM      8  C   UNL     1       6.041   4.629  17.379  0.00  0.00    +0.000 C 
ENDROOT
BRANCH   5   9
ATOM      9  C   UNL     1       2.448   4.575  19.364  0.00  0.00    +0.000 A 
ATOM     10  C   UNL     1       2.397   4.853  20.739  0.00  0.00    +0.000 A 
ATOM     11  C   UNL     1       2.171   3.831  21.659  0.00  0.00    +0.000 A 
ATOM     12  C   UNL     1       1.877   2.546  21.212  0.00  0.00    +0.000 A 
ATOM     13  C   UNL     1       1.819   2.280  19.842  0.00  0.00    +0.000 A 
ATOM     14  C   UNL     1       2.117   3.286  18.920  0.00  0.00    +0.000 A 
ENDBRANCH   5   9
BRANCH   1  15
ATOM     15  N   UNL     1       6.937   4.933  15.137  0.00  0.00    +0.000 N 
ATOM     16  O   UNL     1       7.819   5.451  14.440  0.00  0.00    +0.000 OA
ATOM     17  O   UNL     1       6.384   3.857  14.880  0.00  0.00    +0.000 OA
ENDBRANCH   1  15
BRANCH   1  18
ATOM     18  C   UNL     1       7.590   6.577  16.935  0.00  0.00    +0.000 C 
BRANCH  18  19
ATOM     19  C   UNL     1       7.719   6.618  18.457  0.00  0.00    +0.000 C 
BRANCH  19  22
ATOM     20  O   UNL     1       7.392   9.265  17.583  0.00  0.00    +0.000 OA
ATOM     21  C   UNL     1       8.294   9.017  18.379  0.00  0.00    +0.000 C 
ATOM     22  N   UNL     1       8.532   7.750  18.868  0.00  0.00    +0.000 N 
ATOM     23  H   UNL     1       9.333   7.574  19.461  0.00  0.00    +0.000 HD
BRANCH  21  24
ATOM     24  C   UNL     1       9.202  10.106  18.844  0.00  0.00    +0.000 A 
ATOM     25  C   UNL     1       9.313  10.462  20.194  0.00  0.00    +0.000 A 
ATOM     26  C   UNL     1      10.145  11.520  20.570  0.00  0.00    +0.000 A 
ATOM     27  C   UNL     1      10.864  12.224  19.606  0.00  0.00    +0.000 A 
ATOM     28  C   UNL     1      10.760  11.874  18.262  0.00  0.00    +0.000 A 
ATOM     29  C   UNL     1       9.928  10.820  17.880  0.00  0.00    +0.000 A 
ENDBRANCH  21  24
ENDBRANCH  19  22
ENDBRANCH  18  19
ENDBRANCH   1  18
TORSDOF 6
ENDMDL
MODEL 4
REMARK VINA RESULT:      -8.6      0.613      1.392
REMARK  Name = 
REMARK  6 active torsions:
REMARK  status: ('A' for Active; 'I' for Inactive)
REMARK    1  A    between atoms: C_2  and  C_23
REMARK    2  A    between atoms: N_3  and  C_4
REMARK    3  A    between atoms: C_4  and  C_5
REMARK    4  A    between atoms: C_5  and  C_6
REMARK    5  A    between atoms: C_6  and  N_7
REMARK    6  A    between atoms: C_13  and  C_15
REMARK                            x       y       z     vdW  Elec       q    Type
REMARK                         _______ _______ _______ _____ _____    ______ ____
ROOT
ATOM      1  C   UNL     1       6.593   5.937  17.361  0.00  0.00    +0.000 C 
ATOM      2  C   UNL     1       5.381   6.587  16.654  0.00  0.00    +0.000 C 
ATOM      3  C   UNL     1       4.310   7.052  17.642  0.00  0.00    +0.000 C 
ATOM      4  N   UNL     1       3.940   5.967  18.552  0.00  0.00    +0.000 N 
ATOM      5  C   UNL     1       2.632   5.456  18.507  0.00  0.00    +0.000 C 
ATOM      6  O   UNL     1       1.809   5.823  17.663  0.00  0.00    +0.000 OA
ATOM      7  C   UNL     1       5.058   5.382  19.292  0.00  0.00    +0.000 C 
ATOM      8  C   UNL     1       6.109   4.849  18.337  0.00  0.00    +0.000 C 
ENDROOT
BRANCH   5   9
ATOM      9  C   UNL     1       2.189   4.418  19.478  0.00  0.00    +0.000 A 
ATOM     10  C   UNL     1       1.501   3.262  19.077  0.00  0.00    +0.000 A 
ATOM     11  C   UNL     1       1.014   2.363  20.024  0.00  0.00    +0.000 A 
ATOM     12  C   UNL     1       1.311   2.547  21.372  0.00  0.00    +0.000 A 
ATOM     13  C   UNL     1       2.087   3.636  21.773  0.00  0.00    +0.000 A 
ATOM     14  C   UNL     1       2.513   4.577  20.834  0.00  0.00    +0.000 A 
ENDBRANCH   5   9
BRANCH   1  15
ATOM     15  N   UNL     1       7.450   5.181  16.334  0.00  0.00    +0.000 N 
ATOM     16  O   UNL     1       8.076   4.185  16.718  0.00  0.00    +0.000 OA
ATOM     17  O   UNL     1       7.520   5.655  15.193  0.00  0.00    +0.000 OA
ENDBRANCH   1  15
BRANCH   1  18
ATOM     18  C   UNL     1       7.486   6.958  18.124  0.00  0.00    +0.000 C 
BRANCH  18  19
ATOM     19  C   UNL     1       7.814   8.258  17.391  0.00  0.00    +0.000 C 
BRANCH  19  22
ATOM     20  O   UNL     1       7.846  11.055  17.166  0.00  0.00    +0.000 OA
ATOM     21  C   UNL     1       8.489  10.532  18.072  0.00  0.00    +0.000 C 
ATOM     22  N   UNL     1       8.532   9.168  18.267  0.00  0.00    +0.000 N 
ATOM     23  H   UNL     1       9.134   8.773  18.978  0.00  0.00    +0.000 HD
BRANCH  21  24
ATOM     24  C   UNL     1       9.281  11.378  19.012  0.00  0.00    +0.000 A 
ATOM     25  C   UNL     1      10.028  12.481  18.577  0.00  0.00    +0.000 A 
ATOM     26  C   UNL     1      10.789  13.213  19.493  0.00  0.00    +0.000 A 
ATOM     27  C   UNL     1      10.808  12.849  20.838  0.00  0.00    +0.000 A 
ATOM     28  C   UNL     1      10.067  11.754  21.277  0.00  0.00    +0.000 A 
ATOM     29  C   UNL     1       9.307  11.018  20.366  0.00  0.00    +0.000 A 
ENDBRANCH  21  24
ENDBRANCH  19  22
ENDBRANCH  18  19
ENDBRANCH   1  18
TORSDOF 6
ENDMDL
MODEL 5
REMARK VINA RESULT:      -8.5      0.619      1.288
REMARK  Name = 
REMARK  6 active torsions:
REMARK  status: ('A' for Active; 'I' for Inactive)
REMARK    1  A    between atoms: C_2  and  C_23
REMARK    2  A    between atoms: N_3  and  C_4
REMARK    3  A    between atoms: C_4  and  C_5
REMARK    4  A    between atoms: C_5  and  C_6
REMARK    5  A    between atoms: C_6  and  N_7
REMARK    6  A    between atoms: C_13  and  C_15
REMARK                            x       y       z     vdW  Elec       q    Type
REMARK                         _______ _______ _______ _____ _____    ______ ____
ROOT
ATOM      1  C   UNL     1       6.736   5.888  17.106  0.00  0.00    +0.000 C 
ATOM      2  C   UNL     1       5.468   6.587  16.564  0.00  0.00    +0.000 C 
ATOM      3  C   UNL     1       4.524   7.031  17.681  0.00  0.00    +0.000 C 
ATOM      4  N   UNL     1       4.233   5.917  18.586  0.00  0.00    +0.000 N 
ATOM      5  C   UNL     1       2.917   5.432  18.667  0.00  0.00    +0.000 C 
ATOM      6  O   UNL     1       2.014   5.846  17.935  0.00  0.00    +0.000 OA
ATOM      7  C   UNL     1       5.412   5.283  19.173  0.00  0.00    +0.000 C 
ATOM      8  C   UNL     1       6.339   4.770  18.087  0.00  0.00    +0.000 C 
ENDROOT
BRANCH   5   9
ATOM      9  C   UNL     1       2.561   4.363  19.641  0.00  0.00    +0.000 A 
ATOM     10  C   UNL     1       3.485   3.391  20.056  0.00  0.00    +0.000 A 
ATOM     11  C   UNL     1       3.088   2.347  20.890  0.00  0.00    +0.000 A 
ATOM     12  C   UNL     1       1.797   2.330  21.414  0.00  0.00    +0.000 A 
ATOM     13  C   UNL     1       0.902   3.353  21.095  0.00  0.00    +0.000 A 
ATOM     14  C   UNL     1       1.275   4.358  20.201  0.00  0.00    +0.000 A 
ENDBRANCH   5   9
BRANCH   1  15
ATOM     15  N   UNL     1       7.457   5.159  15.961  0.00  0.00    +0.000 N 
ATOM     16  O   UNL     1       7.518   5.722  14.860  0.00  0.00    +0.000 OA
ATOM     17  O   UNL     1       7.877   4.017  16.188  0.00  0.00    +0.000 OA
ENDBRANCH   1  15
BRANCH   1  18
ATOM     18  C   UNL     1       7.731   6.861  17.802  0.00  0.00    +0.000 C 
BRANCH  18  19
ATOM     19  C   UNL     1       7.496   8.354  17.576  0.00  0.00    +0.000 C 
BRANCH  19  22
ATOM     20  O   UNL     1       7.806  11.134  17.351  0.00  0.00    +0.000 OA
ATOM     21  C   UNL     1       8.649  10.499  17.978  0.00  0.00    +0.000 C 
ATOM     22  N   UNL     1       8.582   9.132  18.147  0.00  0.00    +0.000 N 
ATOM     23  H   UNL     1       9.336   8.637  18.605  0.00  0.00    +0.000 HD
BRANCH  21  24
ATOM     24  C   UNL     1       9.818  11.201  18.583  0.00  0.00    +0.000 A 
ATOM     25  C   UNL     1      10.840  11.759  17.805  0.00  0.00    +0.000 A 
ATOM     26  C   UNL     1      11.936  12.367  18.424  0.00  0.00    +0.000 A 
ATOM     27  C   UNL     1      12.016  12.419  19.815  0.00  0.00    +0.000 A 
ATOM     28  C   UNL     1      11.002  11.868  20.594  0.00  0.00    +0.000 A 
ATOM     29  C   UNL     1       9.906  11.257  19.981  0.00  0.00    +0.000 A 
ENDBRANCH  21  24
ENDBRANCH  19  22
ENDBRANCH  18  19
ENDBRANCH   1  18
TORSDOF 6
ENDMDL
MODEL 6
REMARK VINA RESULT:      -8.4      4.503      7.989
REMARK  Name = 
REMARK  6 active torsions:
REMARK  status: ('A' for Active; 'I' for Inactive)
REMARK    1  A    between atoms: C_2  and  C_23
REMARK    2  A    between atoms: N_3  and  C_4
REMARK    3  A    between atoms: C_4  and  C_5
REMARK    4  A    between atoms: C_5  and  C_6
REMARK    5  A    between atoms: C_6  and  N_7
REMARK    6  A    between atoms: C_13  and  C_15
REMARK                            x       y       z     vdW  Elec       q    Type
REMARK                         _______ _______ _______ _____ _____    ______ ____
ROOT
ATOM      1  C   UNL     1       3.941   5.419  18.847  0.00  0.00    +0.000 C 
ATOM      2  C   UNL     1       5.362   5.014  19.300  0.00  0.00    +0.000 C 
ATOM      3  C   UNL     1       6.454   5.686  18.467  0.00  0.00    +0.000 C 
ATOM      4  N   UNL     1       6.216   5.476  17.038  0.00  0.00    +0.000 N 
ATOM      5  C   UNL     1       7.141   4.721  16.298  0.00  0.00    +0.000 C 
ATOM      6  O   UNL     1       8.098   4.147  16.825  0.00  0.00    +0.000 OA
ATOM      7  C   UNL     1       4.906   5.920  16.565  0.00  0.00    +0.000 C 
ATOM      8  C   UNL     1       3.798   5.219  17.327  0.00  0.00    +0.000 C 
ENDROOT
BRANCH   5   9
ATOM      9  C   UNL     1       6.986   4.562  14.825  0.00  0.00    +0.000 A 
ATOM     10  C   UNL     1       6.069   3.661  14.262  0.00  0.00    +0.000 A 
ATOM     11  C   UNL     1       6.023   3.467  12.883  0.00  0.00    +0.000 A 
ATOM     12  C   UNL     1       6.807   4.256  12.044  0.00  0.00    +0.000 A 
ATOM     13  C   UNL     1       7.644   5.232  12.587  0.00  0.00    +0.000 A 
ATOM     14  C   UNL     1       7.746   5.377  13.973  0.00  0.00    +0.000 A 
ENDBRANCH   5   9
BRANCH   1  15
ATOM     15  N   UNL     1       2.907   4.463  19.462  0.00  0.00    +0.000 N 
ATOM     16  O   UNL     1       2.833   4.401  20.696  0.00  0.00    +0.000 OA
ATOM     17  O   UNL     1       2.253   3.756  18.685  0.00  0.00    +0.000 OA
ENDBRANCH   1  15
BRANCH   1  18
ATOM     18  C   UNL     1       3.567   6.884  19.215  0.00  0.00    +0.000 C 
BRANCH  18  19
ATOM     19  C   UNL     1       2.229   7.400  18.687  0.00  0.00    +0.000 C 
BRANCH  19  22
ATOM     20  O   UNL     1       1.205  10.013  18.636  0.00  0.00    +0.000 OA
ATOM     21  C   UNL     1       1.012   9.327  19.635  0.00  0.00    +0.000 C 
ATOM     22  N   UNL     1       1.471   8.032  19.754  0.00  0.00    +0.000 N 
ATOM     23  H   UNL     1       1.356   7.527  20.623  0.00  0.00    +0.000 HD
BRANCH  21  24
ATOM     24  C   UNL     1       0.266   9.891  20.797  0.00  0.00    +0.000 A 
ATOM     25  C   UNL     1      -0.197  11.214  20.818  0.00  0.00    +0.000 A 
ATOM     26  C   UNL     1      -0.851  11.706  21.951  0.00  0.00    +0.000 A 
ATOM     27  C   UNL     1      -1.045  10.885  23.062  0.00  0.00    +0.000 A 
ATOM     28  C   UNL     1      -0.588   9.570  23.047  0.00  0.00    +0.000 A 
ATOM     29  C   UNL     1       0.069   9.074  21.918  0.00  0.00    +0.000 A 
ENDBRANCH  21  24
ENDBRANCH  19  22
ENDBRANCH  18  19
ENDBRANCH   1  18
TORSDOF 6
ENDMDL
MODEL 7
REMARK VINA RESULT:      -8.4      4.777      7.859
REMARK  Name = 
REMARK  6 active torsions:
REMARK  status: ('A' for Active; 'I' for Inactive)
REMARK    1  A    between atoms: C_2  and  C_23
REMARK    2  A    between atoms: N_3  and  C_4
REMARK    3  A    between atoms: C_4  and  C_5
REMARK    4  A    between atoms: C_5  and  C_6
REMARK    5  A    between atoms: C_6  and  N_7
REMARK    6  A    between atoms: C_13  and  C_15
REMARK                            x       y       z     vdW  Elec       q    Type
REMARK                         _______ _______ _______ _____ _____    ______ ____
ROOT
ATOM      1  C   UNL     1       3.456   3.979  18.648  0.00  0.00    +0.000 C 
ATOM      2  C   UNL     1       4.895   4.121  19.196  0.00  0.00    +0.000 C 
ATOM      3  C   UNL     1       5.698   5.191  18.456  0.00  0.00    +0.000 C 
ATOM      4  N   UNL     1       5.646   4.967  17.009  0.00  0.00    +0.000 N 
ATOM      5  C   UNL     1       6.831   4.649  16.327  0.00  0.00    +0.000 C 
ATOM      6  O   UNL     1       7.900   4.457  16.913  0.00  0.00    +0.000 OA
ATOM      7  C   UNL     1       4.297   4.903  16.450  0.00  0.00    +0.000 C 
ATOM      8  C   UNL     1       3.493   3.804  17.119  0.00  0.00    +0.000 C 
ENDROOT
BRANCH   5   9
ATOM      9  C   UNL     1       6.838   4.506  14.844  0.00  0.00    +0.000 A 
ATOM     10  C   UNL     1       5.958   3.644  14.171  0.00  0.00    +0.000 A 
ATOM     11  C   UNL     1       6.061   3.461  12.794  0.00  0.00    +0.000 A 
ATOM     12  C   UNL     1       6.964   4.225  12.058  0.00  0.00    +0.000 A 
ATOM     13  C   UNL     1       7.769   5.165  12.702  0.00  0.00    +0.000 A 
ATOM     14  C   UNL     1       7.719   5.297  14.091  0.00  0.00    +0.000 A 
ENDBRANCH   5   9
BRANCH   1  15
ATOM     15  N   UNL     1       2.827   2.678  19.171  0.00  0.00    +0.000 N 
ATOM     16  O   UNL     1       2.044   2.070  18.428  0.00  0.00    +0.000 OA
ATOM     17  O   UNL     1       3.088   2.347  20.334  0.00  0.00    +0.000 OA
ENDBRANCH   1  15
BRANCH   1  18
ATOM     18  C   UNL     1       2.533   5.177  19.011  0.00  0.00    +0.000 C 
BRANCH  18  19
ATOM     19  C   UNL     1       3.228   6.474  19.421  0.00  0.00    +0.000 C 
BRANCH  19  22
ATOM     20  O   UNL     1       1.852   8.808  18.690  0.00  0.00    +0.000 OA
ATOM     21  C   UNL     1       1.737   8.396  19.841  0.00  0.00    +0.000 C 
ATOM     22  N   UNL     1       2.370   7.258  20.294  0.00  0.00    +0.000 N 
ATOM     23  H   UNL     1       2.311   6.995  21.269  0.00  0.00    +0.000 HD
BRANCH  21  24
ATOM     24  C   UNL     1       0.898   9.143  20.823  0.00  0.00    +0.000 A 
ATOM     25  C   UNL     1       0.822   8.776  22.173  0.00  0.00    +0.000 A 
ATOM     26  C   UNL     1      -0.016   9.483  23.041  0.00  0.00    +0.000 A 
ATOM     27  C   UNL     1      -0.775  10.552  22.568  0.00  0.00    +0.000 A 
ATOM     28  C   UNL     1      -0.702  10.922  21.228  0.00  0.00    +0.000 A 
ATOM     29  C   UNL     1       0.130  10.218  20.355  0.00  0.00    +0.000 A 
ENDBRANCH  21  24
ENDBRANCH  19  22
ENDBRANCH  18  19
ENDBRANCH   1  18
TORSDOF 6
ENDMDL
MODEL 8
REMARK VINA RESULT:      -8.4      4.760      7.708
REMARK  Name = 
REMARK  6 active torsions:
REMARK  status: ('A' for Active; 'I' for Inactive)
REMARK    1  A    between atoms: C_2  and  C_23
REMARK    2  A    between atoms: N_3  and  C_4
REMARK    3  A    between atoms: C_4  and  C_5
REMARK    4  A    between atoms: C_5  and  C_6
REMARK    5  A    between atoms: C_6  and  N_7
REMARK    6  A    between atoms: C_13  and  C_15
REMARK                            x       y       z     vdW  Elec       q    Type
REMARK                         _______ _______ _______ _____ _____    ______ ____
ROOT
ATOM      1  C   UNL     1       3.608   3.703  18.533  0.00  0.00    +0.000 C 
ATOM      2  C   UNL     1       5.036   3.890  19.096  0.00  0.00    +0.000 C 
ATOM      3  C   UNL     1       5.794   5.022  18.400  0.00  0.00    +0.000 C 
ATOM      4  N   UNL     1       5.758   4.850  16.946  0.00  0.00    +0.000 N 
ATOM      5  C   UNL     1       6.960   4.611  16.260  0.00  0.00    +0.000 C 
ATOM      6  O   UNL     1       8.034   4.446  16.845  0.00  0.00    +0.000 OA
ATOM      7  C   UNL     1       4.416   4.745  16.377  0.00  0.00    +0.000 C 
ATOM      8  C   UNL     1       3.660   3.587  16.999  0.00  0.00    +0.000 C 
ENDROOT
BRANCH   5   9
ATOM      9  C   UNL     1       6.980   4.524  14.773  0.00  0.00    +0.000 A 
ATOM     10  C   UNL     1       7.834   5.313  13.988  0.00  0.00    +0.000 A 
ATOM     11  C   UNL     1       7.753   5.277  12.597  0.00  0.00    +0.000 A 
ATOM     12  C   UNL     1       6.902   4.367  11.975  0.00  0.00    +0.000 A 
ATOM     13  C   UNL     1       6.125   3.499  12.746  0.00  0.00    +0.000 A 
ATOM     14  C   UNL     1       6.151   3.586  14.139  0.00  0.00    +0.000 A 
ENDBRANCH   5   9
BRANCH   1  15
ATOM     15  N   UNL     1       3.037   2.356  19.004  0.00  0.00    +0.000 N 
ATOM     16  O   UNL     1       3.434   1.327  18.442  0.00  0.00    +0.000 OA
ATOM     17  O   UNL     1       2.158   2.384  19.875  0.00  0.00    +0.000 OA
ENDBRANCH   1  15
BRANCH   1  18
ATOM     18  C   UNL     1       2.630   4.844  18.935  0.00  0.00    +0.000 C 
BRANCH  18  19
ATOM     19  C   UNL     1       3.220   5.994  19.750  0.00  0.00    +0.000 C 
BRANCH  19  22
ATOM     20  O   UNL     1       2.881   8.186  18.030  0.00  0.00    +0.000 OA
ATOM     21  C   UNL     1       2.154   8.096  19.015  0.00  0.00    +0.000 C 
ATOM     22  N   UNL     1       2.241   7.055  19.916  0.00  0.00    +0.000 N 
ATOM     23  H   UNL     1       1.675   7.058  20.755  0.00  0.00    +0.000 HD
BRANCH  21  24
ATOM     24  C   UNL     1       1.132   9.147  19.290  0.00  0.00    +0.000 A 
ATOM     25  C   UNL     1       0.802   9.548  20.591  0.00  0.00    +0.000 A 
ATOM     26  C   UNL     1      -0.196  10.506  20.794  0.00  0.00    +0.000 A 
ATOM     27  C   UNL     1      -0.864  11.064  19.705  0.00  0.00    +0.000 A 
ATOM     28  C   UNL     1      -0.539  10.671  18.409  0.00  0.00    +0.000 A 
ATOM     29  C   UNL     1       0.454   9.712  18.201  0.00  0.00    +0.000 A 
ENDBRANCH  21  24
ENDBRANCH  19  22
ENDBRANCH  18  19
ENDBRANCH   1  18
TORSDOF 6
ENDMDL
MODEL 9
REMARK VINA RESULT:      -8.4      1.359      1.729
REMARK  Name = 
REMARK  6 active torsions:
REMARK  status: ('A' for Active; 'I' for Inactive)
REMARK    1  A    between atoms: C_2  and  C_23
REMARK    2  A    between atoms: N_3  and  C_4
REMARK    3  A    between atoms: C_4  and  C_5
REMARK    4  A    between atoms: C_5  and  C_6
REMARK    5  A    between atoms: C_6  and  N_7
REMARK    6  A    between atoms: C_13  and  C_15
REMARK                            x       y       z     vdW  Elec       q    Type
REMARK                         _______ _______ _______ _____ _____    ______ ____
ROOT
ATOM      1  C   UNL     1       6.198   6.045  17.048  0.00  0.00    +0.000 C 
ATOM      2  C   UNL     1       4.947   5.934  16.145  0.00  0.00    +0.000 C 
ATOM      3  C   UNL     1       3.654   6.247  16.899  0.00  0.00    +0.000 C 
ATOM      4  N   UNL     1       3.563   5.445  18.122  0.00  0.00    +0.000 N 
ATOM      5  C   UNL     1       2.536   4.494  18.236  0.00  0.00    +0.000 C 
ATOM      6  O   UNL     1       1.763   4.240  17.308  0.00  0.00    +0.000 OA
ATOM      7  C   UNL     1       4.699   5.587  19.031  0.00  0.00    +0.000 C 
ATOM      8  C   UNL     1       5.993   5.219  18.330  0.00  0.00    +0.000 C 
ENDROOT
BRANCH   5   9
ATOM      9  C   UNL     1       2.352   3.725  19.499  0.00  0.00    +0.000 A 
ATOM     10  C   UNL     1       1.141   3.729  20.208  0.00  0.00    +0.000 A 
ATOM     11  C   UNL     1       1.038   3.080  21.437  0.00  0.00    +0.000 A 
ATOM     12  C   UNL     1       2.105   2.322  21.913  0.00  0.00    +0.000 A 
ATOM     13  C   UNL     1       3.278   2.222  21.163  0.00  0.00    +0.000 A 
ATOM     14  C   UNL     1       3.409   2.931  19.968  0.00  0.00    +0.000 A 
ENDBRANCH   5   9
BRANCH   1  15
ATOM     15  N   UNL     1       7.400   5.387  16.352  0.00  0.00    +0.000 N 
ATOM     16  O   UNL     1       8.011   4.499  16.962  0.00  0.00    +0.000 OA
ATOM     17  O   UNL     1       7.731   5.831  15.245  0.00  0.00    +0.000 OA
ENDBRANCH   1  15
BRANCH   1  18
ATOM     18  C   UNL     1       6.562   7.509  17.426  0.00  0.00    +0.000 C 
BRANCH  18  19
ATOM     19  C   UNL     1       7.927   7.726  18.079  0.00  0.00    +0.000 C 
BRANCH  19  22
ATOM     20  O   UNL     1       9.092   9.586  19.828  0.00  0.00    +0.000 OA
ATOM     21  C   UNL     1       9.024   9.866  18.634  0.00  0.00    +0.000 C 
ATOM     22  N   UNL     1       8.474   9.017  17.697  0.00  0.00    +0.000 N 
ATOM     23  H   UNL     1       8.368   9.317  16.737  0.00  0.00    +0.000 HD
BRANCH  21  24
ATOM     24  C   UNL     1       9.535  11.179  18.144  0.00  0.00    +0.000 A 
ATOM     25  C   UNL     1      10.892  11.401  17.875  0.00  0.00    +0.000 A 
ATOM     26  C   UNL     1      11.323  12.665  17.460  0.00  0.00    +0.000 A 
ATOM     27  C   UNL     1      10.408  13.705  17.314  0.00  0.00    +0.000 A 
ATOM     28  C   UNL     1       9.057  13.491  17.579  0.00  0.00    +0.000 A 
ATOM     29  C   UNL     1       8.621  12.232  17.996  0.00  0.00    +0.000 A 
ENDBRANCH  21  24
ENDBRANCH  19  22
ENDBRANCH  18  19
ENDBRANCH   1  18
TORSDOF 6
ENDMDL
