MODEL 1
REMARK VINA RESULT:      -6.6      0.000      0.000
REMARK  Name = 
REMARK  11 active torsions:
REMARK  status: ('A' for Active; 'I' for Inactive)
REMARK    1  A    between atoms: C_1  and  O_2
REMARK    2  A    between atoms: O_2  and  P_3
REMARK    3  A    between atoms: P_3  and  O_5
REMARK    4  A    between atoms: P_3  and  C_7
REMARK    5  A    between atoms: O_5  and  C_6
REMARK    6  A    between atoms: C_7  and  O_8
REMARK    7  A    between atoms: C_7  and  C_20
REMARK    8  A    between atoms: O_8  and  C_9
REMARK    9  A    between atoms: C_9  and  C_11
REMARK   10  A    between atoms: C_11  and  O_12
REMARK   11  A    between atoms: O_12  and  C_13
REMARK                            x       y       z     vdW  Elec       q    Type
REMARK                         _______ _______ _______ _____ _____    ______ ____
ROOT
ATOM      1  C   UNL     1       4.388   5.418  18.091  0.00  0.00    +0.000 C 
ENDROOT
BRANCH   1   2
ATOM      2  C   UNL     1       4.007   3.977  18.344  0.00  0.00    +0.000 A 
ATOM      3  C   UNL     1       3.568   2.935  17.551  0.00  0.00    +0.000 A 
ATOM      4  C   UNL     1       3.551   1.781  18.378  0.00  0.00    +0.000 A 
ATOM      5  C   UNL     1       3.966   2.183  19.624  0.00  0.00    +0.000 A 
ATOM      6  O   UNL     1       4.246   3.510  19.611  0.00  0.00    +0.000 OA
ENDBRANCH   1   2
BRANCH   1   7
ATOM      7  P   UNL     1       3.164   6.463  18.964  0.00  0.00    +0.000 P 
ATOM      8  O   UNL     1       2.026   5.684  18.269  0.00  0.00    +0.000 OA
BRANCH   7  10
ATOM      9  C   UNL     1       1.409   6.801  20.895  0.00  0.00    +0.000 C 
ATOM     10  O   UNL     1       2.007   7.449  19.789  0.00  0.00    +0.000 OA
ENDBRANCH   7  10
BRANCH   7  11
ATOM     11  O   UNL     1       3.524   7.743  17.965  0.00  0.00    +0.000 OA
ATOM     12  C   UNL     1       2.482   8.635  17.612  0.00  0.00    +0.000 C 
ENDBRANCH   7  11
ENDBRANCH   1   7
BRANCH   1  13
ATOM     13  O   UNL     1       5.721   5.538  18.677  0.00  0.00    +0.000 OA
BRANCH  13  14
ATOM     14  C   UNL     1       6.760   5.342  17.808  0.00  0.00    +0.000 C 
ATOM     15  O   UNL     1       7.705   4.595  18.024  0.00  0.00    +0.000 OA
BRANCH  14  16
ATOM     16  C   UNL     1       6.482   6.017  16.476  0.00  0.00    +0.000 C 
BRANCH  16  17
ATOM     17  O   UNL     1       7.436   5.677  15.491  0.00  0.00    +0.000 OA
BRANCH  17  18
ATOM     18  C   UNL     1       6.960   4.969  14.418  0.00  0.00    +0.000 A 
ATOM     19  C   UNL     1       7.549   4.898  13.150  0.00  0.00    +0.000 A 
ATOM     20  C   UNL     1       6.966   4.117  12.147  0.00  0.00    +0.000 A 
ATOM     21  C   UNL     1       5.796   3.418  12.414  0.00  0.00    +0.000 A 
ATOM     22  F   UNL     1       5.243   2.667  11.452  0.00  0.00    +0.000 F 
ATOM     23  C   UNL     1       5.194   3.487  13.663  0.00  0.00    +0.000 A 
ATOM     24  C   UNL     1       5.778   4.264  14.664  0.00  0.00    +0.000 A 
ENDBRANCH  17  18
ENDBRANCH  16  17
ENDBRANCH  14  16
ENDBRANCH  13  14
ENDBRANCH   1  13
TORSDOF 9
ENDMDL
MODEL 2
REMARK VINA RESULT:      -6.5      3.366      6.262
REMARK  Name = 
REMARK  11 active torsions:
REMARK  status: ('A' for Active; 'I' for Inactive)
REMARK    1  A    between atoms: C_1  and  O_2
REMARK    2  A    between atoms: O_2  and  P_3
REMARK    3  A    between atoms: P_3  and  O_5
REMARK    4  A    between atoms: P_3  and  C_7
REMARK    5  A    between atoms: O_5  and  C_6
REMARK    6  A    between atoms: C_7  and  O_8
REMARK    7  A    between atoms: C_7  and  C_20
REMARK    8  A    between atoms: O_8  and  C_9
REMARK    9  A    between atoms: C_9  and  C_11
REMARK   10  A    between atoms: C_11  and  O_12
REMARK   11  A    between atoms: O_12  and  C_13
REMARK                            x       y       z     vdW  Elec       q    Type
REMARK                         _______ _______ _______ _____ _____    ______ ____
ROOT
ATOM      1  C   UNL     1       5.239   6.428  16.829  0.00  0.00    +0.000 C 
ENDROOT
BRANCH   1   2
ATOM      2  C   UNL     1       4.093   6.964  17.657  0.00  0.00    +0.000 A 
ATOM      3  C   UNL     1       3.190   7.998  17.513  0.00  0.00    +0.000 A 
ATOM      4  C   UNL     1       2.253   7.864  18.570  0.00  0.00    +0.000 A 
ATOM      5  C   UNL     1       2.642   6.770  19.304  0.00  0.00    +0.000 A 
ATOM      6  O   UNL     1       3.753   6.219  18.758  0.00  0.00    +0.000 OA
ENDBRANCH   1   2
BRANCH   1   7
ATOM      7  P   UNL     1       6.763   7.259  17.411  0.00  0.00    +0.000 P 
ATOM      8  O   UNL     1       7.574   6.477  16.355  0.00  0.00    +0.000 OA
BRANCH   7  10
ATOM      9  C   UNL     1       8.114   9.455  17.936  0.00  0.00    +0.000 C 
ATOM     10  O   UNL     1       8.204   8.043  17.960  0.00  0.00    +0.000 OA
ENDBRANCH   7  10
BRANCH   7  11
ATOM     11  O   UNL     1       6.768   6.318  18.784  0.00  0.00    +0.000 OA
ATOM     12  C   UNL     1       7.958   5.629  19.124  0.00  0.00    +0.000 C 
ENDBRANCH   7  11
ENDBRANCH   1   7
BRANCH   1  13
ATOM     13  O   UNL     1       5.251   4.998  17.128  0.00  0.00    +0.000 OA
BRANCH  13  14
ATOM     14  C   UNL     1       4.678   4.198  16.177  0.00  0.00    +0.000 C 
ATOM     15  O   UNL     1       5.067   4.119  15.019  0.00  0.00    +0.000 OA
BRANCH  14  16
ATOM     16  C   UNL     1       3.633   3.287  16.799  0.00  0.00    +0.000 C 
BRANCH  16  17
ATOM     17  O   UNL     1       4.067   2.731  18.024  0.00  0.00    +0.000 OA
BRANCH  17  18
ATOM     18  C   UNL     1       3.154   2.754  19.045  0.00  0.00    +0.000 A 
ATOM     19  C   UNL     1       1.785   3.028  18.924  0.00  0.00    +0.000 A 
ATOM     20  C   UNL     1       0.959   2.997  20.051  0.00  0.00    +0.000 A 
ATOM     21  C   UNL     1       1.503   2.699  21.294  0.00  0.00    +0.000 A 
ATOM     22  F   UNL     1       0.708   2.666  22.371  0.00  0.00    +0.000 F 
ATOM     23  C   UNL     1       2.860   2.435  21.433  0.00  0.00    +0.000 A 
ATOM     24  C   UNL     1       3.683   2.464  20.307  0.00  0.00    +0.000 A 
ENDBRANCH  17  18
ENDBRANCH  16  17
ENDBRANCH  14  16
ENDBRANCH  13  14
ENDBRANCH   1  13
TORSDOF 9
ENDMDL
MODEL 3
REMARK VINA RESULT:      -6.5      3.448      6.266
REMARK  Name = 
REMARK  11 active torsions:
REMARK  status: ('A' for Active; 'I' for Inactive)
REMARK    1  A    between atoms: C_1  and  O_2
REMARK    2  A    between atoms: O_2  and  P_3
REMARK    3  A    between atoms: P_3  and  O_5
REMARK    4  A    between atoms: P_3  and  C_7
REMARK    5  A    between atoms: O_5  and  C_6
REMARK    6  A    between atoms: C_7  and  O_8
REMARK    7  A    between atoms: C_7  and  C_20
REMARK    8  A    between atoms: O_8  and  C_9
REMARK    9  A    between atoms: C_9  and  C_11
REMARK   10  A    between atoms: C_11  and  O_12
REMARK   11  A    between atoms: O_12  and  C_13
REMARK                            x       y       z     vdW  Elec       q    Type
REMARK                         _______ _______ _______ _____ _____    ______ ____
ROOT
ATOM      1  C   UNL     1       5.285   5.862  17.061  0.00  0.00    +0.000 C 
ENDROOT
BRANCH   1   2
ATOM      2  C   UNL     1       4.110   6.500  17.766  0.00  0.00    +0.000 A 
ATOM      3  C   UNL     1       3.431   6.251  18.942  0.00  0.00    +0.000 A 
ATOM      4  C   UNL     1       2.522   7.327  19.116  0.00  0.00    +0.000 A 
ATOM      5  C   UNL     1       2.687   8.160  18.036  0.00  0.00    +0.000 A 
ATOM      6  O   UNL     1       3.647   7.667  17.216  0.00  0.00    +0.000 OA
ENDBRANCH   1   2
BRANCH   1   7
ATOM      7  P   UNL     1       6.788   6.769  17.582  0.00  0.00    +0.000 P 
ATOM      8  O   UNL     1       7.398   6.529  16.184  0.00  0.00    +0.000 OA
BRANCH   7  10
ATOM      9  C   UNL     1       8.090   9.030  17.928  0.00  0.00    +0.000 C 
ATOM     10  O   UNL     1       8.207   7.627  18.073  0.00  0.00    +0.000 OA
ENDBRANCH   7  10
BRANCH   7  11
ATOM     11  O   UNL     1       7.260   5.478  18.519  0.00  0.00    +0.000 OA
ATOM     12  C   UNL     1       7.718   5.734  19.835  0.00  0.00    +0.000 C 
ENDBRANCH   7  11
ENDBRANCH   1   7
BRANCH   1  13
ATOM     13  O   UNL     1       5.285   4.485  17.551  0.00  0.00    +0.000 OA
BRANCH  13  14
ATOM     14  C   UNL     1       5.164   3.522  16.586  0.00  0.00    +0.000 C 
ATOM     15  O   UNL     1       5.885   3.443  15.600  0.00  0.00    +0.000 OA
BRANCH  14  16
ATOM     16  C   UNL     1       4.155   2.466  17.004  0.00  0.00    +0.000 C 
BRANCH  16  17
ATOM     17  O   UNL     1       2.893   3.021  17.315  0.00  0.00    +0.000 OA
BRANCH  17  18
ATOM     18  C   UNL     1       2.496   2.903  18.621  0.00  0.00    +0.000 A 
ATOM     19  C   UNL     1       3.295   2.484  19.693  0.00  0.00    +0.000 A 
ATOM     20  C   UNL     1       2.765   2.428  20.985  0.00  0.00    +0.000 A 
ATOM     21  C   UNL     1       1.440   2.784  21.201  0.00  0.00    +0.000 A 
ATOM     22  F   UNL     1       0.937   2.734  22.441  0.00  0.00    +0.000 F 
ATOM     23  C   UNL     1       0.631   3.191  20.147  0.00  0.00    +0.000 A 
ATOM     24  C   UNL     1       1.162   3.249  18.858  0.00  0.00    +0.000 A 
ENDBRANCH  17  18
ENDBRANCH  16  17
ENDBRANCH  14  16
ENDBRANCH  13  14
ENDBRANCH   1  13
TORSDOF 9
ENDMDL
MODEL 4
REMARK VINA RESULT:      -6.4      3.022      6.393
REMARK  Name = 
REMARK  11 active torsions:
REMARK  status: ('A' for Active; 'I' for Inactive)
REMARK    1  A    between atoms: C_1  and  O_2
REMARK    2  A    between atoms: O_2  and  P_3
REMARK    3  A    between atoms: P_3  and  O_5
REMARK    4  A    between atoms: P_3  and  C_7
REMARK    5  A    between atoms: O_5  and  C_6
REMARK    6  A    between atoms: C_7  and  O_8
REMARK    7  A    between atoms: C_7  and  C_20
REMARK    8  A    between atoms: O_8  and  C_9
REMARK    9  A    between atoms: C_9  and  C_11
REMARK   10  A    between atoms: C_11  and  O_12
REMARK   11  A    between atoms: O_12  and  C_13
REMARK                            x       y       z     vdW  Elec       q    Type
REMARK                         _______ _______ _______ _____ _____    ______ ____
ROOT
ATOM      1  C   UNL     1       4.787   5.361  17.672  0.00  0.00    +0.000 C 
ENDROOT
BRANCH   1   2
ATOM      2  C   UNL     1       4.007   4.073  17.802  0.00  0.00    +0.000 A 
ATOM      3  C   UNL     1       2.983   3.480  17.090  0.00  0.00    +0.000 A 
ATOM      4  C   UNL     1       2.814   2.182  17.636  0.00  0.00    +0.000 A 
ATOM      5  C   UNL     1       3.729   2.059  18.653  0.00  0.00    +0.000 A 
ATOM      6  O   UNL     1       4.456   3.198  18.759  0.00  0.00    +0.000 OA
ENDBRANCH   1   2
BRANCH   1   7
ATOM      7  P   UNL     1       6.218   5.022  16.582  0.00  0.00    +0.000 P 
ATOM      8  O   UNL     1       7.037   4.589  17.817  0.00  0.00    +0.000 OA
BRANCH   7  10
ATOM      9  C   UNL     1       7.265   4.823  14.176  0.00  0.00    +0.000 C 
ATOM     10  O   UNL     1       7.570   4.701  15.552  0.00  0.00    +0.000 OA
ENDBRANCH   7  10
BRANCH   7  11
ATOM     11  O   UNL     1       6.485   6.654  16.401  0.00  0.00    +0.000 OA
ATOM     12  C   UNL     1       7.250   7.324  17.386  0.00  0.00    +0.000 C 
ENDBRANCH   7  11
ENDBRANCH   1   7
BRANCH   1  13
ATOM     13  O   UNL     1       3.839   6.286  17.053  0.00  0.00    +0.000 OA
BRANCH  13  14
ATOM     14  C   UNL     1       3.299   7.219  17.896  0.00  0.00    +0.000 C 
ATOM     15  O   UNL     1       2.800   8.273  17.525  0.00  0.00    +0.000 OA
BRANCH  14  16
ATOM     16  C   UNL     1       3.225   6.683  19.316  0.00  0.00    +0.000 C 
BRANCH  16  17
ATOM     17  O   UNL     1       1.901   6.387  19.710  0.00  0.00    +0.000 OA
BRANCH  17  18
ATOM     18  C   UNL     1       1.707   5.150  20.266  0.00  0.00    +0.000 A 
ATOM     19  C   UNL     1       0.733   4.218  19.886  0.00  0.00    +0.000 A 
ATOM     20  C   UNL     1       0.658   2.978  20.527  0.00  0.00    +0.000 A 
ATOM     21  C   UNL     1       1.551   2.677  21.547  0.00  0.00    +0.000 A 
ATOM     22  F   UNL     1       1.480   1.485  22.155  0.00  0.00    +0.000 F 
ATOM     23  C   UNL     1       2.516   3.594  21.943  0.00  0.00    +0.000 A 
ATOM     24  C   UNL     1       2.591   4.831  21.301  0.00  0.00    +0.000 A 
ENDBRANCH  17  18
ENDBRANCH  16  17
ENDBRANCH  14  16
ENDBRANCH  13  14
ENDBRANCH   1  13
TORSDOF 9
ENDMDL
MODEL 5
REMARK VINA RESULT:      -6.3      3.668      7.173
REMARK  Name = 
REMARK  11 active torsions:
REMARK  status: ('A' for Active; 'I' for Inactive)
REMARK    1  A    between atoms: C_1  and  O_2
REMARK    2  A    between atoms: O_2  and  P_3
REMARK    3  A    between atoms: P_3  and  O_5
REMARK    4  A    between atoms: P_3  and  C_7
REMARK    5  A    between atoms: O_5  and  C_6
REMARK    6  A    between atoms: C_7  and  O_8
REMARK    7  A    between atoms: C_7  and  C_20
REMARK    8  A    between atoms: O_8  and  C_9
REMARK    9  A    between atoms: C_9  and  C_11
REMARK   10  A    between atoms: C_11  and  O_12
REMARK   11  A    between atoms: O_12  and  C_13
REMARK                            x       y       z     vdW  Elec       q    Type
REMARK                         _______ _______ _______ _____ _____    ______ ____
ROOT
ATOM      1  C   UNL     1       4.909   5.201  18.045  0.00  0.00    +0.000 C 
ENDROOT
BRANCH   1   2
ATOM      2  C   UNL     1       4.329   3.839  18.351  0.00  0.00    +0.000 A 
ATOM      3  C   UNL     1       3.683   2.869  17.611  0.00  0.00    +0.000 A 
ATOM      4  C   UNL     1       3.543   1.742  18.461  0.00  0.00    +0.000 A 
ATOM      5  C   UNL     1       4.096   2.089  19.670  0.00  0.00    +0.000 A 
ATOM      6  O   UNL     1       4.575   3.355  19.611  0.00  0.00    +0.000 OA
ENDBRANCH   1   2
BRANCH   1   7
ATOM      7  P   UNL     1       6.246   4.957  16.819  0.00  0.00    +0.000 P 
ATOM      8  O   UNL     1       7.186   4.502  17.957  0.00  0.00    +0.000 OA
BRANCH   7  10
ATOM      9  C   UNL     1       7.060   4.795  14.321  0.00  0.00    +0.000 C 
ATOM     10  O   UNL     1       7.511   4.726  15.661  0.00  0.00    +0.000 OA
ENDBRANCH   7  10
BRANCH   7  11
ATOM     11  O   UNL     1       6.445   6.604  16.687  0.00  0.00    +0.000 OA
ATOM     12  C   UNL     1       7.428   7.230  17.493  0.00  0.00    +0.000 C 
ENDBRANCH   7  11
ENDBRANCH   1   7
BRANCH   1  13
ATOM     13  O   UNL     1       3.785   5.945  17.482  0.00  0.00    +0.000 OA
BRANCH  13  14
ATOM     14  C   UNL     1       3.147   6.786  18.353  0.00  0.00    +0.000 C 
ATOM     15  O   UNL     1       2.937   6.526  19.531  0.00  0.00    +0.000 OA
BRANCH  14  16
ATOM     16  C   UNL     1       2.917   8.146  17.716  0.00  0.00    +0.000 C 
BRANCH  16  17
ATOM     17  O   UNL     1       1.571   8.565  17.816  0.00  0.00    +0.000 OA
BRANCH  17  18
ATOM     18  C   UNL     1       1.332   9.606  18.675  0.00  0.00    +0.000 A 
ATOM     19  C   UNL     1       0.701   9.518  19.922  0.00  0.00    +0.000 A 
ATOM     20  C   UNL     1       0.540  10.662  20.710  0.00  0.00    +0.000 A 
ATOM     21  C   UNL     1       1.004  11.886  20.247  0.00  0.00    +0.000 A 
ATOM     22  F   UNL     1       0.852  12.979  21.008  0.00  0.00    +0.000 F 
ATOM     23  C   UNL     1       1.622  11.992  19.008  0.00  0.00    +0.000 A 
ATOM     24  C   UNL     1       1.784  10.850  18.223  0.00  0.00    +0.000 A 
ENDBRANCH  17  18
ENDBRANCH  16  17
ENDBRANCH  14  16
ENDBRANCH  13  14
ENDBRANCH   1  13
TORSDOF 9
ENDMDL
MODEL 6
REMARK VINA RESULT:      -6.2      1.338      3.578
REMARK  Name = 
REMARK  11 active torsions:
REMARK  status: ('A' for Active; 'I' for Inactive)
REMARK    1  A    between atoms: C_1  and  O_2
REMARK    2  A    between atoms: O_2  and  P_3
REMARK    3  A    between atoms: P_3  and  O_5
REMARK    4  A    between atoms: P_3  and  C_7
REMARK    5  A    between atoms: O_5  and  C_6
REMARK    6  A    between atoms: C_7  and  O_8
REMARK    7  A    between atoms: C_7  and  C_20
REMARK    8  A    between atoms: O_8  and  C_9
REMARK    9  A    between atoms: C_9  and  C_11
REMARK   10  A    between atoms: C_11  and  O_12
REMARK   11  A    between atoms: O_12  and  C_13
REMARK                            x       y       z     vdW  Elec       q    Type
REMARK                         _______ _______ _______ _____ _____    ______ ____
ROOT
ATOM      1  C   UNL     1       4.481   5.988  18.635  0.00  0.00    +0.000 C 
ENDROOT
BRANCH   1   2
ATOM      2  C   UNL     1       3.319   6.954  18.655  0.00  0.00    +0.000 A 
ATOM      3  C   UNL     1       2.380   7.326  19.597  0.00  0.00    +0.000 A 
ATOM      4  C   UNL     1       1.661   8.414  19.040  0.00  0.00    +0.000 A 
ATOM      5  C   UNL     1       2.189   8.637  17.792  0.00  0.00    +0.000 A 
ATOM      6  O   UNL     1       3.193   7.759  17.552  0.00  0.00    +0.000 OA
ENDBRANCH   1   2
BRANCH   1   7
ATOM      7  P   UNL     1       3.846   4.364  19.195  0.00  0.00    +0.000 P 
ATOM      8  O   UNL     1       5.273   3.785  19.086  0.00  0.00    +0.000 OA
BRANCH   7  10
ATOM      9  C   UNL     1       3.803   1.739  19.014  0.00  0.00    +0.000 C 
ATOM     10  O   UNL     1       3.246   2.830  19.723  0.00  0.00    +0.000 OA
ENDBRANCH   7  10
BRANCH   7  11
ATOM     11  O   UNL     1       3.133   4.116  17.711  0.00  0.00    +0.000 OA
ATOM     12  C   UNL     1       1.721   4.183  17.624  0.00  0.00    +0.000 C 
ENDBRANCH   7  11
ENDBRANCH   1   7
BRANCH   1  13
ATOM     13  O   UNL     1       4.890   5.958  17.233  0.00  0.00    +0.000 OA
BRANCH  13  14
ATOM     14  C   UNL     1       6.137   6.461  16.978  0.00  0.00    +0.000 C 
ATOM     15  O   UNL     1       6.456   7.629  17.156  0.00  0.00    +0.000 OA
BRANCH  14  16
ATOM     16  C   UNL     1       7.108   5.344  16.637  0.00  0.00    +0.000 C 
BRANCH  16  17
ATOM     17  O   UNL     1       7.620   5.458  15.325  0.00  0.00    +0.000 OA
BRANCH  17  18
ATOM     18  C   UNL     1       6.939   4.768  14.357  0.00  0.00    +0.000 A 
ATOM     19  C   UNL     1       5.714   4.109  14.520  0.00  0.00    +0.000 A 
ATOM     20  C   UNL     1       5.116   3.457  13.437  0.00  0.00    +0.000 A 
ATOM     21  C   UNL     1       5.747   3.461  12.200  0.00  0.00    +0.000 A 
ATOM     22  F   UNL     1       5.169   2.839  11.163  0.00  0.00    +0.000 F 
ATOM     23  C   UNL     1       6.967   4.100  12.024  0.00  0.00    +0.000 A 
ATOM     24  C   UNL     1       7.562   4.752  13.105  0.00  0.00    +0.000 A 
ENDBRANCH  17  18
ENDBRANCH  16  17
ENDBRANCH  14  16
ENDBRANCH  13  14
ENDBRANCH   1  13
TORSDOF 9
ENDMDL
MODEL 7
REMARK VINA RESULT:      -6.2      1.492      2.447
REMARK  Name = 
REMARK  11 active torsions:
REMARK  status: ('A' for Active; 'I' for Inactive)
REMARK    1  A    between atoms: C_1  and  O_2
REMARK    2  A    between atoms: O_2  and  P_3
REMARK    3  A    between atoms: P_3  and  O_5
REMARK    4  A    between atoms: P_3  and  C_7
REMARK    5  A    between atoms: O_5  and  C_6
REMARK    6  A    between atoms: C_7  and  O_8
REMARK    7  A    between atoms: C_7  and  C_20
REMARK    8  A    between atoms: O_8  and  C_9
REMARK    9  A    between atoms: C_9  and  C_11
REMARK   10  A    between atoms: C_11  and  O_12
REMARK   11  A    between atoms: O_12  and  C_13
REMARK                            x       y       z     vdW  Elec       q    Type
REMARK                         _______ _______ _______ _____ _____    ______ ____
ROOT
ATOM      1  C   UNL     1       3.338   5.767  18.284  0.00  0.00    +0.000 C 
ENDROOT
BRANCH   1   2
ATOM      2  C   UNL     1       2.406   4.589  18.452  0.00  0.00    +0.000 A 
ATOM      3  C   UNL     1       2.116   3.464  17.705  0.00  0.00    +0.000 A 
ATOM      4  C   UNL     1       1.266   2.658  18.505  0.00  0.00    +0.000 A 
ATOM      5  C   UNL     1       1.074   3.338  19.684  0.00  0.00    +0.000 A 
ATOM      6  O   UNL     1       1.762   4.505  19.660  0.00  0.00    +0.000 OA
ENDBRANCH   1   2
BRANCH   1   7
ATOM      7  P   UNL     1       2.308   7.280  18.303  0.00  0.00    +0.000 P 
ATOM      8  O   UNL     1       3.453   8.050  17.610  0.00  0.00    +0.000 OA
BRANCH   7  10
ATOM      9  C   UNL     1       2.042   9.871  17.925  0.00  0.00    +0.000 C 
ATOM     10  O   UNL     1       1.335   8.711  18.320  0.00  0.00    +0.000 OA
ENDBRANCH   7  10
BRANCH   7  11
ATOM     11  O   UNL     1       2.562   7.450  19.939  0.00  0.00    +0.000 OA
ATOM     12  C   UNL     1       1.450   7.738  20.767  0.00  0.00    +0.000 C 
ENDBRANCH   7  11
ENDBRANCH   1   7
BRANCH   1  13
ATOM     13  O   UNL     1       4.215   5.692  19.450  0.00  0.00    +0.000 OA
BRANCH  13  14
ATOM     14  C   UNL     1       5.377   4.993  19.262  0.00  0.00    +0.000 C 
ATOM     15  O   UNL     1       5.567   3.854  19.669  0.00  0.00    +0.000 OA
BRANCH  14  16
ATOM     16  C   UNL     1       6.308   5.740  18.323  0.00  0.00    +0.000 C 
BRANCH  16  17
ATOM     17  O   UNL     1       7.138   4.868  17.584  0.00  0.00    +0.000 OA
BRANCH  17  18
ATOM     18  C   UNL     1       6.689   4.534  16.333  0.00  0.00    +0.000 A 
ATOM     19  C   UNL     1       5.569   3.745  16.042  0.00  0.00    +0.000 A 
ATOM     20  C   UNL     1       5.208   3.498  14.714  0.00  0.00    +0.000 A 
ATOM     21  C   UNL     1       5.970   4.035  13.685  0.00  0.00    +0.000 A 
ATOM     22  F   UNL     1       5.619   3.800  12.413  0.00  0.00    +0.000 F 
ATOM     23  C   UNL     1       7.090   4.810  13.956  0.00  0.00    +0.000 A 
ATOM     24  C   UNL     1       7.448   5.057  15.282  0.00  0.00    +0.000 A 
ENDBRANCH  17  18
ENDBRANCH  16  17
ENDBRANCH  14  16
ENDBRANCH  13  14
ENDBRANCH   1  13
TORSDOF 9
ENDMDL
MODEL 8
REMARK VINA RESULT:      -6.2      1.594      3.364
REMARK  Name = 
REMARK  11 active torsions:
REMARK  status: ('A' for Active; 'I' for Inactive)
REMARK    1  A    between atoms: C_1  and  O_2
REMARK    2  A    between atoms: O_2  and  P_3
REMARK    3  A    between atoms: P_3  and  O_5
REMARK    4  A    between atoms: P_3  and  C_7
REMARK    5  A    between atoms: O_5  and  C_6
REMARK    6  A    between atoms: C_7  and  O_8
REMARK    7  A    between atoms: C_7  and  C_20
REMARK    8  A    between atoms: O_8  and  C_9
REMARK    9  A    between atoms: C_9  and  C_11
REMARK   10  A    between atoms: C_11  and  O_12
REMARK   11  A    between atoms: O_12  and  C_13
REMARK                            x       y       z     vdW  Elec       q    Type
REMARK                         _______ _______ _______ _____ _____    ______ ____
ROOT
ATOM      1  C   UNL     1       3.859   5.550  19.653  0.00  0.00    +0.000 C 
ENDROOT
BRANCH   1   2
ATOM      2  C   UNL     1       3.040   6.716  19.149  0.00  0.00    +0.000 A 
ATOM      3  C   UNL     1       2.093   7.552  19.707  0.00  0.00    +0.000 A 
ATOM      4  C   UNL     1       1.830   8.560  18.744  0.00  0.00    +0.000 A 
ATOM      5  C   UNL     1       2.617   8.278  17.654  0.00  0.00    +0.000 A 
ATOM      6  O   UNL     1       3.352   7.165  17.891  0.00  0.00    +0.000 OA
ENDBRANCH   1   2
BRANCH   1   7
ATOM      7  P   UNL     1       2.693   4.190  20.031  0.00  0.00    +0.000 P 
ATOM      8  O   UNL     1       3.892   3.257  20.305  0.00  0.00    +0.000 OA
BRANCH   7  10
ATOM      9  C   UNL     1       1.602   2.524  21.751  0.00  0.00    +0.000 C 
ATOM     10  O   UNL     1       1.591   2.905  20.388  0.00  0.00    +0.000 OA
ENDBRANCH   7  10
BRANCH   7  11
ATOM     11  O   UNL     1       2.339   4.025  18.413  0.00  0.00    +0.000 OA
ATOM     12  C   UNL     1       1.197   3.272  18.047  0.00  0.00    +0.000 C 
ENDBRANCH   7  11
ENDBRANCH   1   7
BRANCH   1  13
ATOM     13  O   UNL     1       4.733   5.220  18.529  0.00  0.00    +0.000 OA
BRANCH  13  14
ATOM     14  C   UNL     1       6.059   5.499  18.719  0.00  0.00    +0.000 C 
ATOM     15  O   UNL     1       6.691   5.184  19.718  0.00  0.00    +0.000 OA
BRANCH  14  16
ATOM     16  C   UNL     1       6.675   6.068  17.452  0.00  0.00    +0.000 C 
BRANCH  16  17
ATOM     17  O   UNL     1       7.469   5.119  16.768  0.00  0.00    +0.000 OA
BRANCH  17  18
ATOM     18  C   UNL     1       7.025   4.757  15.523  0.00  0.00    +0.000 A 
ATOM     19  C   UNL     1       7.614   5.108  14.302  0.00  0.00    +0.000 A 
ATOM     20  C   UNL     1       7.067   4.650  13.100  0.00  0.00    +0.000 A 
ATOM     21  C   UNL     1       5.932   3.849  13.123  0.00  0.00    +0.000 A 
ATOM     22  F   UNL     1       5.413   3.408  11.969  0.00  0.00    +0.000 F 
ATOM     23  C   UNL     1       5.330   3.501  14.325  0.00  0.00    +0.000 A 
ATOM     24  C   UNL     1       5.878   3.957  15.524  0.00  0.00    +0.000 A 
ENDBRANCH  17  18
ENDBRANCH  16  17
ENDBRANCH  14  16
ENDBRANCH  13  14
ENDBRANCH   1  13
TORSDOF 9
ENDMDL
MODEL 9
REMARK VINA RESULT:      -6.1      4.848      7.517
REMARK  Name = 
REMARK  11 active torsions:
REMARK  status: ('A' for Active; 'I' for Inactive)
REMARK    1  A    between atoms: C_1  and  O_2
REMARK    2  A    between atoms: O_2  and  P_3
REMARK    3  A    between atoms: P_3  and  O_5
REMARK    4  A    between atoms: P_3  and  C_7
REMARK    5  A    between atoms: O_5  and  C_6
REMARK    6  A    between atoms: C_7  and  O_8
REMARK    7  A    between atoms: C_7  and  C_20
REMARK    8  A    between atoms: O_8  and  C_9
REMARK    9  A    between atoms: C_9  and  C_11
REMARK   10  A    between atoms: C_11  and  O_12
REMARK   11  A    between atoms: O_12  and  C_13
REMARK                            x       y       z     vdW  Elec       q    Type
REMARK                         _______ _______ _______ _____ _____    ______ ____
ROOT
ATOM      1  C   UNL     1      -0.327   9.669  19.490  0.00  0.00    +0.000 C 
ENDROOT
BRANCH   1   2
ATOM      2  C   UNL     1      -0.470   9.819  20.987  0.00  0.00    +0.000 A 
ATOM      3  C   UNL     1      -0.138   9.039  22.078  0.00  0.00    +0.000 A 
ATOM      4  C   UNL     1      -0.388   9.831  23.229  0.00  0.00    +0.000 A 
ATOM      5  C   UNL     1      -0.867  11.038  22.780  0.00  0.00    +0.000 A 
ATOM      6  O   UNL     1      -0.918  11.038  21.425  0.00  0.00    +0.000 OA
ENDBRANCH   1   2
BRANCH   1   7
ATOM      7  P   UNL     1      -1.522  10.819  18.714  0.00  0.00    +0.000 P 
ATOM      8  O   UNL     1      -1.586   9.894  17.478  0.00  0.00    +0.000 OA
BRANCH   7  10
ATOM      9  C   UNL     1      -3.982  11.705  18.417  0.00  0.00    +0.000 C 
ATOM     10  O   UNL     1      -2.651  11.905  17.980  0.00  0.00    +0.000 OA
ENDBRANCH   7  10
BRANCH   7  11
ATOM     11  O   UNL     1      -0.300  11.908  18.413  0.00  0.00    +0.000 OA
ATOM     12  C   UNL     1      -0.551  13.282  18.647  0.00  0.00    +0.000 C 
ENDBRANCH   7  11
ENDBRANCH   1   7
BRANCH   1  13
ATOM     13  O   UNL     1       1.055  10.062  19.227  0.00  0.00    +0.000 OA
BRANCH  13  14
ATOM     14  C   UNL     1       1.760   9.212  18.419  0.00  0.00    +0.000 C 
ATOM     15  O   UNL     1       2.150   9.499  17.294  0.00  0.00    +0.000 OA
BRANCH  14  16
ATOM     16  C   UNL     1       2.157   7.956  19.175  0.00  0.00    +0.000 C 
BRANCH  16  17
ATOM     17  O   UNL     1       2.545   6.908  18.310  0.00  0.00    +0.000 OA
BRANCH  17  18
ATOM     18  C   UNL     1       2.199   5.645  18.712  0.00  0.00    +0.000 A 
ATOM     19  C   UNL     1       1.928   4.557  17.871  0.00  0.00    +0.000 A 
ATOM     20  C   UNL     1       1.606   3.311  18.417  0.00  0.00    +0.000 A 
ATOM     21  C   UNL     1       1.549   3.159  19.797  0.00  0.00    +0.000 A 
ATOM     22  F   UNL     1       1.244   1.962  20.316  0.00  0.00    +0.000 F 
ATOM     23  C   UNL     1       1.804   4.230  20.643  0.00  0.00    +0.000 A 
ATOM     24  C   UNL     1       2.128   5.473  20.097  0.00  0.00    +0.000 A 
ENDBRANCH  17  18
ENDBRANCH  16  17
ENDBRANCH  14  16
ENDBRANCH  13  14
ENDBRANCH   1  13
TORSDOF 9
ENDMDL
