MODEL 1
REMARK VINA RESULT:      -7.9      0.000      0.000
REMARK  Name = 
REMARK  8 active torsions:
REMARK  status: ('A' for Active; 'I' for Inactive)
REMARK    1  A    between atoms: C_2  and  C_3
REMARK    2  A    between atoms: C_3  and  C_13
REMARK    3  A    between atoms: C_4  and  C_5
REMARK    4  A    between atoms: C_8  and  O_9
REMARK    5  A    between atoms: C_10  and  O_11
REMARK    6  A    between atoms: C_13  and  O_15
REMARK    7  A    between atoms: O_15  and  C_16
REMARK    8  A    between atoms: C_16  and  C_17
REMARK                            x       y       z     vdW  Elec       q    Type
REMARK                         _______ _______ _______ _____ _____    ______ ____
ROOT
ATOM      1  C   UNL     1       2.172   4.171  20.197  0.00  0.00    +0.000 C 
ATOM      2  C   UNL     1       2.608   5.415  20.500  0.00  0.00    +0.000 C 
ENDROOT
BRANCH   2   3
ATOM      3  C   UNL     1       2.402   6.626  19.667  0.00  0.00    +0.000 A 
ATOM      4  C   UNL     1       2.946   6.743  18.373  0.00  0.00    +0.000 A 
ATOM      5  C   UNL     1       2.786   7.917  17.618  0.00  0.00    +0.000 A 
ATOM      6  C   UNL     1       2.047   8.964  18.144  0.00  0.00    +0.000 A 
ATOM      7  C   UNL     1       1.474   8.842  19.407  0.00  0.00    +0.000 A 
ATOM      8  C   UNL     1       1.649   7.692  20.173  0.00  0.00    +0.000 A 
BRANCH   6   9
ATOM      9  O   UNL     1       1.854  10.131  17.461  0.00  0.00    +0.000 OA
ATOM     10  H   UNL     1       1.201  10.664  17.947  0.00  0.00    +0.000 HD
ENDBRANCH   6   9
BRANCH   7  11
ATOM     11  O   UNL     1       0.725   9.869  19.911  0.00  0.00    +0.000 OA
ATOM     12  H   UNL     1       0.674   9.689  20.871  0.00  0.00    +0.000 HD
ENDBRANCH   7  11
ENDBRANCH   2   3
BRANCH   1  14
ATOM     13  N   UNL     1       0.731   3.779  17.850  0.00  0.00    +0.000 NA
ATOM     14  C   UNL     1       1.384   3.957  18.914  0.00  0.00    +0.000 C 
ENDBRANCH   1  14
BRANCH   1  15
ATOM     15  C   UNL     1       2.379   3.002  21.088  0.00  0.00    +0.000 C 
ATOM     16  O   UNL     1       1.524   2.597  21.879  0.00  0.00    +0.000 OA
BRANCH  15  17
ATOM     17  O   UNL     1       3.634   2.496  20.984  0.00  0.00    +0.000 OA
BRANCH  17  18
ATOM     18  C   UNL     1       3.939   1.882  19.720  0.00  0.00    +0.000 C 
BRANCH  18  19
ATOM     19  C   UNL     1       4.604   2.887  18.846  0.00  0.00    +0.000 A 
ATOM     20  C   UNL     1       4.392   3.206  17.520  0.00  0.00    +0.000 A 
ATOM     21  C   UNL     1       5.270   4.266  17.167  0.00  0.00    +0.000 A 
ATOM     22  C   UNL     1       5.490   5.004  15.988  0.00  0.00    +0.000 A 
ATOM     23  C   UNL     1       6.442   6.029  15.983  0.00  0.00    +0.000 A 
ATOM     24  C   UNL     1       7.185   6.309  17.127  0.00  0.00    +0.000 A 
ATOM     25  C   UNL     1       7.000   5.577  18.306  0.00  0.00    +0.000 A 
ATOM     26  C   UNL     1       6.026   4.566  18.299  0.00  0.00    +0.000 A 
ATOM     27  N   UNL     1       5.613   3.709  19.299  0.00  0.00    +0.000 N 
ATOM     28  H   UNL     1       6.007   3.692  20.230  0.00  0.00    +0.000 HD
ENDBRANCH  18  19
ENDBRANCH  17  18
ENDBRANCH  15  17
ENDBRANCH   1  15
TORSDOF 8
ENDMDL
MODEL 2
REMARK VINA RESULT:      -7.9      0.736      1.279
REMARK  Name = 
REMARK  8 active torsions:
REMARK  status: ('A' for Active; 'I' for Inactive)
REMARK    1  A    between atoms: C_2  and  C_3
REMARK    2  A    between atoms: C_3  and  C_13
REMARK    3  A    between atoms: C_4  and  C_5
REMARK    4  A    between atoms: C_8  and  O_9
REMARK    5  A    between atoms: C_10  and  O_11
REMARK    6  A    between atoms: C_13  and  O_15
REMARK    7  A    between atoms: O_15  and  C_16
REMARK    8  A    between atoms: C_16  and  C_17
REMARK                            x       y       z     vdW  Elec       q    Type
REMARK                         _______ _______ _______ _____ _____    ______ ____
ROOT
ATOM      1  C   UNL     1       2.138   4.496  20.031  0.00  0.00    +0.000 C 
ATOM      2  C   UNL     1       2.426   5.751  20.442  0.00  0.00    +0.000 C 
ENDROOT
BRANCH   2   3
ATOM      3  C   UNL     1       2.244   6.984  19.637  0.00  0.00    +0.000 A 
ATOM      4  C   UNL     1       2.812   7.130  18.355  0.00  0.00    +0.000 A 
ATOM      5  C   UNL     1       2.674   8.323  17.627  0.00  0.00    +0.000 A 
ATOM      6  C   UNL     1       1.933   9.362  18.167  0.00  0.00    +0.000 A 
ATOM      7  C   UNL     1       1.336   9.213  19.416  0.00  0.00    +0.000 A 
ATOM      8  C   UNL     1       1.489   8.042  20.156  0.00  0.00    +0.000 A 
BRANCH   6   9
ATOM      9  O   UNL     1       1.760  10.548  17.510  0.00  0.00    +0.000 OA
ATOM     10  H   UNL     1       2.614  10.808  17.122  0.00  0.00    +0.000 HD
ENDBRANCH   6   9
BRANCH   7  11
ATOM     11  O   UNL     1       0.585  10.232  19.932  0.00  0.00    +0.000 OA
ATOM     12  H   UNL     1       0.973  10.401  20.814  0.00  0.00    +0.000 HD
ENDBRANCH   7  11
ENDBRANCH   2   3
BRANCH   1  14
ATOM     13  N   UNL     1       1.078   4.117  17.487  0.00  0.00    +0.000 NA
ATOM     14  C   UNL     1       1.558   4.289  18.640  0.00  0.00    +0.000 C 
ENDBRANCH   1  14
BRANCH   1  15
ATOM     15  C   UNL     1       2.310   3.301  20.896  0.00  0.00    +0.000 C 
ATOM     16  O   UNL     1       2.033   3.293  22.097  0.00  0.00    +0.000 OA
BRANCH  15  17
ATOM     17  O   UNL     1       2.876   2.264  20.229  0.00  0.00    +0.000 OA
BRANCH  17  18
ATOM     18  C   UNL     1       4.315   2.260  20.219  0.00  0.00    +0.000 C 
BRANCH  18  19
ATOM     19  C   UNL     1       4.792   3.206  19.174  0.00  0.00    +0.000 A 
ATOM     20  C   UNL     1       5.499   4.385  19.284  0.00  0.00    +0.000 A 
ATOM     21  C   UNL     1       5.736   4.890  17.977  0.00  0.00    +0.000 A 
ATOM     22  C   UNL     1       6.405   6.021  17.471  0.00  0.00    +0.000 A 
ATOM     23  C   UNL     1       6.478   6.218  16.087  0.00  0.00    +0.000 A 
ATOM     24  C   UNL     1       5.876   5.317  15.213  0.00  0.00    +0.000 A 
ATOM     25  C   UNL     1       5.187   4.196  15.692  0.00  0.00    +0.000 A 
ATOM     26  C   UNL     1       5.142   4.003  17.081  0.00  0.00    +0.000 A 
ATOM     27  N   UNL     1       4.565   2.998  17.831  0.00  0.00    +0.000 N 
ATOM     28  H   UNL     1       4.048   2.223  17.438  0.00  0.00    +0.000 HD
ENDBRANCH  18  19
ENDBRANCH  17  18
ENDBRANCH  15  17
ENDBRANCH   1  15
TORSDOF 8
ENDMDL
MODEL 3
REMARK VINA RESULT:      -7.9      3.529      7.984
REMARK  Name = 
REMARK  8 active torsions:
REMARK  status: ('A' for Active; 'I' for Inactive)
REMARK    1  A    between atoms: C_2  and  C_3
REMARK    2  A    between atoms: C_3  and  C_13
REMARK    3  A    between atoms: C_4  and  C_5
REMARK    4  A    between atoms: C_8  and  O_9
REMARK    5  A    between atoms: C_10  and  O_11
REMARK    6  A    between atoms: C_13  and  O_15
REMARK    7  A    between atoms: O_15  and  C_16
REMARK    8  A    between atoms: C_16  and  C_17
REMARK                            x       y       z     vdW  Elec       q    Type
REMARK                         _______ _______ _______ _____ _____    ______ ____
ROOT
ATOM      1  C   UNL     1       2.281   6.828  19.462  0.00  0.00    +0.000 C 
ATOM      2  C   UNL     1       1.941   5.611  19.944  0.00  0.00    +0.000 C 
ENDROOT
BRANCH   2   3
ATOM      3  C   UNL     1       2.461   4.313  19.449  0.00  0.00    +0.000 A 
ATOM      4  C   UNL     1       1.830   3.604  18.407  0.00  0.00    +0.000 A 
ATOM      5  C   UNL     1       2.305   2.352  17.984  0.00  0.00    +0.000 A 
ATOM      6  C   UNL     1       3.438   1.822  18.581  0.00  0.00    +0.000 A 
ATOM      7  C   UNL     1       4.091   2.533  19.584  0.00  0.00    +0.000 A 
ATOM      8  C   UNL     1       3.611   3.764  20.027  0.00  0.00    +0.000 A 
BRANCH   6   9
ATOM      9  O   UNL     1       3.951   0.610  18.215  0.00  0.00    +0.000 OA
ATOM     10  H   UNL     1       4.029   0.059  19.014  0.00  0.00    +0.000 HD
ENDBRANCH   6   9
BRANCH   7  11
ATOM     11  O   UNL     1       5.222   2.017  20.151  0.00  0.00    +0.000 OA
ATOM     12  H   UNL     1       5.654   2.783  20.579  0.00  0.00    +0.000 HD
ENDBRANCH   7  11
ENDBRANCH   2   3
BRANCH   1  14
ATOM     13  N   UNL     1       4.131   6.992  17.392  0.00  0.00    +0.000 NA
ATOM     14  C   UNL     1       3.292   6.918  18.330  0.00  0.00    +0.000 C 
ENDBRANCH   1  14
BRANCH   1  15
ATOM     15  C   UNL     1       1.751   8.098  20.022  0.00  0.00    +0.000 C 
ATOM     16  O   UNL     1       1.535   8.265  21.224  0.00  0.00    +0.000 OA
BRANCH  15  17
ATOM     17  O   UNL     1       1.463   9.003  19.054  0.00  0.00    +0.000 OA
BRANCH  17  18
ATOM     18  C   UNL     1       0.897  10.238  19.524  0.00  0.00    +0.000 C 
BRANCH  18  19
ATOM     19  C   UNL     1      -0.403  10.465  18.835  0.00  0.00    +0.000 A 
ATOM     20  C   UNL     1      -1.542  11.119  19.257  0.00  0.00    +0.000 A 
ATOM     21  C   UNL     1      -2.496  11.084  18.204  0.00  0.00    +0.000 A 
ATOM     22  C   UNL     1      -3.801  11.590  18.047  0.00  0.00    +0.000 A 
ATOM     23  C   UNL     1      -4.476  11.395  16.838  0.00  0.00    +0.000 A 
ATOM     24  C   UNL     1      -3.876  10.688  15.799  0.00  0.00    +0.000 A 
ATOM     25  C   UNL     1      -2.587  10.158  15.937  0.00  0.00    +0.000 A 
ATOM     26  C   UNL     1      -1.916  10.381  17.149  0.00  0.00    +0.000 A 
ATOM     27  N   UNL     1      -0.654  10.005  17.561  0.00  0.00    +0.000 N 
ATOM     28  H   UNL     1      -0.011   9.464  16.998  0.00  0.00    +0.000 HD
ENDBRANCH  18  19
ENDBRANCH  17  18
ENDBRANCH  15  17
ENDBRANCH   1  15
TORSDOF 8
ENDMDL
MODEL 4
REMARK VINA RESULT:      -7.8      4.446      6.771
REMARK  Name = 
REMARK  8 active torsions:
REMARK  status: ('A' for Active; 'I' for Inactive)
REMARK    1  A    between atoms: C_2  and  C_3
REMARK    2  A    between atoms: C_3  and  C_13
REMARK    3  A    between atoms: C_4  and  C_5
REMARK    4  A    between atoms: C_8  and  O_9
REMARK    5  A    between atoms: C_10  and  O_11
REMARK    6  A    between atoms: C_13  and  O_15
REMARK    7  A    between atoms: O_15  and  C_16
REMARK    8  A    between atoms: C_16  and  C_17
REMARK                            x       y       z     vdW  Elec       q    Type
REMARK                         _______ _______ _______ _____ _____    ______ ____
ROOT
ATOM      1  C   UNL     1       5.769   5.908  17.478  0.00  0.00    +0.000 C 
ATOM      2  C   UNL     1       4.479   5.807  17.082  0.00  0.00    +0.000 C 
ENDROOT
BRANCH   2   3
ATOM      3  C   UNL     1       3.389   5.166  17.857  0.00  0.00    +0.000 A 
ATOM      4  C   UNL     1       2.739   5.826  18.919  0.00  0.00    +0.000 A 
ATOM      5  C   UNL     1       1.745   5.187  19.677  0.00  0.00    +0.000 A 
ATOM      6  C   UNL     1       1.370   3.894  19.346  0.00  0.00    +0.000 A 
ATOM      7  C   UNL     1       1.979   3.248  18.273  0.00  0.00    +0.000 A 
ATOM      8  C   UNL     1       2.985   3.866  17.534  0.00  0.00    +0.000 A 
BRANCH   6   9
ATOM      9  O   UNL     1       0.409   3.216  20.042  0.00  0.00    +0.000 OA
ATOM     10  H   UNL     1       0.701   2.294  20.145  0.00  0.00    +0.000 HD
ENDBRANCH   6   9
BRANCH   7  11
ATOM     11  O   UNL     1       1.587   1.982  17.937  0.00  0.00    +0.000 OA
ATOM     12  H   UNL     1       1.442   2.018  16.970  0.00  0.00    +0.000 HD
ENDBRANCH   7  11
ENDBRANCH   2   3
BRANCH   1  14
ATOM     13  N   UNL     1       6.505   4.884  19.957  0.00  0.00    +0.000 NA
ATOM     14  C   UNL     1       6.171   5.348  18.833  0.00  0.00    +0.000 C 
ENDBRANCH   1  14
BRANCH   1  15
ATOM     15  C   UNL     1       6.812   6.593  16.672  0.00  0.00    +0.000 C 
ATOM     16  O   UNL     1       7.376   6.065  15.712  0.00  0.00    +0.000 OA
BRANCH  15  17
ATOM     17  O   UNL     1       7.118   7.818  17.167  0.00  0.00    +0.000 OA
BRANCH  17  18
ATOM     18  C   UNL     1       8.112   7.824  18.206  0.00  0.00    +0.000 C 
BRANCH  18  19
ATOM     19  C   UNL     1       8.592   9.219  18.404  0.00  0.00    +0.000 A 
ATOM     20  C   UNL     1       8.433  10.345  17.621  0.00  0.00    +0.000 A 
ATOM     21  C   UNL     1       9.057  11.439  18.277  0.00  0.00    +0.000 A 
ATOM     22  C   UNL     1       9.201  12.808  17.977  0.00  0.00    +0.000 A 
ATOM     23  C   UNL     1       9.872  13.645  18.875  0.00  0.00    +0.000 A 
ATOM     24  C   UNL     1      10.417  13.130  20.049  0.00  0.00    +0.000 A 
ATOM     25  C   UNL     1      10.306  11.769  20.360  0.00  0.00    +0.000 A 
ATOM     26  C   UNL     1       9.610  10.948  19.459  0.00  0.00    +0.000 A 
ATOM     27  N   UNL     1       9.326   9.599  19.506  0.00  0.00    +0.000 N 
ATOM     28  H   UNL     1       9.624   8.983  20.250  0.00  0.00    +0.000 HD
ENDBRANCH  18  19
ENDBRANCH  17  18
ENDBRANCH  15  17
ENDBRANCH   1  15
TORSDOF 8
ENDMDL
MODEL 5
REMARK VINA RESULT:      -7.6      3.575      8.063
REMARK  Name = 
REMARK  8 active torsions:
REMARK  status: ('A' for Active; 'I' for Inactive)
REMARK    1  A    between atoms: C_2  and  C_3
REMARK    2  A    between atoms: C_3  and  C_13
REMARK    3  A    between atoms: C_4  and  C_5
REMARK    4  A    between atoms: C_8  and  O_9
REMARK    5  A    between atoms: C_10  and  O_11
REMARK    6  A    between atoms: C_13  and  O_15
REMARK    7  A    between atoms: O_15  and  C_16
REMARK    8  A    between atoms: C_16  and  C_17
REMARK                            x       y       z     vdW  Elec       q    Type
REMARK                         _______ _______ _______ _____ _____    ______ ____
ROOT
ATOM      1  C   UNL     1       2.823   7.061  17.996  0.00  0.00    +0.000 C 
ATOM      2  C   UNL     1       2.223   5.997  18.577  0.00  0.00    +0.000 C 
ENDROOT
BRANCH   2   3
ATOM      3  C   UNL     1       2.689   4.591  18.488  0.00  0.00    +0.000 A 
ATOM      4  C   UNL     1       2.105   3.666  17.600  0.00  0.00    +0.000 A 
ATOM      5  C   UNL     1       2.522   2.325  17.565  0.00  0.00    +0.000 A 
ATOM      6  C   UNL     1       3.554   1.916  18.394  0.00  0.00    +0.000 A 
ATOM      7  C   UNL     1       4.164   2.833  19.247  0.00  0.00    +0.000 A 
ATOM      8  C   UNL     1       3.738   4.158  19.307  0.00  0.00    +0.000 A 
BRANCH   6   9
ATOM      9  O   UNL     1       4.008   0.627  18.407  0.00  0.00    +0.000 OA
ATOM     10  H   UNL     1       4.596   0.504  17.642  0.00  0.00    +0.000 HD
ENDBRANCH   6   9
BRANCH   7  11
ATOM     11  O   UNL     1       5.197   2.430  20.044  0.00  0.00    +0.000 OA
ATOM     12  H   UNL     1       5.856   2.058  19.424  0.00  0.00    +0.000 HD
ENDBRANCH   7  11
ENDBRANCH   2   3
BRANCH   1  14
ATOM     13  N   UNL     1       5.149   6.662  16.524  0.00  0.00    +0.000 NA
ATOM     14  C   UNL     1       4.095   6.843  17.191  0.00  0.00    +0.000 C 
ENDBRANCH   1  14
BRANCH   1  15
ATOM     15  C   UNL     1       2.328   8.453  18.149  0.00  0.00    +0.000 C 
ATOM     16  O   UNL     1       2.728   9.390  17.455  0.00  0.00    +0.000 OA
BRANCH  15  17
ATOM     17  O   UNL     1       1.459   8.575  19.184  0.00  0.00    +0.000 OA
BRANCH  17  18
ATOM     18  C   UNL     1       1.078   9.924  19.502  0.00  0.00    +0.000 C 
BRANCH  18  19
ATOM     19  C   UNL     1      -0.225  10.223  18.847  0.00  0.00    +0.000 A 
ATOM     20  C   UNL     1      -0.742   9.799  17.639  0.00  0.00    +0.000 A 
ATOM     21  C   UNL     1      -2.045  10.345  17.493  0.00  0.00    +0.000 A 
ATOM     22  C   UNL     1      -3.041  10.250  16.502  0.00  0.00    +0.000 A 
ATOM     23  C   UNL     1      -4.260  10.912  16.682  0.00  0.00    +0.000 A 
ATOM     24  C   UNL     1      -4.485  11.680  17.822  0.00  0.00    +0.000 A 
ATOM     25  C   UNL     1      -3.503  11.808  18.813  0.00  0.00    +0.000 A 
ATOM     26  C   UNL     1      -2.295  11.119  18.625  0.00  0.00    +0.000 A 
ATOM     27  N   UNL     1      -1.172  11.040  19.424  0.00  0.00    +0.000 N 
ATOM     28  H   UNL     1      -1.069  11.522  20.306  0.00  0.00    +0.000 HD
ENDBRANCH  18  19
ENDBRANCH  17  18
ENDBRANCH  15  17
ENDBRANCH   1  15
TORSDOF 8
ENDMDL
MODEL 6
REMARK VINA RESULT:      -7.5      3.709      7.897
REMARK  Name = 
REMARK  8 active torsions:
REMARK  status: ('A' for Active; 'I' for Inactive)
REMARK    1  A    between atoms: C_2  and  C_3
REMARK    2  A    between atoms: C_3  and  C_13
REMARK    3  A    between atoms: C_4  and  C_5
REMARK    4  A    between atoms: C_8  and  O_9
REMARK    5  A    between atoms: C_10  and  O_11
REMARK    6  A    between atoms: C_13  and  O_15
REMARK    7  A    between atoms: O_15  and  C_16
REMARK    8  A    between atoms: C_16  and  C_17
REMARK                            x       y       z     vdW  Elec       q    Type
REMARK                         _______ _______ _______ _____ _____    ______ ____
ROOT
ATOM      1  C   UNL     1       1.670   7.251  20.467  0.00  0.00    +0.000 C 
ATOM      2  C   UNL     1       1.556   5.990  20.944  0.00  0.00    +0.000 C 
ENDROOT
BRANCH   2   3
ATOM      3  C   UNL     1       1.984   4.759  20.233  0.00  0.00    +0.000 A 
ATOM      4  C   UNL     1       1.056   3.878  19.643  0.00  0.00    +0.000 A 
ATOM      5  C   UNL     1       1.473   2.690  19.019  0.00  0.00    +0.000 A 
ATOM      6  C   UNL     1       2.827   2.402  18.952  0.00  0.00    +0.000 A 
ATOM      7  C   UNL     1       3.753   3.287  19.498  0.00  0.00    +0.000 A 
ATOM      8  C   UNL     1       3.346   4.453  20.141  0.00  0.00    +0.000 A 
BRANCH   6   9
ATOM      9  O   UNL     1       3.298   1.265  18.358  0.00  0.00    +0.000 OA
ATOM     10  H   UNL     1       3.870   0.803  18.995  0.00  0.00    +0.000 HD
ENDBRANCH   6   9
BRANCH   7  11
ATOM     11  O   UNL     1       5.088   3.009  19.406  0.00  0.00    +0.000 OA
ATOM     12  H   UNL     1       5.528   3.875  19.516  0.00  0.00    +0.000 HD
ENDBRANCH   7  11
ENDBRANCH   2   3
BRANCH   1  14
ATOM     13  N   UNL     1       2.822   7.652  17.968  0.00  0.00    +0.000 NA
ATOM     14  C   UNL     1       2.300   7.470  19.101  0.00  0.00    +0.000 C 
ENDBRANCH   1  14
BRANCH   1  15
ATOM     15  C   UNL     1       1.254   8.448  21.241  0.00  0.00    +0.000 C 
ATOM     16  O   UNL     1       1.842   8.834  22.254  0.00  0.00    +0.000 OA
BRANCH  15  17
ATOM     17  O   UNL     1       0.119   9.006  20.749  0.00  0.00    +0.000 OA
BRANCH  17  18
ATOM     18  C   UNL     1       0.299  10.270  20.088  0.00  0.00    +0.000 C 
BRANCH  18  19
ATOM     19  C   UNL     1      -0.739  10.412  19.030  0.00  0.00    +0.000 A 
ATOM     20  C   UNL     1      -0.787   9.910  17.745  0.00  0.00    +0.000 A 
ATOM     21  C   UNL     1      -2.017  10.307  17.155  0.00  0.00    +0.000 A 
ATOM     22  C   UNL     1      -2.618  10.083  15.901  0.00  0.00    +0.000 A 
ATOM     23  C   UNL     1      -3.887  10.612  15.640  0.00  0.00    +0.000 A 
ATOM     24  C   UNL     1      -4.547  11.373  16.601  0.00  0.00    +0.000 A 
ATOM     25  C   UNL     1      -3.962  11.627  17.848  0.00  0.00    +0.000 A 
ATOM     26  C   UNL     1      -2.698  11.072  18.101  0.00  0.00    +0.000 A 
ATOM     27  N   UNL     1      -1.897  11.131  19.223  0.00  0.00    +0.000 N 
ATOM     28  H   UNL     1      -2.137  11.639  20.064  0.00  0.00    +0.000 HD
ENDBRANCH  18  19
ENDBRANCH  17  18
ENDBRANCH  15  17
ENDBRANCH   1  15
TORSDOF 8
ENDMDL
MODEL 7
REMARK VINA RESULT:      -7.4      0.751      1.403
REMARK  Name = 
REMARK  8 active torsions:
REMARK  status: ('A' for Active; 'I' for Inactive)
REMARK    1  A    between atoms: C_2  and  C_3
REMARK    2  A    between atoms: C_3  and  C_13
REMARK    3  A    between atoms: C_4  and  C_5
REMARK    4  A    between atoms: C_8  and  O_9
REMARK    5  A    between atoms: C_10  and  O_11
REMARK    6  A    between atoms: C_13  and  O_15
REMARK    7  A    between atoms: O_15  and  C_16
REMARK    8  A    between atoms: C_16  and  C_17
REMARK                            x       y       z     vdW  Elec       q    Type
REMARK                         _______ _______ _______ _____ _____    ______ ____
ROOT
ATOM      1  C   UNL     1       2.013   4.279  20.271  0.00  0.00    +0.000 C 
ATOM      2  C   UNL     1       2.275   5.505  20.779  0.00  0.00    +0.000 C 
ENDROOT
BRANCH   2   3
ATOM      3  C   UNL     1       2.059   6.793  20.073  0.00  0.00    +0.000 A 
ATOM      4  C   UNL     1       1.292   7.833  20.635  0.00  0.00    +0.000 A 
ATOM      5  C   UNL     1       1.053   9.025  19.932  0.00  0.00    +0.000 A 
ATOM      6  C   UNL     1       1.617   9.194  18.678  0.00  0.00    +0.000 A 
ATOM      7  C   UNL     1       2.410   8.188  18.131  0.00  0.00    +0.000 A 
ATOM      8  C   UNL     1       2.629   6.992  18.811  0.00  0.00    +0.000 A 
BRANCH   6   9
ATOM      9  O   UNL     1       1.425  10.331  17.943  0.00  0.00    +0.000 OA
ATOM     10  H   UNL     1       0.957  10.977  18.499  0.00  0.00    +0.000 HD
ENDBRANCH   6   9
BRANCH   7  11
ATOM     11  O   UNL     1       2.983   8.372  16.905  0.00  0.00    +0.000 OA
ATOM     12  H   UNL     1       3.067   9.342  16.814  0.00  0.00    +0.000 HD
ENDBRANCH   7  11
ENDBRANCH   2   3
BRANCH   1  14
ATOM     13  N   UNL     1       0.946   4.076  17.711  0.00  0.00    +0.000 NA
ATOM     14  C   UNL     1       1.430   4.168  18.871  0.00  0.00    +0.000 C 
ENDBRANCH   1  14
BRANCH   1  15
ATOM     15  C   UNL     1       2.219   3.025  21.039  0.00  0.00    +0.000 C 
ATOM     16  O   UNL     1       1.913   2.904  22.228  0.00  0.00    +0.000 OA
BRANCH  15  17
ATOM     17  O   UNL     1       2.849   2.074  20.305  0.00  0.00    +0.000 OA
BRANCH  17  18
ATOM     18  C   UNL     1       4.284   2.177  20.279  0.00  0.00    +0.000 C 
BRANCH  18  19
ATOM     19  C   UNL     1       4.680   3.085  19.167  0.00  0.00    +0.000 A 
ATOM     20  C   UNL     1       4.411   3.021  17.815  0.00  0.00    +0.000 A 
ATOM     21  C   UNL     1       4.992   4.156  17.189  0.00  0.00    +0.000 A 
ATOM     22  C   UNL     1       5.032   4.629  15.862  0.00  0.00    +0.000 A 
ATOM     23  C   UNL     1       5.689   5.831  15.578  0.00  0.00    +0.000 A 
ATOM     24  C   UNL     1       6.319   6.549  16.591  0.00  0.00    +0.000 A 
ATOM     25  C   UNL     1       6.311   6.090  17.914  0.00  0.00    +0.000 A 
ATOM     26  C   UNL     1       5.630   4.893  18.185  0.00  0.00    +0.000 A 
ATOM     27  N   UNL     1       5.438   4.217  19.372  0.00  0.00    +0.000 N 
ATOM     28  H   UNL     1       5.809   4.518  20.263  0.00  0.00    +0.000 HD
ENDBRANCH  18  19
ENDBRANCH  17  18
ENDBRANCH  15  17
ENDBRANCH   1  15
TORSDOF 8
ENDMDL
MODEL 8
REMARK VINA RESULT:      -7.4      4.670      6.739
REMARK  Name = 
REMARK  8 active torsions:
REMARK  status: ('A' for Active; 'I' for Inactive)
REMARK    1  A    between atoms: C_2  and  C_3
REMARK    2  A    between atoms: C_3  and  C_13
REMARK    3  A    between atoms: C_4  and  C_5
REMARK    4  A    between atoms: C_8  and  O_9
REMARK    5  A    between atoms: C_10  and  O_11
REMARK    6  A    between atoms: C_13  and  O_15
REMARK    7  A    between atoms: O_15  and  C_16
REMARK    8  A    between atoms: C_16  and  C_17
REMARK                            x       y       z     vdW  Elec       q    Type
REMARK                         _______ _______ _______ _____ _____    ______ ____
ROOT
ATOM      1  C   UNL     1       6.032   6.231  17.628  0.00  0.00    +0.000 C 
ATOM      2  C   UNL     1       4.719   6.237  17.303  0.00  0.00    +0.000 C 
ENDROOT
BRANCH   2   3
ATOM      3  C   UNL     1       3.634   5.605  18.093  0.00  0.00    +0.000 A 
ATOM      4  C   UNL     1       3.071   4.365  17.731  0.00  0.00    +0.000 A 
ATOM      5  C   UNL     1       2.009   3.805  18.460  0.00  0.00    +0.000 A 
ATOM      6  C   UNL     1       1.533   4.469  19.579  0.00  0.00    +0.000 A 
ATOM      7  C   UNL     1       2.108   5.676  19.967  0.00  0.00    +0.000 A 
ATOM      8  C   UNL     1       3.145   6.251  19.234  0.00  0.00    +0.000 A 
BRANCH   6   9
ATOM      9  O   UNL     1       0.503   3.978  20.331  0.00  0.00    +0.000 OA
ATOM     10  H   UNL     1       0.877   3.583  21.138  0.00  0.00    +0.000 HD
ENDBRANCH   6   9
BRANCH   7  11
ATOM     11  O   UNL     1       1.651   6.314  21.085  0.00  0.00    +0.000 OA
ATOM     12  H   UNL     1       2.435   6.775  21.444  0.00  0.00    +0.000 HD
ENDBRANCH   7  11
ENDBRANCH   2   3
BRANCH   1  14
ATOM     13  N   UNL     1       6.837   4.980  19.978  0.00  0.00    +0.000 NA
ATOM     14  C   UNL     1       6.472   5.547  18.913  0.00  0.00    +0.000 C 
ENDBRANCH   1  14
BRANCH   1  15
ATOM     15  C   UNL     1       7.070   6.912  16.813  0.00  0.00    +0.000 C 
ATOM     16  O   UNL     1       7.627   6.380  15.850  0.00  0.00    +0.000 OA
BRANCH  15  17
ATOM     17  O   UNL     1       7.382   8.138  17.303  0.00  0.00    +0.000 OA
BRANCH  17  18
ATOM     18  C   UNL     1       8.392   8.146  18.326  0.00  0.00    +0.000 C 
BRANCH  18  19
ATOM     19  C   UNL     1       8.788   9.555  18.599  0.00  0.00    +0.000 A 
ATOM     20  C   UNL     1       8.698  10.683  17.810  0.00  0.00    +0.000 A 
ATOM     21  C   UNL     1       9.184  11.791  18.555  0.00  0.00    +0.000 A 
ATOM     22  C   UNL     1       9.318  13.168  18.288  0.00  0.00    +0.000 A 
ATOM     23  C   UNL     1       9.827  14.016  19.277  0.00  0.00    +0.000 A 
ATOM     24  C   UNL     1      10.222  13.506  20.511  0.00  0.00    +0.000 A 
ATOM     25  C   UNL     1      10.119  12.139  20.794  0.00  0.00    +0.000 A 
ATOM     26  C   UNL     1       9.586  11.305  19.798  0.00  0.00    +0.000 A 
ATOM     27  N   UNL     1       9.348   9.946  19.796  0.00  0.00    +0.000 N 
ATOM     28  H   UNL     1       9.562   9.332  20.570  0.00  0.00    +0.000 HD
ENDBRANCH  18  19
ENDBRANCH  17  18
ENDBRANCH  15  17
ENDBRANCH   1  15
TORSDOF 8
ENDMDL
MODEL 9
REMARK VINA RESULT:      -7.4      3.459      7.005
REMARK  Name = 
REMARK  8 active torsions:
REMARK  status: ('A' for Active; 'I' for Inactive)
REMARK    1  A    between atoms: C_2  and  C_3
REMARK    2  A    between atoms: C_3  and  C_13
REMARK    3  A    between atoms: C_4  and  C_5
REMARK    4  A    between atoms: C_8  and  O_9
REMARK    5  A    between atoms: C_10  and  O_11
REMARK    6  A    between atoms: C_13  and  O_15
REMARK    7  A    between atoms: O_15  and  C_16
REMARK    8  A    between atoms: C_16  and  C_17
REMARK                            x       y       z     vdW  Elec       q    Type
REMARK                         _______ _______ _______ _____ _____    ______ ____
ROOT
ATOM      1  C   UNL     1       2.763   5.051  19.250  0.00  0.00    +0.000 C 
ATOM      2  C   UNL     1       3.936   5.719  19.166  0.00  0.00    +0.000 C 
ENDROOT
BRANCH   2   3
ATOM      3  C   UNL     1       4.904   5.619  18.046  0.00  0.00    +0.000 A 
ATOM      4  C   UNL     1       4.671   6.235  16.800  0.00  0.00    +0.000 A 
ATOM      5  C   UNL     1       5.573   6.087  15.733  0.00  0.00    +0.000 A 
ATOM      6  C   UNL     1       6.732   5.352  15.925  0.00  0.00    +0.000 A 
ATOM      7  C   UNL     1       6.990   4.773  17.164  0.00  0.00    +0.000 A 
ATOM      8  C   UNL     1       6.088   4.893  18.220  0.00  0.00    +0.000 A 
BRANCH   6   9
ATOM      9  O   UNL     1       7.650   5.172  14.929  0.00  0.00    +0.000 OA
ATOM     10  H   UNL     1       7.888   6.046  14.573  0.00  0.00    +0.000 HD
ENDBRANCH   6   9
BRANCH   7  11
ATOM     11  O   UNL     1       8.146   4.071  17.354  0.00  0.00    +0.000 OA
ATOM     12  H   UNL     1       8.036   3.646  18.229  0.00  0.00    +0.000 HD
ENDBRANCH   7  11
ENDBRANCH   2   3
BRANCH   1  14
ATOM     13  N   UNL     1       2.018   3.359  17.173  0.00  0.00    +0.000 NA
ATOM     14  C   UNL     1       2.355   4.126  18.115  0.00  0.00    +0.000 C 
ENDBRANCH   1  14
BRANCH   1  15
ATOM     15  C   UNL     1       1.817   5.218  20.383  0.00  0.00    +0.000 C 
ATOM     16  O   UNL     1       1.001   4.355  20.713  0.00  0.00    +0.000 OA
BRANCH  15  17
ATOM     17  O   UNL     1       1.906   6.449  20.946  0.00  0.00    +0.000 OA
BRANCH  17  18
ATOM     18  C   UNL     1       1.747   7.549  20.033  0.00  0.00    +0.000 C 
BRANCH  18  19
ATOM     19  C   UNL     1       1.004   8.641  20.720  0.00  0.00    +0.000 A 
ATOM     20  C   UNL     1       0.213   8.617  21.850  0.00  0.00    +0.000 A 
ATOM     21  C   UNL     1      -0.238   9.939  22.110  0.00  0.00    +0.000 A 
ATOM     22  C   UNL     1      -1.039  10.522  23.111  0.00  0.00    +0.000 A 
ATOM     23  C   UNL     1      -1.279  11.900  23.089  0.00  0.00    +0.000 A 
ATOM     24  C   UNL     1      -0.749  12.693  22.075  0.00  0.00    +0.000 A 
ATOM     25  C   UNL     1       0.034  12.135  21.056  0.00  0.00    +0.000 A 
ATOM     26  C   UNL     1       0.281  10.755  21.105  0.00  0.00    +0.000 A 
ATOM     27  N   UNL     1       1.019   9.943  20.269  0.00  0.00    +0.000 N 
ATOM     28  H   UNL     1       1.498  10.268  19.440  0.00  0.00    +0.000 HD
ENDBRANCH  18  19
ENDBRANCH  17  18
ENDBRANCH  15  17
ENDBRANCH   1  15
TORSDOF 8
ENDMDL
