MODEL 1
REMARK VINA RESULT:      -6.1      0.000      0.000
REMARK  Name = 
REMARK  15 active torsions:
REMARK  status: ('A' for Active; 'I' for Inactive)
REMARK    1  A    between atoms: C_2  and  C_3
REMARK    2  A    between atoms: C_3  and  C_4
REMARK    3  A    between atoms: C_4  and  C_5
REMARK    4  A    between atoms: C_6  and  C_7
REMARK    5  A    between atoms: C_8  and  C_9
REMARK    6  A    between atoms: C_9  and  C_10
REMARK    7  A    between atoms: C_10  and  C_11
REMARK    8  A    between atoms: C_11  and  C_12
REMARK    9  A    between atoms: C_12  and  C_13
REMARK   10  A    between atoms: C_13  and  C_14
REMARK   11  A    between atoms: C_14  and  C_15
REMARK   12  A    between atoms: C_15  and  C_16
REMARK   13  A    between atoms: C_16  and  O_17
REMARK   14  A    between atoms: C_16  and  C_18
REMARK   15  A    between atoms: C_18  and  N_19
REMARK                            x       y       z     vdW  Elec       q    Type
REMARK                         _______ _______ _______ _____ _____    ______ ____
ROOT
ATOM      1  C   UNL     1       4.220   6.681  17.240  0.00  0.00    +0.000 C 
ENDROOT
BRANCH   1   2
ATOM      2  C   UNL     1       5.161   6.084  16.205  0.00  0.00    +0.000 C 
BRANCH   2   3
ATOM      3  C   UNL     1       6.507   5.759  16.843  0.00  0.00    +0.000 C 
BRANCH   3   5
ATOM      4  C   UNL     1       7.683   7.987  17.696  0.00  0.00    +0.000 C 
ATOM      5  C   UNL     1       7.144   6.978  17.340  0.00  0.00    +0.000 C 
BRANCH   4   7
ATOM      6  C   UNL     1       8.928  10.324  18.327  0.00  0.00    +0.000 C 
ATOM      7  C   UNL     1       8.423   9.271  18.047  0.00  0.00    +0.000 C 
BRANCH   6   8
ATOM      8  C   UNL     1       9.441  11.659  18.655  0.00  0.00    +0.000 C 
BRANCH   8   9
ATOM      9  C   UNL     1      10.678  11.962  17.802  0.00  0.00    +0.000 C 
BRANCH   9  11
ATOM     10  C   UNL     1      11.975  11.842  19.941  0.00  0.00    +0.000 C 
ATOM     11  C   UNL     1      11.942  11.964  18.607  0.00  0.00    +0.000 C 
ENDBRANCH   9  11
ENDBRANCH   8   9
ENDBRANCH   6   8
ENDBRANCH   4   7
ENDBRANCH   3   5
ENDBRANCH   2   3
ENDBRANCH   1   2
BRANCH   1  12
ATOM     12  C   UNL     1       3.971   5.706  18.382  0.00  0.00    +0.000 C 
BRANCH  12  13
ATOM     13  C   UNL     1       2.495   5.337  18.439  0.00  0.00    +0.000 C 
BRANCH  13  14
ATOM     14  C   UNL     1       2.156   4.297  17.380  0.00  0.00    +0.000 C 
BRANCH  14  15
ATOM     15  C   UNL     1       3.193   3.177  17.395  0.00  0.00    +0.000 C 
BRANCH  15  16
ATOM     16  C   UNL     1       2.809   2.061  18.367  0.00  0.00    +0.000 C 
BRANCH  16  17
ATOM     17  O   UNL     1       1.384   1.998  18.471  0.00  0.00    +0.000 OA
ATOM     18  H   UNL     1       1.056   2.702  17.879  0.00  0.00    +0.000 HD
ENDBRANCH  16  17
BRANCH  16  19
ATOM     19  C   UNL     1       3.406   2.280  19.770  0.00  0.00    +0.000 C 
BRANCH  19  20
ATOM     20  N   UNL     1       4.850   2.558  19.722  0.00  0.00    +0.000 NA
ATOM     21  H   UNL     1       5.360   1.793  20.162  0.00  0.00    +0.000 HD
ATOM     22  H   UNL     1       5.042   3.377  20.299  0.00  0.00    +0.000 HD
ENDBRANCH  19  20
ENDBRANCH  16  19
ENDBRANCH  15  16
ENDBRANCH  14  15
ENDBRANCH  13  14
ENDBRANCH  12  13
ENDBRANCH   1  12
TORSDOF 15
ENDMDL
MODEL 2
REMARK VINA RESULT:      -6.0      3.705      7.324
REMARK  Name = 
REMARK  15 active torsions:
REMARK  status: ('A' for Active; 'I' for Inactive)
REMARK    1  A    between atoms: C_2  and  C_3
REMARK    2  A    between atoms: C_3  and  C_4
REMARK    3  A    between atoms: C_4  and  C_5
REMARK    4  A    between atoms: C_6  and  C_7
REMARK    5  A    between atoms: C_8  and  C_9
REMARK    6  A    between atoms: C_9  and  C_10
REMARK    7  A    between atoms: C_10  and  C_11
REMARK    8  A    between atoms: C_11  and  C_12
REMARK    9  A    between atoms: C_12  and  C_13
REMARK   10  A    between atoms: C_13  and  C_14
REMARK   11  A    between atoms: C_14  and  C_15
REMARK   12  A    between atoms: C_15  and  C_16
REMARK   13  A    between atoms: C_16  and  O_17
REMARK   14  A    between atoms: C_16  and  C_18
REMARK   15  A    between atoms: C_18  and  N_19
REMARK                            x       y       z     vdW  Elec       q    Type
REMARK                         _______ _______ _______ _____ _____    ______ ____
ROOT
ATOM      1  C   UNL     1       5.976   6.930  17.035  0.00  0.00    +0.000 C 
ENDROOT
BRANCH   1   2
ATOM      2  C   UNL     1       7.271   6.402  17.635  0.00  0.00    +0.000 C 
BRANCH   2   3
ATOM      3  C   UNL     1       7.398   4.905  17.377  0.00  0.00    +0.000 C 
BRANCH   3   5
ATOM      4  C   UNL     1       6.612   4.273  14.916  0.00  0.00    +0.000 C 
ATOM      5  C   UNL     1       6.976   4.584  16.014  0.00  0.00    +0.000 C 
BRANCH   4   7
ATOM      6  C   UNL     1       5.741   3.296  12.529  0.00  0.00    +0.000 C 
ATOM      7  C   UNL     1       6.140   3.768  13.559  0.00  0.00    +0.000 C 
BRANCH   6   8
ATOM      8  C   UNL     1       5.235   2.620  11.328  0.00  0.00    +0.000 C 
BRANCH   8   9
ATOM      9  C   UNL     1       3.754   2.958  11.130  0.00  0.00    +0.000 C 
BRANCH   9  11
ATOM     10  C   UNL     1       2.702   4.339   9.326  0.00  0.00    +0.000 C 
ATOM     11  C   UNL     1       3.554   4.224  10.352  0.00  0.00    +0.000 C 
ENDBRANCH   9  11
ENDBRANCH   8   9
ENDBRANCH   6   8
ENDBRANCH   4   7
ENDBRANCH   3   5
ENDBRANCH   2   3
ENDBRANCH   1   2
BRANCH   1  12
ATOM     12  C   UNL     1       4.791   6.064  17.438  0.00  0.00    +0.000 C 
BRANCH  12  13
ATOM     13  C   UNL     1       3.629   6.945  17.877  0.00  0.00    +0.000 C 
BRANCH  13  14
ATOM     14  C   UNL     1       2.536   6.112  18.531  0.00  0.00    +0.000 C 
BRANCH  14  15
ATOM     15  C   UNL     1       3.073   4.727  18.883  0.00  0.00    +0.000 C 
BRANCH  15  16
ATOM     16  C   UNL     1       1.957   3.682  18.937  0.00  0.00    +0.000 C 
BRANCH  16  17
ATOM     17  O   UNL     1       1.260   3.675  17.689  0.00  0.00    +0.000 OA
ATOM     18  H   UNL     1       1.934   3.908  17.021  0.00  0.00    +0.000 HD
ENDBRANCH  16  17
BRANCH  16  19
ATOM     19  C   UNL     1       0.953   3.962  20.072  0.00  0.00    +0.000 C 
BRANCH  19  20
ATOM     20  N   UNL     1       0.911   2.870  21.057  0.00  0.00    +0.000 NA
ATOM     21  H   UNL     1       0.281   3.122  21.819  0.00  0.00    +0.000 HD
ATOM     22  H   UNL     1       1.832   2.786  21.486  0.00  0.00    +0.000 HD
ENDBRANCH  19  20
ENDBRANCH  16  19
ENDBRANCH  15  16
ENDBRANCH  14  15
ENDBRANCH  13  14
ENDBRANCH  12  13
ENDBRANCH   1  12
TORSDOF 15
ENDMDL
MODEL 3
REMARK VINA RESULT:      -5.9      1.636      1.941
REMARK  Name = 
REMARK  15 active torsions:
REMARK  status: ('A' for Active; 'I' for Inactive)
REMARK    1  A    between atoms: C_2  and  C_3
REMARK    2  A    between atoms: C_3  and  C_4
REMARK    3  A    between atoms: C_4  and  C_5
REMARK    4  A    between atoms: C_6  and  C_7
REMARK    5  A    between atoms: C_8  and  C_9
REMARK    6  A    between atoms: C_9  and  C_10
REMARK    7  A    between atoms: C_10  and  C_11
REMARK    8  A    between atoms: C_11  and  C_12
REMARK    9  A    between atoms: C_12  and  C_13
REMARK   10  A    between atoms: C_13  and  C_14
REMARK   11  A    between atoms: C_14  and  C_15
REMARK   12  A    between atoms: C_15  and  C_16
REMARK   13  A    between atoms: C_16  and  O_17
REMARK   14  A    between atoms: C_16  and  C_18
REMARK   15  A    between atoms: C_18  and  N_19
REMARK                            x       y       z     vdW  Elec       q    Type
REMARK                         _______ _______ _______ _____ _____    ______ ____
ROOT
ATOM      1  C   UNL     1       4.485   5.002  16.824  0.00  0.00    +0.000 C 
ENDROOT
BRANCH   1   2
ATOM      2  C   UNL     1       5.497   5.781  15.999  0.00  0.00    +0.000 C 
BRANCH   2   3
ATOM      3  C   UNL     1       6.893   5.622  16.592  0.00  0.00    +0.000 C 
BRANCH   3   5
ATOM      4  C   UNL     1       7.775   7.906  17.629  0.00  0.00    +0.000 C 
ATOM      5  C   UNL     1       7.350   6.886  17.168  0.00  0.00    +0.000 C 
BRANCH   4   7
ATOM      6  C   UNL     1       8.972  10.153  18.597  0.00  0.00    +0.000 C 
ATOM      7  C   UNL     1       8.422   9.156  18.214  0.00  0.00    +0.000 C 
BRANCH   6   8
ATOM      8  C   UNL     1       9.706  11.368  18.967  0.00  0.00    +0.000 C 
BRANCH   8   9
ATOM      9  C   UNL     1       9.568  12.413  17.855  0.00  0.00    +0.000 C 
BRANCH   9  11
ATOM     10  C   UNL     1      11.468  13.406  16.562  0.00  0.00    +0.000 C 
ATOM     11  C   UNL     1      10.795  13.262  17.711  0.00  0.00    +0.000 C 
ENDBRANCH   9  11
ENDBRANCH   8   9
ENDBRANCH   6   8
ENDBRANCH   4   7
ENDBRANCH   3   5
ENDBRANCH   2   3
ENDBRANCH   1   2
BRANCH   1  12
ATOM     12  C   UNL     1       3.793   5.901  17.838  0.00  0.00    +0.000 C 
BRANCH  12  13
ATOM     13  C   UNL     1       4.179   5.485  19.251  0.00  0.00    +0.000 C 
BRANCH  13  14
ATOM     14  C   UNL     1       3.388   4.261  19.689  0.00  0.00    +0.000 C 
BRANCH  14  15
ATOM     15  C   UNL     1       4.225   2.999  19.493  0.00  0.00    +0.000 C 
BRANCH  15  16
ATOM     16  C   UNL     1       3.375   1.824  19.008  0.00  0.00    +0.000 C 
BRANCH  16  17
ATOM     17  O   UNL     1       4.231   0.831  18.437  0.00  0.00    +0.000 OA
ATOM     18  H   UNL     1       4.463   0.239  19.179  0.00  0.00    +0.000 HD
ENDBRANCH  16  17
BRANCH  16  19
ATOM     19  C   UNL     1       2.333   2.254  17.957  0.00  0.00    +0.000 C 
BRANCH  19  20
ATOM     20  N   UNL     1       0.958   1.961  18.387  0.00  0.00    +0.000 NA
ATOM     21  H   UNL     1       0.772   0.963  18.282  0.00  0.00    +0.000 HD
ATOM     22  H   UNL     1       0.312   2.423  17.747  0.00  0.00    +0.000 HD
ENDBRANCH  19  20
ENDBRANCH  16  19
ENDBRANCH  15  16
ENDBRANCH  14  15
ENDBRANCH  13  14
ENDBRANCH  12  13
ENDBRANCH   1  12
TORSDOF 15
ENDMDL
MODEL 4
REMARK VINA RESULT:      -5.9      4.123      7.252
REMARK  Name = 
REMARK  15 active torsions:
REMARK  status: ('A' for Active; 'I' for Inactive)
REMARK    1  A    between atoms: C_2  and  C_3
REMARK    2  A    between atoms: C_3  and  C_4
REMARK    3  A    between atoms: C_4  and  C_5
REMARK    4  A    between atoms: C_6  and  C_7
REMARK    5  A    between atoms: C_8  and  C_9
REMARK    6  A    between atoms: C_9  and  C_10
REMARK    7  A    between atoms: C_10  and  C_11
REMARK    8  A    between atoms: C_11  and  C_12
REMARK    9  A    between atoms: C_12  and  C_13
REMARK   10  A    between atoms: C_13  and  C_14
REMARK   11  A    between atoms: C_14  and  C_15
REMARK   12  A    between atoms: C_15  and  C_16
REMARK   13  A    between atoms: C_16  and  O_17
REMARK   14  A    between atoms: C_16  and  C_18
REMARK   15  A    between atoms: C_18  and  N_19
REMARK                            x       y       z     vdW  Elec       q    Type
REMARK                         _______ _______ _______ _____ _____    ______ ____
ROOT
ATOM      1  C   UNL     1       5.633   6.553  17.378  0.00  0.00    +0.000 C 
ENDROOT
BRANCH   1   2
ATOM      2  C   UNL     1       6.449   5.710  18.347  0.00  0.00    +0.000 C 
BRANCH   2   3
ATOM      3  C   UNL     1       7.496   4.903  17.588  0.00  0.00    +0.000 C 
BRANCH   3   5
ATOM      4  C   UNL     1       6.617   4.247  15.165  0.00  0.00    +0.000 C 
ATOM      5  C   UNL     1       7.014   4.571  16.248  0.00  0.00    +0.000 C 
BRANCH   4   7
ATOM      6  C   UNL     1       5.721   3.387  12.742  0.00  0.00    +0.000 C 
ATOM      7  C   UNL     1       6.141   3.724  13.816  0.00  0.00    +0.000 C 
BRANCH   6   8
ATOM      8  C   UNL     1       5.137   3.069  11.434  0.00  0.00    +0.000 C 
BRANCH   8   9
ATOM      9  C   UNL     1       3.806   3.809  11.269  0.00  0.00    +0.000 C 
BRANCH   9  11
ATOM     10  C   UNL     1       2.658   4.495   9.151  0.00  0.00    +0.000 C 
ATOM     11  C   UNL     1       3.161   3.538   9.943  0.00  0.00    +0.000 C 
ENDBRANCH   9  11
ENDBRANCH   8   9
ENDBRANCH   6   8
ENDBRANCH   4   7
ENDBRANCH   3   5
ENDBRANCH   2   3
ENDBRANCH   1   2
BRANCH   1  12
ATOM     12  C   UNL     1       4.216   6.764  17.893  0.00  0.00    +0.000 C 
BRANCH  12  13
ATOM     13  C   UNL     1       3.333   5.596  17.478  0.00  0.00    +0.000 C 
BRANCH  13  14
ATOM     14  C   UNL     1       2.156   5.443  18.431  0.00  0.00    +0.000 C 
BRANCH  14  15
ATOM     15  C   UNL     1       1.851   3.964  18.654  0.00  0.00    +0.000 C 
BRANCH  15  16
ATOM     16  C   UNL     1       2.769   3.347  19.709  0.00  0.00    +0.000 C 
BRANCH  16  17
ATOM     17  O   UNL     1       3.703   2.475  19.067  0.00  0.00    +0.000 OA
ATOM     18  H   UNL     1       3.276   2.221  18.226  0.00  0.00    +0.000 HD
ENDBRANCH  16  17
BRANCH  16  19
ATOM     19  C   UNL     1       1.984   2.549  20.769  0.00  0.00    +0.000 C 
BRANCH  19  20
ATOM     20  N   UNL     1       2.147   3.110  22.119  0.00  0.00    +0.000 NA
ATOM     21  H   UNL     1       1.861   2.419  22.812  0.00  0.00    +0.000 HD
ATOM     22  H   UNL     1       1.495   3.887  22.228  0.00  0.00    +0.000 HD
ENDBRANCH  19  20
ENDBRANCH  16  19
ENDBRANCH  15  16
ENDBRANCH  14  15
ENDBRANCH  13  14
ENDBRANCH  12  13
ENDBRANCH   1  12
TORSDOF 15
ENDMDL
MODEL 5
REMARK VINA RESULT:      -5.8      3.664      7.458
REMARK  Name = 
REMARK  15 active torsions:
REMARK  status: ('A' for Active; 'I' for Inactive)
REMARK    1  A    between atoms: C_2  and  C_3
REMARK    2  A    between atoms: C_3  and  C_4
REMARK    3  A    between atoms: C_4  and  C_5
REMARK    4  A    between atoms: C_6  and  C_7
REMARK    5  A    between atoms: C_8  and  C_9
REMARK    6  A    between atoms: C_9  and  C_10
REMARK    7  A    between atoms: C_10  and  C_11
REMARK    8  A    between atoms: C_11  and  C_12
REMARK    9  A    between atoms: C_12  and  C_13
REMARK   10  A    between atoms: C_13  and  C_14
REMARK   11  A    between atoms: C_14  and  C_15
REMARK   12  A    between atoms: C_15  and  C_16
REMARK   13  A    between atoms: C_16  and  O_17
REMARK   14  A    between atoms: C_16  and  C_18
REMARK   15  A    between atoms: C_18  and  N_19
REMARK                            x       y       z     vdW  Elec       q    Type
REMARK                         _______ _______ _______ _____ _____    ______ ____
ROOT
ATOM      1  C   UNL     1       6.052   6.658  17.917  0.00  0.00    +0.000 C 
ENDROOT
BRANCH   1   2
ATOM      2  C   UNL     1       7.203   6.364  16.966  0.00  0.00    +0.000 C 
BRANCH   2   3
ATOM      3  C   UNL     1       7.383   4.859  16.807  0.00  0.00    +0.000 C 
BRANCH   3   5
ATOM      4  C   UNL     1       6.106   3.992  14.641  0.00  0.00    +0.000 C 
ATOM      5  C   UNL     1       6.656   4.380  15.632  0.00  0.00    +0.000 C 
BRANCH   4   7
ATOM      6  C   UNL     1       5.074   3.237  12.237  0.00  0.00    +0.000 C 
ATOM      7  C   UNL     1       5.498   3.539  13.319  0.00  0.00    +0.000 C 
BRANCH   6   8
ATOM      8  C   UNL     1       4.619   2.955  10.870  0.00  0.00    +0.000 C 
BRANCH   8   9
ATOM      9  C   UNL     1       3.231   3.564  10.652  0.00  0.00    +0.000 C 
BRANCH   9  11
ATOM     10  C   UNL     1       2.041   4.894   8.895  0.00  0.00    +0.000 C 
ATOM     11  C   UNL     1       3.180   4.460   9.451  0.00  0.00    +0.000 C 
ENDBRANCH   9  11
ENDBRANCH   8   9
ENDBRANCH   6   8
ENDBRANCH   4   7
ENDBRANCH   3   5
ENDBRANCH   2   3
ENDBRANCH   1   2
BRANCH   1  12
ATOM     12  C   UNL     1       4.744   6.832  17.158  0.00  0.00    +0.000 C 
BRANCH  12  13
ATOM     13  C   UNL     1       3.818   5.657  17.441  0.00  0.00    +0.000 C 
BRANCH  13  14
ATOM     14  C   UNL     1       2.864   5.983  18.582  0.00  0.00    +0.000 C 
BRANCH  14  15
ATOM     15  C   UNL     1       2.112   4.727  19.011  0.00  0.00    +0.000 C 
BRANCH  15  16
ATOM     16  C   UNL     1       2.764   3.458  18.461  0.00  0.00    +0.000 C 
BRANCH  16  17
ATOM     17  O   UNL     1       1.764   2.650  17.835  0.00  0.00    +0.000 OA
ATOM     18  H   UNL     1       1.172   2.371  18.561  0.00  0.00    +0.000 HD
ENDBRANCH  16  17
BRANCH  16  19
ATOM     19  C   UNL     1       3.456   2.634  19.564  0.00  0.00    +0.000 C 
BRANCH  19  20
ATOM     20  N   UNL     1       4.920   2.640  19.424  0.00  0.00    +0.000 NA
ATOM     21  H   UNL     1       5.172   2.419  18.461  0.00  0.00    +0.000 HD
ATOM     22  H   UNL     1       5.303   1.877  19.983  0.00  0.00    +0.000 HD
ENDBRANCH  19  20
ENDBRANCH  16  19
ENDBRANCH  15  16
ENDBRANCH  14  15
ENDBRANCH  13  14
ENDBRANCH  12  13
ENDBRANCH   1  12
TORSDOF 15
ENDMDL
MODEL 6
REMARK VINA RESULT:      -5.7      1.729      2.239
REMARK  Name = 
REMARK  15 active torsions:
REMARK  status: ('A' for Active; 'I' for Inactive)
REMARK    1  A    between atoms: C_2  and  C_3
REMARK    2  A    between atoms: C_3  and  C_4
REMARK    3  A    between atoms: C_4  and  C_5
REMARK    4  A    between atoms: C_6  and  C_7
REMARK    5  A    between atoms: C_8  and  C_9
REMARK    6  A    between atoms: C_9  and  C_10
REMARK    7  A    between atoms: C_10  and  C_11
REMARK    8  A    between atoms: C_11  and  C_12
REMARK    9  A    between atoms: C_12  and  C_13
REMARK   10  A    between atoms: C_13  and  C_14
REMARK   11  A    between atoms: C_14  and  C_15
REMARK   12  A    between atoms: C_15  and  C_16
REMARK   13  A    between atoms: C_16  and  O_17
REMARK   14  A    between atoms: C_16  and  C_18
REMARK   15  A    between atoms: C_18  and  N_19
REMARK                            x       y       z     vdW  Elec       q    Type
REMARK                         _______ _______ _______ _____ _____    ______ ____
ROOT
ATOM      1  C   UNL     1       4.936   3.988  17.892  0.00  0.00    +0.000 C 
ENDROOT
BRANCH   1   2
ATOM      2  C   UNL     1       4.874   4.940  16.708  0.00  0.00    +0.000 C 
BRANCH   2   3
ATOM      3  C   UNL     1       6.263   5.121  16.104  0.00  0.00    +0.000 C 
BRANCH   3   5
ATOM      4  C   UNL     1       7.455   7.224  17.214  0.00  0.00    +0.000 C 
ATOM      5  C   UNL     1       6.925   6.288  16.687  0.00  0.00    +0.000 C 
BRANCH   4   7
ATOM      6  C   UNL     1       8.619   9.310  18.520  0.00  0.00    +0.000 C 
ATOM      7  C   UNL     1       8.076   8.383  17.983  0.00  0.00    +0.000 C 
BRANCH   6   8
ATOM      8  C   UNL     1       9.358  10.443  19.089  0.00  0.00    +0.000 C 
BRANCH   8   9
ATOM      9  C   UNL     1       9.448  11.572  18.057  0.00  0.00    +0.000 C 
BRANCH   9  11
ATOM     10  C   UNL     1      11.195  12.988  16.957  0.00  0.00    +0.000 C 
ATOM     11  C   UNL     1      10.860  12.001  17.798  0.00  0.00    +0.000 C 
ENDBRANCH   9  11
ENDBRANCH   8   9
ENDBRANCH   6   8
ENDBRANCH   4   7
ENDBRANCH   3   5
ENDBRANCH   2   3
ENDBRANCH   1   2
BRANCH   1  12
ATOM     12  C   UNL     1       5.140   4.747  19.196  0.00  0.00    +0.000 C 
BRANCH  12  13
ATOM     13  C   UNL     1       3.867   5.495  19.567  0.00  0.00    +0.000 C 
BRANCH  13  14
ATOM     14  C   UNL     1       2.989   4.650  20.479  0.00  0.00    +0.000 C 
BRANCH  14  15
ATOM     15  C   UNL     1       1.516   4.920  20.186  0.00  0.00    +0.000 C 
BRANCH  15  16
ATOM     16  C   UNL     1       0.739   3.627  19.941  0.00  0.00    +0.000 C 
BRANCH  16  17
ATOM     17  O   UNL     1       0.931   2.746  21.051  0.00  0.00    +0.000 OA
ATOM     18  H   UNL     1       1.183   3.327  21.795  0.00  0.00    +0.000 HD
ENDBRANCH  16  17
BRANCH  16  19
ATOM     19  C   UNL     1       1.189   2.913  18.651  0.00  0.00    +0.000 C 
BRANCH  19  20
ATOM     20  N   UNL     1       1.775   1.592  18.923  0.00  0.00    +0.000 NA
ATOM     21  H   UNL     1       2.644   1.490  18.399  0.00  0.00    +0.000 HD
ATOM     22  H   UNL     1       1.151   0.877  18.551  0.00  0.00    +0.000 HD
ENDBRANCH  19  20
ENDBRANCH  16  19
ENDBRANCH  15  16
ENDBRANCH  14  15
ENDBRANCH  13  14
ENDBRANCH  12  13
ENDBRANCH   1  12
TORSDOF 15
ENDMDL
MODEL 7
REMARK VINA RESULT:      -5.7      1.271      1.425
REMARK  Name = 
REMARK  15 active torsions:
REMARK  status: ('A' for Active; 'I' for Inactive)
REMARK    1  A    between atoms: C_2  and  C_3
REMARK    2  A    between atoms: C_3  and  C_4
REMARK    3  A    between atoms: C_4  and  C_5
REMARK    4  A    between atoms: C_6  and  C_7
REMARK    5  A    between atoms: C_8  and  C_9
REMARK    6  A    between atoms: C_9  and  C_10
REMARK    7  A    between atoms: C_10  and  C_11
REMARK    8  A    between atoms: C_11  and  C_12
REMARK    9  A    between atoms: C_12  and  C_13
REMARK   10  A    between atoms: C_13  and  C_14
REMARK   11  A    between atoms: C_14  and  C_15
REMARK   12  A    between atoms: C_15  and  C_16
REMARK   13  A    between atoms: C_16  and  O_17
REMARK   14  A    between atoms: C_16  and  C_18
REMARK   15  A    between atoms: C_18  and  N_19
REMARK                            x       y       z     vdW  Elec       q    Type
REMARK                         _______ _______ _______ _____ _____    ______ ____
ROOT
ATOM      1  C   UNL     1       4.248   5.655  17.620  0.00  0.00    +0.000 C 
ENDROOT
BRANCH   1   2
ATOM      2  C   UNL     1       5.047   6.767  16.956  0.00  0.00    +0.000 C 
BRANCH   2   3
ATOM      3  C   UNL     1       6.530   6.414  16.942  0.00  0.00    +0.000 C 
BRANCH   3   5
ATOM      4  C   UNL     1       7.983   8.454  17.837  0.00  0.00    +0.000 C 
ATOM      5  C   UNL     1       7.329   7.547  17.407  0.00  0.00    +0.000 C 
BRANCH   4   7
ATOM      6  C   UNL     1       9.394  10.420  19.085  0.00  0.00    +0.000 C 
ATOM      7  C   UNL     1       8.787   9.570  18.491  0.00  0.00    +0.000 C 
BRANCH   6   8
ATOM      8  C   UNL     1      10.083  11.421  19.907  0.00  0.00    +0.000 C 
BRANCH   8   9
ATOM      9  C   UNL     1      11.527  11.583  19.423  0.00  0.00    +0.000 C 
BRANCH   9  11
ATOM     10  C   UNL     1      11.608  14.066  19.109  0.00  0.00    +0.000 C 
ATOM     11  C   UNL     1      12.071  12.954  19.693  0.00  0.00    +0.000 C 
ENDBRANCH   9  11
ENDBRANCH   8   9
ENDBRANCH   6   8
ENDBRANCH   4   7
ENDBRANCH   3   5
ENDBRANCH   2   3
ENDBRANCH   1   2
BRANCH   1  12
ATOM     12  C   UNL     1       2.949   6.188  18.207  0.00  0.00    +0.000 C 
BRANCH  12  13
ATOM     13  C   UNL     1       1.802   5.244  17.874  0.00  0.00    +0.000 C 
BRANCH  13  14
ATOM     14  C   UNL     1       2.323   3.852  17.549  0.00  0.00    +0.000 C 
BRANCH  14  15
ATOM     15  C   UNL     1       1.550   2.804  18.345  0.00  0.00    +0.000 C 
BRANCH  15  16
ATOM     16  C   UNL     1       2.389   2.222  19.484  0.00  0.00    +0.000 C 
BRANCH  16  17
ATOM     17  O   UNL     1       2.313   3.094  20.615  0.00  0.00    +0.000 OA
ATOM     18  H   UNL     1       2.627   3.959  20.289  0.00  0.00    +0.000 HD
ENDBRANCH  16  17
BRANCH  16  19
ATOM     19  C   UNL     1       3.866   2.043  19.085  0.00  0.00    +0.000 C 
BRANCH  19  20
ATOM     20  N   UNL     1       4.099   0.777  18.372  0.00  0.00    +0.000 NA
ATOM     21  H   UNL     1       4.119   0.950  17.367  0.00  0.00    +0.000 HD
ATOM     22  H   UNL     1       3.296   0.167  18.524  0.00  0.00    +0.000 HD
ENDBRANCH  19  20
ENDBRANCH  16  19
ENDBRANCH  15  16
ENDBRANCH  14  15
ENDBRANCH  13  14
ENDBRANCH  12  13
ENDBRANCH   1  12
TORSDOF 15
ENDMDL
MODEL 8
REMARK VINA RESULT:      -5.7      1.198      1.435
REMARK  Name = 
REMARK  15 active torsions:
REMARK  status: ('A' for Active; 'I' for Inactive)
REMARK    1  A    between atoms: C_2  and  C_3
REMARK    2  A    between atoms: C_3  and  C_4
REMARK    3  A    between atoms: C_4  and  C_5
REMARK    4  A    between atoms: C_6  and  C_7
REMARK    5  A    between atoms: C_8  and  C_9
REMARK    6  A    between atoms: C_9  and  C_10
REMARK    7  A    between atoms: C_10  and  C_11
REMARK    8  A    between atoms: C_11  and  C_12
REMARK    9  A    between atoms: C_12  and  C_13
REMARK   10  A    between atoms: C_13  and  C_14
REMARK   11  A    between atoms: C_14  and  C_15
REMARK   12  A    between atoms: C_15  and  C_16
REMARK   13  A    between atoms: C_16  and  O_17
REMARK   14  A    between atoms: C_16  and  C_18
REMARK   15  A    between atoms: C_18  and  N_19
REMARK                            x       y       z     vdW  Elec       q    Type
REMARK                         _______ _______ _______ _____ _____    ______ ____
ROOT
ATOM      1  C   UNL     1       5.292   5.518  18.906  0.00  0.00    +0.000 C 
ENDROOT
BRANCH   1   2
ATOM      2  C   UNL     1       6.336   4.954  17.955  0.00  0.00    +0.000 C 
BRANCH   2   3
ATOM      3  C   UNL     1       6.641   5.961  16.851  0.00  0.00    +0.000 C 
BRANCH   3   5
ATOM      4  C   UNL     1       7.781   8.150  17.842  0.00  0.00    +0.000 C 
ATOM      5  C   UNL     1       7.245   7.168  17.415  0.00  0.00    +0.000 C 
BRANCH   4   7
ATOM      6  C   UNL     1       9.101  10.350  18.756  0.00  0.00    +0.000 C 
ATOM      7  C   UNL     1       8.561   9.364  18.332  0.00  0.00    +0.000 C 
BRANCH   6   8
ATOM      8  C   UNL     1       9.656  11.592  19.306  0.00  0.00    +0.000 C 
BRANCH   8   9
ATOM      9  C   UNL     1       9.566  12.706  18.258  0.00  0.00    +0.000 C 
BRANCH   9  11
ATOM     10  C   UNL     1      11.997  12.650  17.659  0.00  0.00    +0.000 C 
ATOM     11  C   UNL     1      10.710  12.674  17.289  0.00  0.00    +0.000 C 
ENDBRANCH   9  11
ENDBRANCH   8   9
ENDBRANCH   6   8
ENDBRANCH   4   7
ENDBRANCH   3   5
ENDBRANCH   2   3
ENDBRANCH   1   2
BRANCH   1  12
ATOM     12  C   UNL     1       4.108   6.095  18.143  0.00  0.00    +0.000 C 
BRANCH  12  13
ATOM     13  C   UNL     1       3.341   4.978  17.449  0.00  0.00    +0.000 C 
BRANCH  13  14
ATOM     14  C   UNL     1       2.492   4.205  18.447  0.00  0.00    +0.000 C 
BRANCH  14  15
ATOM     15  C   UNL     1       2.522   2.715  18.118  0.00  0.00    +0.000 C 
BRANCH  15  16
ATOM     16  C   UNL     1       3.834   2.063  18.557  0.00  0.00    +0.000 C 
BRANCH  16  17
ATOM     17  O   UNL     1       3.747   0.650  18.353  0.00  0.00    +0.000 OA
ATOM     18  H   UNL     1       4.644   0.378  18.078  0.00  0.00    +0.000 HD
ENDBRANCH  16  17
BRANCH  16  19
ATOM     19  C   UNL     1       4.152   2.337  20.040  0.00  0.00    +0.000 C 
BRANCH  19  20
ATOM     20  N   UNL     1       5.265   1.509  20.530  0.00  0.00    +0.000 NA
ATOM     21  H   UNL     1       5.954   1.388  19.788  0.00  0.00    +0.000 HD
ATOM     22  H   UNL     1       4.911   0.572  20.723  0.00  0.00    +0.000 HD
ENDBRANCH  19  20
ENDBRANCH  16  19
ENDBRANCH  15  16
ENDBRANCH  14  15
ENDBRANCH  13  14
ENDBRANCH  12  13
ENDBRANCH   1  12
TORSDOF 15
ENDMDL
MODEL 9
REMARK VINA RESULT:      -5.7      4.180      7.270
REMARK  Name = 
REMARK  15 active torsions:
REMARK  status: ('A' for Active; 'I' for Inactive)
REMARK    1  A    between atoms: C_2  and  C_3
REMARK    2  A    between atoms: C_3  and  C_4
REMARK    3  A    between atoms: C_4  and  C_5
REMARK    4  A    between atoms: C_6  and  C_7
REMARK    5  A    between atoms: C_8  and  C_9
REMARK    6  A    between atoms: C_9  and  C_10
REMARK    7  A    between atoms: C_10  and  C_11
REMARK    8  A    between atoms: C_11  and  C_12
REMARK    9  A    between atoms: C_12  and  C_13
REMARK   10  A    between atoms: C_13  and  C_14
REMARK   11  A    between atoms: C_14  and  C_15
REMARK   12  A    between atoms: C_15  and  C_16
REMARK   13  A    between atoms: C_16  and  O_17
REMARK   14  A    between atoms: C_16  and  C_18
REMARK   15  A    between atoms: C_18  and  N_19
REMARK                            x       y       z     vdW  Elec       q    Type
REMARK                         _______ _______ _______ _____ _____    ______ ____
ROOT
ATOM      1  C   UNL     1       5.394   6.523  16.997  0.00  0.00    +0.000 C 
ENDROOT
BRANCH   1   2
ATOM      2  C   UNL     1       6.279   5.856  18.038  0.00  0.00    +0.000 C 
BRANCH   2   3
ATOM      3  C   UNL     1       7.450   5.153  17.360  0.00  0.00    +0.000 C 
BRANCH   3   5
ATOM      4  C   UNL     1       6.745   4.395  14.911  0.00  0.00    +0.000 C 
ATOM      5  C   UNL     1       7.087   4.749  16.002  0.00  0.00    +0.000 C 
BRANCH   4   7
ATOM      6  C   UNL     1       5.792   3.393  12.565  0.00  0.00    +0.000 C 
ATOM      7  C   UNL     1       6.235   3.871  13.574  0.00  0.00    +0.000 C 
BRANCH   6   8
ATOM      8  C   UNL     1       5.215   2.720  11.396  0.00  0.00    +0.000 C 
BRANCH   8   9
ATOM      9  C   UNL     1       3.712   3.007  11.324  0.00  0.00    +0.000 C 
BRANCH   9  11
ATOM     10  C   UNL     1       2.902   4.085   9.214  0.00  0.00    +0.000 C 
ATOM     11  C   UNL     1       3.395   4.187  10.455  0.00  0.00    +0.000 C 
ENDBRANCH   9  11
ENDBRANCH   8   9
ENDBRANCH   6   8
ENDBRANCH   4   7
ENDBRANCH   3   5
ENDBRANCH   2   3
ENDBRANCH   1   2
BRANCH   1  12
ATOM     12  C   UNL     1       3.951   6.056  17.123  0.00  0.00    +0.000 C 
BRANCH  12  13
ATOM     13  C   UNL     1       3.271   6.773  18.282  0.00  0.00    +0.000 C 
BRANCH  13  14
ATOM     14  C   UNL     1       2.308   5.842  19.004  0.00  0.00    +0.000 C 
BRANCH  14  15
ATOM     15  C   UNL     1       2.378   4.443  18.398  0.00  0.00    +0.000 C 
BRANCH  15  16
ATOM     16  C   UNL     1       2.878   3.410  19.409  0.00  0.00    +0.000 C 
BRANCH  16  17
ATOM     17  O   UNL     1       4.287   3.574  19.589  0.00  0.00    +0.000 OA
ATOM     18  H   UNL     1       4.666   3.518  18.690  0.00  0.00    +0.000 HD
ENDBRANCH  16  17
BRANCH  16  19
ATOM     19  C   UNL     1       2.595   1.966  18.953  0.00  0.00    +0.000 C 
BRANCH  19  20
ATOM     20  N   UNL     1       1.182   1.764  18.596  0.00  0.00    +0.000 NA
ATOM     21  H   UNL     1       0.794   2.634  18.233  0.00  0.00    +0.000 HD
ATOM     22  H   UNL     1       0.657   1.571  19.449  0.00  0.00    +0.000 HD
ENDBRANCH  19  20
ENDBRANCH  16  19
ENDBRANCH  15  16
ENDBRANCH  14  15
ENDBRANCH  13  14
ENDBRANCH  12  13
ENDBRANCH   1  12
TORSDOF 15
ENDMDL
