MODEL 1
REMARK VINA RESULT:      -8.3      0.000      0.000
REMARK  Name = 
REMARK  5 active torsions:
REMARK  status: ('A' for Active; 'I' for Inactive)
REMARK    1  A    between atoms: C_2  and  OXT_3
REMARK    2  A    between atoms: C_2  and  CA_4
REMARK    3  A    between atoms: C_8  and  O_9
REMARK    4  A    between atoms: O_9  and  C_10
REMARK    5  A    between atoms: C_16  and  C_17
REMARK                            x       y       z     vdW  Elec       q    Type
REMARK                         _______ _______ _______ _____ _____    ______ ____
ROOT
ATOM      1  CA  UNL     1       4.647   4.084  18.099  0.00  0.00    +0.000 C 
ATOM      2  C   UNL     1       4.533   2.875  19.025  0.00  0.00    +0.000 C 
ATOM      3  C   UNL     1       3.168   2.906  19.724  0.00  0.00    +0.000 C 
ATOM      4  C   UNL     1       3.135   3.922  20.916  0.00  0.00    +0.000 C 
ATOM      5  C   UNL     1       1.962   4.938  21.085  0.00  0.00    +0.000 C 
ATOM      6  C   UNL     1       0.742   4.689  20.161  0.00  0.00    +0.000 C 
ATOM      7  C   UNL     1       0.701   3.304  19.470  0.00  0.00    +0.000 C 
ATOM      8  C   UNL     1       2.014   3.015  18.704  0.00  0.00    +0.000 C 
ATOM      9  C   UNL     1       2.290   4.033  17.551  0.00  0.00    +0.000 C 
ATOM     10  N   UNL     1       3.658   3.915  17.019  0.00  0.00    +0.000 NA
ATOM     11  H   UNL     1       3.794   4.666  16.300  0.00  0.00    +0.000 HD
ENDROOT
BRANCH   1  13
ATOM     12  O   UNL     1       6.212   4.328  16.343  0.00  0.00    +0.000 OA
ATOM     13  C   UNL     1       6.049   4.215  17.549  0.00  0.00    +0.000 C 
BRANCH  13  14
ATOM     14  OXT UNL     1       7.131   4.215  18.356  0.00  0.00    +0.000 OA
ATOM     15  HXT UNL     1       7.358   3.458  18.906  0.00  0.00    +0.000 HD
ENDBRANCH  13  14
ENDBRANCH   1  13
BRANCH   5  16
ATOM     16  O   UNL     1       2.363   6.284  21.018  0.00  0.00    +0.000 OA
BRANCH  16  17
ATOM     17  C   UNL     1       2.171   7.154  19.970  0.00  0.00    +0.000 A 
ATOM     18  C   UNL     1       2.716   6.859  18.698  0.00  0.00    +0.000 A 
ATOM     19  C   UNL     1       2.571   7.727  17.624  0.00  0.00    +0.000 A 
ATOM     20  C   UNL     1       1.896   8.923  17.781  0.00  0.00    +0.000 A 
ATOM     21  C   UNL     1       1.338   9.268  19.010  0.00  0.00    +0.000 A 
ATOM     22 CL   UNL     1       0.527  10.838  19.025  0.00  0.00    +0.000 Cl
ATOM     23  C   UNL     1       1.445   8.389  20.134  0.00  0.00    +0.000 A 
BRANCH  23  24
ATOM     24  C   UNL     1       0.810   8.793  21.445  0.00  0.00    +0.000 A 
ATOM     25  N   UNL     1       1.466   9.417  22.445  0.00  0.00    +0.000 NA
ATOM     26  N   UNL     1       0.588   9.611  23.405  0.00  0.00    +0.000 NA
ATOM     27  N   UNL     1      -0.585   9.135  23.029  0.00  0.00    +0.000 NA
ATOM     28  N   UNL     1      -0.472   8.619  21.815  0.00  0.00    +0.000 N 
ATOM     29  H   UNL     1      -1.266   8.186  21.305  0.00  0.00    +0.000 HD
ENDBRANCH  23  24
ENDBRANCH  16  17
ENDBRANCH   5  16
TORSDOF 5
ENDMDL
MODEL 2
REMARK VINA RESULT:      -8.0      1.280      1.511
REMARK  Name = 
REMARK  5 active torsions:
REMARK  status: ('A' for Active; 'I' for Inactive)
REMARK    1  A    between atoms: C_2  and  OXT_3
REMARK    2  A    between atoms: C_2  and  CA_4
REMARK    3  A    between atoms: C_8  and  O_9
REMARK    4  A    between atoms: O_9  and  C_10
REMARK    5  A    between atoms: C_16  and  C_17
REMARK                            x       y       z     vdW  Elec       q    Type
REMARK                         _______ _______ _______ _____ _____    ______ ____
ROOT
ATOM      1  CA  UNL     1       5.824   5.336  18.897  0.00  0.00    +0.000 C 
ATOM      2  C   UNL     1       5.509   3.936  19.421  0.00  0.00    +0.000 C 
ATOM      3  C   UNL     1       4.001   3.683  19.295  0.00  0.00    +0.000 C 
ATOM      4  C   UNL     1       3.185   4.380  20.436  0.00  0.00    +0.000 C 
ATOM      5  C   UNL     1       1.908   5.222  20.124  0.00  0.00    +0.000 C 
ATOM      6  C   UNL     1       1.379   5.094  18.671  0.00  0.00    +0.000 C 
ATOM      7  C   UNL     1       1.959   3.915  17.852  0.00  0.00    +0.000 C 
ATOM      8  C   UNL     1       3.506   3.930  17.854  0.00  0.00    +0.000 C 
ATOM      9  C   UNL     1       4.108   5.212  17.195  0.00  0.00    +0.000 C 
ATOM     10  N   UNL     1       5.554   5.343  17.449  0.00  0.00    +0.000 NA
ATOM     11  H   UNL     1       5.875   6.252  17.037  0.00  0.00    +0.000 HD
ENDROOT
BRANCH   1  13
ATOM     12  O   UNL     1       7.904   6.320  18.351  0.00  0.00    +0.000 OA
ATOM     13  C   UNL     1       7.258   5.714  19.193  0.00  0.00    +0.000 C 
BRANCH  13  14
ATOM     14  OXT UNL     1       7.847   5.403  20.367  0.00  0.00    +0.000 OA
ATOM     15  HXT UNL     1       7.931   6.045  21.081  0.00  0.00    +0.000 HD
ENDBRANCH  13  14
ENDBRANCH   1  13
BRANCH   5  16
ATOM     16  O   UNL     1       2.016   6.574  20.490  0.00  0.00    +0.000 OA
BRANCH  16  17
ATOM     17  C   UNL     1       1.926   7.668  19.661  0.00  0.00    +0.000 A 
ATOM     18  C   UNL     1       2.460   7.607  18.352  0.00  0.00    +0.000 A 
ATOM     19  C   UNL     1       2.417   8.700  17.496  0.00  0.00    +0.000 A 
ATOM     20  C   UNL     1       1.858   9.893  17.917  0.00  0.00    +0.000 A 
ATOM     21  C   UNL     1       1.316  10.011  19.195  0.00  0.00    +0.000 A 
ATOM     22 CL   UNL     1       0.659  11.611  19.559  0.00  0.00    +0.000 Cl
ATOM     23  C   UNL     1       1.319   8.901  20.096  0.00  0.00    +0.000 A 
BRANCH  23  24
ATOM     24  C   UNL     1       0.706   9.068  21.468  0.00  0.00    +0.000 A 
ATOM     25  N   UNL     1       1.356   9.580  22.533  0.00  0.00    +0.000 NA
ATOM     26  N   UNL     1       0.500   9.574  23.532  0.00  0.00    +0.000 NA
ATOM     27  N   UNL     1      -0.654   9.083  23.119  0.00  0.00    +0.000 NA
ATOM     28  N   UNL     1      -0.550   8.759  21.839  0.00  0.00    +0.000 N 
ATOM     29  H   UNL     1      -1.333   8.355  21.289  0.00  0.00    +0.000 HD
ENDBRANCH  23  24
ENDBRANCH  16  17
ENDBRANCH   5  16
TORSDOF 5
ENDMDL
MODEL 3
REMARK VINA RESULT:      -7.6      0.915      1.327
REMARK  Name = 
REMARK  5 active torsions:
REMARK  status: ('A' for Active; 'I' for Inactive)
REMARK    1  A    between atoms: C_2  and  OXT_3
REMARK    2  A    between atoms: C_2  and  CA_4
REMARK    3  A    between atoms: C_8  and  O_9
REMARK    4  A    between atoms: O_9  and  C_10
REMARK    5  A    between atoms: C_16  and  C_17
REMARK                            x       y       z     vdW  Elec       q    Type
REMARK                         _______ _______ _______ _____ _____    ______ ____
ROOT
ATOM      1  CA  UNL     1       5.471   4.595  18.928  0.00  0.00    +0.000 C 
ATOM      2  C   UNL     1       5.067   3.311  19.648  0.00  0.00    +0.000 C 
ATOM      3  C   UNL     1       3.536   3.234  19.713  0.00  0.00    +0.000 C 
ATOM      4  C   UNL     1       2.944   4.146  20.840  0.00  0.00    +0.000 C 
ATOM      5  C   UNL     1       1.740   5.100  20.565  0.00  0.00    +0.000 C 
ATOM      6  C   UNL     1       1.031   4.883  19.202  0.00  0.00    +0.000 C 
ATOM      7  C   UNL     1       1.375   3.560  18.476  0.00  0.00    +0.000 C 
ATOM      8  C   UNL     1       2.904   3.384  18.312  0.00  0.00    +0.000 C 
ATOM      9  C   UNL     1       3.562   4.502  17.443  0.00  0.00    +0.000 C 
ATOM     10  N   UNL     1       5.033   4.480  17.526  0.00  0.00    +0.000 NA
ATOM     11  H   UNL     1       5.402   5.292  16.975  0.00  0.00    +0.000 HD
ENDROOT
BRANCH   1  13
ATOM     12  O   UNL     1       7.417   5.431  19.981  0.00  0.00    +0.000 OA
ATOM     13  C   UNL     1       6.963   4.823  19.023  0.00  0.00    +0.000 C 
BRANCH  13  14
ATOM     14  OXT UNL     1       7.812   4.369  18.077  0.00  0.00    +0.000 OA
ATOM     15  HXT UNL     1       7.521   3.787  17.367  0.00  0.00    +0.000 HD
ENDBRANCH  13  14
ENDBRANCH   1  13
BRANCH   5  16
ATOM     16  O   UNL     1       2.040   6.460  20.751  0.00  0.00    +0.000 OA
BRANCH  16  17
ATOM     17  C   UNL     1       1.955   7.464  19.815  0.00  0.00    +0.000 A 
ATOM     18  C   UNL     1       2.458   7.256  18.508  0.00  0.00    +0.000 A 
ATOM     19  C   UNL     1       2.418   8.255  17.545  0.00  0.00    +0.000 A 
ATOM     20  C   UNL     1       1.895   9.498  17.850  0.00  0.00    +0.000 A 
ATOM     21  C   UNL     1       1.385   9.761  19.120  0.00  0.00    +0.000 A 
ATOM     22 CL   UNL     1       0.772  11.405  19.329  0.00  0.00    +0.000 Cl
ATOM     23  C   UNL     1       1.385   8.750  20.132  0.00  0.00    +0.000 A 
BRANCH  23  24
ATOM     24  C   UNL     1       0.807   9.072  21.491  0.00  0.00    +0.000 A 
ATOM     25  N   UNL     1      -0.506   9.271  21.729  0.00  0.00    +0.000 NA
ATOM     26  N   UNL     1      -0.621   9.513  23.017  0.00  0.00    +0.000 NA
ATOM     27  N   UNL     1       0.573   9.465  23.580  0.00  0.00    +0.000 NA
ATOM     28  N   UNL     1       1.477   9.194  22.651  0.00  0.00    +0.000 N 
ATOM     29  H   UNL     1       2.491   9.101  22.854  0.00  0.00    +0.000 HD
ENDBRANCH  23  24
ENDBRANCH  16  17
ENDBRANCH   5  16
TORSDOF 5
ENDMDL
MODEL 4
REMARK VINA RESULT:      -7.5      9.236     10.555
REMARK  Name = 
REMARK  5 active torsions:
REMARK  status: ('A' for Active; 'I' for Inactive)
REMARK    1  A    between atoms: C_2  and  OXT_3
REMARK    2  A    between atoms: C_2  and  CA_4
REMARK    3  A    between atoms: C_8  and  O_9
REMARK    4  A    between atoms: O_9  and  C_10
REMARK    5  A    between atoms: C_16  and  C_17
REMARK                            x       y       z     vdW  Elec       q    Type
REMARK                         _______ _______ _______ _____ _____    ______ ____
ROOT
ATOM      1  CA  UNL     1      10.342  14.432  17.942  0.00  0.00    +0.000 C 
ATOM      2  C   UNL     1      11.538  13.494  17.793  0.00  0.00    +0.000 C 
ATOM      3  C   UNL     1      11.234  12.176  18.518  0.00  0.00    +0.000 C 
ATOM      4  C   UNL     1      11.419  12.295  20.069  0.00  0.00    +0.000 C 
ATOM      5  C   UNL     1      10.338  11.761  21.060  0.00  0.00    +0.000 C 
ATOM      6  C   UNL     1       9.229  10.892  20.411  0.00  0.00    +0.000 C 
ATOM      7  C   UNL     1       9.527  10.392  18.977  0.00  0.00    +0.000 C 
ATOM      8  C   UNL     1       9.902  11.562  18.035  0.00  0.00    +0.000 C 
ATOM      9  C   UNL     1       8.753  12.607  17.867  0.00  0.00    +0.000 C 
ATOM     10  N   UNL     1       9.214  13.838  17.202  0.00  0.00    +0.000 NA
ATOM     11  H   UNL     1       8.414  14.516  17.182  0.00  0.00    +0.000 HD
ENDROOT
BRANCH   1  13
ATOM     12  O   UNL     1      11.696  15.987  16.785  0.00  0.00    +0.000 OA
ATOM     13  C   UNL     1      10.672  15.815  17.429  0.00  0.00    +0.000 C 
BRANCH  13  14
ATOM     14  OXT UNL     1       9.862  16.870  17.661  0.00  0.00    +0.000 OA
ATOM     15  HXT UNL     1       9.269  16.901  18.419  0.00  0.00    +0.000 HD
ENDBRANCH  13  14
ENDBRANCH   1  13
BRANCH   5  16
ATOM     16  O   UNL     1       9.769  12.757  21.871  0.00  0.00    +0.000 OA
BRANCH  16  17
ATOM     17  C   UNL     1       8.551  12.713  22.508  0.00  0.00    +0.000 A 
ATOM     18  C   UNL     1       8.318  11.753  23.521  0.00  0.00    +0.000 A 
ATOM     19  C   UNL     1       7.092  11.656  24.165  0.00  0.00    +0.000 A 
ATOM     20  C   UNL     1       6.052  12.498  23.815  0.00  0.00    +0.000 A 
ATOM     21  C   UNL     1       6.223  13.464  22.826  0.00  0.00    +0.000 A 
ATOM     22 CL   UNL     1       4.783  14.437  22.504  0.00  0.00    +0.000 Cl
ATOM     23  C   UNL     1       7.479  13.611  22.156  0.00  0.00    +0.000 A 
BRANCH  23  24
ATOM     24  C   UNL     1       7.627  14.683  21.101  0.00  0.00    +0.000 A 
ATOM     25  N   UNL     1       8.332  15.820  21.267  0.00  0.00    +0.000 NA
ATOM     26  N   UNL     1       8.238  16.489  20.139  0.00  0.00    +0.000 NA
ATOM     27  N   UNL     1       7.506  15.801  19.282  0.00  0.00    +0.000 NA
ATOM     28  N   UNL     1       7.112  14.675  19.857  0.00  0.00    +0.000 N 
ATOM     29  H   UNL     1       6.525  13.966  19.377  0.00  0.00    +0.000 HD
ENDBRANCH  23  24
ENDBRANCH  16  17
ENDBRANCH   5  16
TORSDOF 5
ENDMDL
MODEL 5
REMARK VINA RESULT:      -7.1      6.004      8.520
REMARK  Name = 
REMARK  5 active torsions:
REMARK  status: ('A' for Active; 'I' for Inactive)
REMARK    1  A    between atoms: C_2  and  OXT_3
REMARK    2  A    between atoms: C_2  and  CA_4
REMARK    3  A    between atoms: C_8  and  O_9
REMARK    4  A    between atoms: O_9  and  C_10
REMARK    5  A    between atoms: C_16  and  C_17
REMARK                            x       y       z     vdW  Elec       q    Type
REMARK                         _______ _______ _______ _____ _____    ______ ____
ROOT
ATOM      1  CA  UNL     1      -0.099  10.302  21.659  0.00  0.00    +0.000 C 
ATOM      2  C   UNL     1       0.187   9.481  20.404  0.00  0.00    +0.000 C 
ATOM      3  C   UNL     1       0.047  10.384  19.172  0.00  0.00    +0.000 C 
ATOM      4  C   UNL     1      -1.450  10.618  18.774  0.00  0.00    +0.000 C 
ATOM      5  C   UNL     1      -1.995  12.047  18.462  0.00  0.00    +0.000 C 
ATOM      6  C   UNL     1      -0.908  13.145  18.322  0.00  0.00    +0.000 C 
ATOM      7  C   UNL     1       0.543  12.630  18.163  0.00  0.00    +0.000 C 
ATOM      8  C   UNL     1       0.924  11.649  19.297  0.00  0.00    +0.000 C 
ATOM      9  C   UNL     1       0.883  12.303  20.715  0.00  0.00    +0.000 C 
ATOM     10  N   UNL     1       0.974  11.303  21.793  0.00  0.00    +0.000 NA
ATOM     11  H   UNL     1       0.874  11.803  22.709  0.00  0.00    +0.000 HD
ENDROOT
BRANCH   1  13
ATOM     12  O   UNL     1       0.463   9.704  23.876  0.00  0.00    +0.000 OA
ATOM     13  C   UNL     1      -0.182   9.415  22.880  0.00  0.00    +0.000 C 
BRANCH  13  14
ATOM     14  OXT UNL     1      -0.955   8.308  22.902  0.00  0.00    +0.000 OA
ATOM     15  HXT UNL     1      -0.649   7.479  23.286  0.00  0.00    +0.000 HD
ENDBRANCH  13  14
ENDBRANCH   1  13
BRANCH   5  16
ATOM     16  O   UNL     1      -3.011  12.470  19.336  0.00  0.00    +0.000 OA
BRANCH  16  17
ATOM     17  C   UNL     1      -4.337  12.107  19.303  0.00  0.00    +0.000 A 
ATOM     18  C   UNL     1      -4.885  11.540  18.128  0.00  0.00    +0.000 A 
ATOM     19  C   UNL     1      -6.226  11.189  18.046  0.00  0.00    +0.000 A 
ATOM     20  C   UNL     1      -7.070  11.405  19.120  0.00  0.00    +0.000 A 
ATOM     21  C   UNL     1      -6.587  11.959  20.303  0.00  0.00    +0.000 A 
ATOM     22 CL   UNL     1      -7.812  12.171  21.559  0.00  0.00    +0.000 Cl
ATOM     23  C   UNL     1      -5.206  12.310  20.435  0.00  0.00    +0.000 A 
BRANCH  23  24
ATOM     24  C   UNL     1      -4.719  12.893  21.742  0.00  0.00    +0.000 A 
ATOM     25  N   UNL     1      -5.100  14.093  22.227  0.00  0.00    +0.000 NA
ATOM     26  N   UNL     1      -4.480  14.246  23.377  0.00  0.00    +0.000 NA
ATOM     27  N   UNL     1      -3.738  13.181  23.621  0.00  0.00    +0.000 NA
ATOM     28  N   UNL     1      -3.868  12.327  22.618  0.00  0.00    +0.000 N 
ATOM     29  H   UNL     1      -3.381  11.410  22.584  0.00  0.00    +0.000 HD
ENDBRANCH  23  24
ENDBRANCH  16  17
ENDBRANCH   5  16
TORSDOF 5
ENDMDL
MODEL 6
REMARK VINA RESULT:      -7.0      9.869     11.052
REMARK  Name = 
REMARK  5 active torsions:
REMARK  status: ('A' for Active; 'I' for Inactive)
REMARK    1  A    between atoms: C_2  and  OXT_3
REMARK    2  A    between atoms: C_2  and  CA_4
REMARK    3  A    between atoms: C_8  and  O_9
REMARK    4  A    between atoms: O_9  and  C_10
REMARK    5  A    between atoms: C_16  and  C_17
REMARK                            x       y       z     vdW  Elec       q    Type
REMARK                         _______ _______ _______ _____ _____    ______ ____
ROOT
ATOM      1  CA  UNL     1      10.516  14.355  17.830  0.00  0.00    +0.000 C 
ATOM      2  C   UNL     1      11.761  13.559  18.218  0.00  0.00    +0.000 C 
ATOM      3  C   UNL     1      11.348  12.397  19.131  0.00  0.00    +0.000 C 
ATOM      4  C   UNL     1      11.090  12.863  20.604  0.00  0.00    +0.000 C 
ATOM      5  C   UNL     1       9.811  12.423  21.383  0.00  0.00    +0.000 C 
ATOM      6  C   UNL     1       8.979  11.308  20.698  0.00  0.00    +0.000 C 
ATOM      7  C   UNL     1       9.691  10.557  19.547  0.00  0.00    +0.000 C 
ATOM      8  C   UNL     1      10.241  11.538  18.484  0.00  0.00    +0.000 C 
ATOM      9  C   UNL     1       9.123  12.376  17.785  0.00  0.00    +0.000 C 
ATOM     10  N   UNL     1       9.674  13.486  16.989  0.00  0.00    +0.000 NA
ATOM     11  H   UNL     1       8.872  14.042  16.606  0.00  0.00    +0.000 HD
ENDROOT
BRANCH   1  13
ATOM     12  O   UNL     1      11.295  16.586  17.749  0.00  0.00    +0.000 OA
ATOM     13  C   UNL     1      10.891  15.628  17.107  0.00  0.00    +0.000 C 
BRANCH  13  14
ATOM     14  OXT UNL     1      10.796  15.737  15.765  0.00  0.00    +0.000 OA
ATOM     15  HXT UNL     1      10.321  16.462  15.344  0.00  0.00    +0.000 HD
ENDBRANCH  13  14
ENDBRANCH   1  13
BRANCH   5  16
ATOM     16  O   UNL     1       8.982  13.492  21.764  0.00  0.00    +0.000 OA
BRANCH  16  17
ATOM     17  C   UNL     1       9.179  14.362  22.810  0.00  0.00    +0.000 A 
ATOM     18  C   UNL     1      10.081  15.443  22.669  0.00  0.00    +0.000 A 
ATOM     19  C   UNL     1      10.329  16.325  23.713  0.00  0.00    +0.000 A 
ATOM     20  C   UNL     1       9.705  16.153  24.935  0.00  0.00    +0.000 A 
ATOM     21  C   UNL     1       8.807  15.106  25.132  0.00  0.00    +0.000 A 
ATOM     22 CL   UNL     1       8.119  15.037  26.759  0.00  0.00    +0.000 Cl
ATOM     23  C   UNL     1       8.506  14.192  24.074  0.00  0.00    +0.000 A 
BRANCH  23  24
ATOM     24  C   UNL     1       7.512  13.081  24.325  0.00  0.00    +0.000 A 
ATOM     25  N   UNL     1       6.196  13.274  24.544  0.00  0.00    +0.000 NA
ATOM     26  N   UNL     1       5.663  12.083  24.708  0.00  0.00    +0.000 NA
ATOM     27  N   UNL     1       6.604  11.163  24.592  0.00  0.00    +0.000 NA
ATOM     28  N   UNL     1       7.763  11.759  24.355  0.00  0.00    +0.000 N 
ATOM     29  H   UNL     1       8.652  11.240  24.223  0.00  0.00    +0.000 HD
ENDBRANCH  23  24
ENDBRANCH  16  17
ENDBRANCH   5  16
TORSDOF 5
ENDMDL
MODEL 7
REMARK VINA RESULT:      -6.9      3.591      6.636
REMARK  Name = 
REMARK  5 active torsions:
REMARK  status: ('A' for Active; 'I' for Inactive)
REMARK    1  A    between atoms: C_2  and  OXT_3
REMARK    2  A    between atoms: C_2  and  CA_4
REMARK    3  A    between atoms: C_8  and  O_9
REMARK    4  A    between atoms: O_9  and  C_10
REMARK    5  A    between atoms: C_16  and  C_17
REMARK                            x       y       z     vdW  Elec       q    Type
REMARK                         _______ _______ _______ _____ _____    ______ ____
ROOT
ATOM      1  CA  UNL     1       2.364   5.931  19.725  0.00  0.00    +0.000 C 
ATOM      2  C   UNL     1       1.146   5.306  19.051  0.00  0.00    +0.000 C 
ATOM      3  C   UNL     1       1.522   3.913  18.529  0.00  0.00    +0.000 C 
ATOM      4  C   UNL     1       2.329   3.979  17.189  0.00  0.00    +0.000 C 
ATOM      5  C   UNL     1       3.637   3.151  16.985  0.00  0.00    +0.000 C 
ATOM      6  C   UNL     1       3.916   2.090  18.081  0.00  0.00    +0.000 C 
ATOM      7  C   UNL     1       2.720   1.759  19.008  0.00  0.00    +0.000 C 
ATOM      8  C   UNL     1       2.128   3.037  19.648  0.00  0.00    +0.000 C 
ATOM      9  C   UNL     1       3.145   3.797  20.558  0.00  0.00    +0.000 C 
ATOM     10  N   UNL     1       2.664   5.139  20.931  0.00  0.00    +0.000 NA
ATOM     11  H   UNL     1       3.420   5.613  21.483  0.00  0.00    +0.000 HD
ENDROOT
BRANCH   1  13
ATOM     12  O   UNL     1       2.127   8.220  19.179  0.00  0.00    +0.000 OA
ATOM     13  C   UNL     1       2.109   7.382  20.068  0.00  0.00    +0.000 C 
BRANCH  13  14
ATOM     14  OXT UNL     1       1.857   7.779  21.333  0.00  0.00    +0.000 OA
ATOM     15  HXT UNL     1       1.095   8.326  21.554  0.00  0.00    +0.000 HD
ENDBRANCH  13  14
ENDBRANCH   1  13
BRANCH   5  16
ATOM     16  O   UNL     1       4.778   3.939  16.763  0.00  0.00    +0.000 OA
BRANCH  16  17
ATOM     17  C   UNL     1       5.445   4.117  15.573  0.00  0.00    +0.000 A 
ATOM     18  C   UNL     1       5.003   3.444  14.409  0.00  0.00    +0.000 A 
ATOM     19  C   UNL     1       5.667   3.573  13.197  0.00  0.00    +0.000 A 
ATOM     20  C   UNL     1       6.800   4.360  13.103  0.00  0.00    +0.000 A 
ATOM     21  C   UNL     1       7.282   5.047  14.215  0.00  0.00    +0.000 A 
ATOM     22 CL   UNL     1       8.745   5.989  13.909  0.00  0.00    +0.000 Cl
ATOM     23  C   UNL     1       6.611   4.959  15.476  0.00  0.00    +0.000 A 
BRANCH  23  24
ATOM     24  C   UNL     1       7.157   5.734  16.653  0.00  0.00    +0.000 A 
ATOM     25  N   UNL     1       7.336   7.071  16.666  0.00  0.00    +0.000 NA
ATOM     26  N   UNL     1       7.812   7.374  17.853  0.00  0.00    +0.000 NA
ATOM     27  N   UNL     1       7.927   6.274  18.574  0.00  0.00    +0.000 NA
ATOM     28  N   UNL     1       7.528   5.240  17.849  0.00  0.00    +0.000 N 
ATOM     29  H   UNL     1       7.523   4.264  18.204  0.00  0.00    +0.000 HD
ENDBRANCH  23  24
ENDBRANCH  16  17
ENDBRANCH   5  16
TORSDOF 5
ENDMDL
MODEL 8
REMARK VINA RESULT:      -6.9      2.790      4.239
REMARK  Name = 
REMARK  5 active torsions:
REMARK  status: ('A' for Active; 'I' for Inactive)
REMARK    1  A    between atoms: C_2  and  OXT_3
REMARK    2  A    between atoms: C_2  and  CA_4
REMARK    3  A    between atoms: C_8  and  O_9
REMARK    4  A    between atoms: O_9  and  C_10
REMARK    5  A    between atoms: C_16  and  C_17
REMARK                            x       y       z     vdW  Elec       q    Type
REMARK                         _______ _______ _______ _____ _____    ______ ____
ROOT
ATOM      1  CA  UNL     1       2.710   3.850  20.091  0.00  0.00    +0.000 C 
ATOM      2  C   UNL     1       1.954   3.654  18.780  0.00  0.00    +0.000 C 
ATOM      3  C   UNL     1       2.479   4.656  17.743  0.00  0.00    +0.000 C 
ATOM      4  C   UNL     1       1.894   6.093  17.958  0.00  0.00    +0.000 C 
ATOM      5  C   UNL     1       2.813   7.354  17.954  0.00  0.00    +0.000 C 
ATOM      6  C   UNL     1       4.266   7.103  17.470  0.00  0.00    +0.000 C 
ATOM      7  C   UNL     1       4.503   5.757  16.744  0.00  0.00    +0.000 C 
ATOM      8  C   UNL     1       4.013   4.560  17.594  0.00  0.00    +0.000 C 
ATOM      9  C   UNL     1       4.769   4.422  18.953  0.00  0.00    +0.000 C 
ATOM     10  N   UNL     1       4.114   3.464  19.861  0.00  0.00    +0.000 NA
ATOM     11  H   UNL     1       4.633   3.471  20.771  0.00  0.00    +0.000 HD
ENDROOT
BRANCH   1  13
ATOM     12  O   UNL     1       2.807   2.550  22.064  0.00  0.00    +0.000 OA
ATOM     13  C   UNL     1       2.089   3.035  21.203  0.00  0.00    +0.000 C 
BRANCH  13  14
ATOM     14  OXT UNL     1       0.757   2.831  21.273  0.00  0.00    +0.000 OA
ATOM     15  HXT UNL     1       0.320   2.133  20.773  0.00  0.00    +0.000 HD
ENDBRANCH  13  14
ENDBRANCH   1  13
BRANCH   5  16
ATOM     16  O   UNL     1       2.815   8.059  19.170  0.00  0.00    +0.000 OA
BRANCH  16  17
ATOM     17  C   UNL     1       1.731   8.338  19.968  0.00  0.00    +0.000 A 
ATOM     18  C   UNL     1       1.197   7.334  20.810  0.00  0.00    +0.000 A 
ATOM     19  C   UNL     1       0.085   7.568  21.608  0.00  0.00    +0.000 A 
ATOM     20  C   UNL     1      -0.544   8.799  21.583  0.00  0.00    +0.000 A 
ATOM     21  C   UNL     1      -0.064   9.826  20.774  0.00  0.00    +0.000 A 
ATOM     22 CL   UNL     1      -1.003  11.321  20.863  0.00  0.00    +0.000 Cl
ATOM     23  C   UNL     1       1.094   9.632  19.957  0.00  0.00    +0.000 A 
BRANCH  23  24
ATOM     24  C   UNL     1       1.593  10.778  19.106  0.00  0.00    +0.000 A 
ATOM     25  N   UNL     1       1.634  12.063  19.513  0.00  0.00    +0.000 NA
ATOM     26  N   UNL     1       2.133  12.757  18.513  0.00  0.00    +0.000 NA
ATOM     27  N   UNL     1       2.406  11.944  17.508  0.00  0.00    +0.000 NA
ATOM     28  N   UNL     1       2.077  10.708  17.852  0.00  0.00    +0.000 N 
ATOM     29  H   UNL     1       2.203   9.891  17.225  0.00  0.00    +0.000 HD
ENDBRANCH  23  24
ENDBRANCH  16  17
ENDBRANCH   5  16
TORSDOF 5
ENDMDL
MODEL 9
REMARK VINA RESULT:      -6.9      4.629      8.766
REMARK  Name = 
REMARK  5 active torsions:
REMARK  status: ('A' for Active; 'I' for Inactive)
REMARK    1  A    between atoms: C_2  and  OXT_3
REMARK    2  A    between atoms: C_2  and  CA_4
REMARK    3  A    between atoms: C_8  and  O_9
REMARK    4  A    between atoms: O_9  and  C_10
REMARK    5  A    between atoms: C_16  and  C_17
REMARK                            x       y       z     vdW  Elec       q    Type
REMARK                         _______ _______ _______ _____ _____    ______ ____
ROOT
ATOM      1  CA  UNL     1      -1.746  13.568  22.186  0.00  0.00    +0.000 C 
ATOM      2  C   UNL     1      -0.439  14.148  22.721  0.00  0.00    +0.000 C 
ATOM      3  C   UNL     1       0.529  14.367  21.551  0.00  0.00    +0.000 C 
ATOM      4  C   UNL     1       1.215  13.036  21.092  0.00  0.00    +0.000 C 
ATOM      5  C   UNL     1       1.292  12.638  19.585  0.00  0.00    +0.000 C 
ATOM      6  C   UNL     1       0.884  13.757  18.592  0.00  0.00    +0.000 C 
ATOM      7  C   UNL     1       0.800  15.182  19.192  0.00  0.00    +0.000 C 
ATOM      8  C   UNL     1      -0.117  15.219  20.438  0.00  0.00    +0.000 C 
ATOM      9  C   UNL     1      -1.596  14.827  20.124  0.00  0.00    +0.000 C 
ATOM     10  N   UNL     1      -2.384  14.599  21.348  0.00  0.00    +0.000 NA
ATOM     11  H   UNL     1      -3.340  14.277  21.065  0.00  0.00    +0.000 HD
ENDROOT
BRANCH   1  13
ATOM     12  O   UNL     1      -2.861  13.907  24.244  0.00  0.00    +0.000 OA
ATOM     13  C   UNL     1      -2.651  13.138  23.318  0.00  0.00    +0.000 C 
BRANCH  13  14
ATOM     14  OXT UNL     1      -3.241  11.924  23.333  0.00  0.00    +0.000 OA
ATOM     15  HXT UNL     1      -2.908  11.201  23.876  0.00  0.00    +0.000 HD
ENDBRANCH  13  14
ENDBRANCH   1  13
BRANCH   5  16
ATOM     16  O   UNL     1       0.621  11.442  19.279  0.00  0.00    +0.000 OA
BRANCH  16  17
ATOM     17  C   UNL     1       1.181  10.196  19.113  0.00  0.00    +0.000 A 
ATOM     18  C   UNL     1       1.780   9.851  17.879  0.00  0.00    +0.000 A 
ATOM     19  C   UNL     1       2.328   8.593  17.662  0.00  0.00    +0.000 A 
ATOM     20  C   UNL     1       2.284   7.633  18.656  0.00  0.00    +0.000 A 
ATOM     21  C   UNL     1       1.707   7.916  19.892  0.00  0.00    +0.000 A 
ATOM     22 CL   UNL     1       1.730   6.564  21.030  0.00  0.00    +0.000 Cl
ATOM     23  C   UNL     1       1.154   9.207  20.162  0.00  0.00    +0.000 A 
BRANCH  23  24
ATOM     24  C   UNL     1       0.553   9.478  21.522  0.00  0.00    +0.000 A 
ATOM     25  N   UNL     1       1.232   9.390  22.684  0.00  0.00    +0.000 NA
ATOM     26  N   UNL     1       0.385   9.706  23.639  0.00  0.00    +0.000 NA
ATOM     27  N   UNL     1      -0.789   9.991  23.106  0.00  0.00    +0.000 NA
ATOM     28  N   UNL     1      -0.711   9.855  21.791  0.00  0.00    +0.000 N 
ATOM     29  H   UNL     1      -1.510  10.029  21.153  0.00  0.00    +0.000 HD
ENDBRANCH  23  24
ENDBRANCH  16  17
ENDBRANCH   5  16
TORSDOF 5
ENDMDL
