MODEL 1
REMARK VINA RESULT:      -7.8      0.000      0.000
REMARK  Name = 
REMARK  13 active torsions:
REMARK  status: ('A' for Active; 'I' for Inactive)
REMARK    1  A    between atoms: N_1  and  C_2
REMARK    2  A    between atoms: C_2  and  C_3
REMARK    3  A    between atoms: C_5  and  O_6
REMARK    4  A    between atoms: O_6  and  C_7
REMARK    5  A    between atoms: C_8  and  N_9
REMARK    6  A    between atoms: C_11  and  N_12
REMARK    7  A    between atoms: C_13  and  O_14
REMARK    8  A    between atoms: C_15  and  O_16
REMARK    9  A    between atoms: C_17  and  N_18
REMARK   10  A    between atoms: C_19  and  O_20
REMARK   11  A    between atoms: C_21  and  O_22
REMARK   12  A    between atoms: O_22  and  C_23
REMARK   13  A    between atoms: C_23  and  C_24
REMARK                            x       y       z     vdW  Elec       q    Type
REMARK                         _______ _______ _______ _____ _____    ______ ____
ROOT
ATOM      1  C   UNL     1       6.184   5.867  16.206  0.00  0.00    +0.000 C 
ATOM      2  O   UNL     1       5.555   4.587  16.391  0.00  0.00    +0.000 OA
ATOM      3  C   UNL     1       4.945   4.465  17.681  0.00  0.00    +0.000 C 
ATOM      4  C   UNL     1       6.066   4.571  18.762  0.00  0.00    +0.000 C 
ATOM      5  C   UNL     1       6.870   5.881  18.599  0.00  0.00    +0.000 C 
ATOM      6  C   UNL     1       7.399   6.032  17.144  0.00  0.00    +0.000 C 
ENDROOT
BRANCH   4   7
ATOM      7  N   UNL     1       5.645   4.398  20.175  0.00  0.00    +0.000 NA
ATOM      8  H   UNL     1       4.725   3.947  20.175  0.00  0.00    +0.000 HD
ATOM      9  H   UNL     1       5.437   5.327  20.549  0.00  0.00    +0.000 HD
ENDBRANCH   4   7
BRANCH   5  10
ATOM     10  O   UNL     1       7.929   5.877  19.575  0.00  0.00    +0.000 OA
ATOM     11  H   UNL     1       7.983   6.764  19.970  0.00  0.00    +0.000 HD
ENDBRANCH   5  10
BRANCH   1  12
ATOM     12  C   UNL     1       6.465   6.028  14.701  0.00  0.00    +0.000 C 
BRANCH  12  13
ATOM     13  N   UNL     1       7.736   5.454  14.254  0.00  0.00    +0.000 NA
ATOM     14  H   UNL     1       7.663   5.290  13.246  0.00  0.00    +0.000 HD
ATOM     15  H   UNL     1       7.868   4.539  14.677  0.00  0.00    +0.000 HD
ENDBRANCH  12  13
ENDBRANCH   1  12
BRANCH   3  16
ATOM     16  O   UNL     1       3.914   5.443  17.849  0.00  0.00    +0.000 OA
BRANCH  16  17
ATOM     17  C   UNL     1       2.665   4.944  18.420  0.00  0.00    +0.000 C 
ATOM     18  C   UNL     1       2.680   5.411  19.909  0.00  0.00    +0.000 C 
ATOM     19  C   UNL     1       1.661   4.716  20.818  0.00  0.00    +0.000 C 
ATOM     20  C   UNL     1       1.760   3.199  20.691  0.00  0.00    +0.000 C 
ATOM     21  C   UNL     1       1.452   2.808  19.229  0.00  0.00    +0.000 C 
ATOM     22  C   UNL     1       2.510   3.409  18.277  0.00  0.00    +0.000 C 
BRANCH  18  23
ATOM     23  N   UNL     1       2.470   6.870  20.040  0.00  0.00    +0.000 NA
ATOM     24  H   UNL     1       3.101   7.385  19.429  0.00  0.00    +0.000 HD
ATOM     25  H   UNL     1       2.713   7.141  20.998  0.00  0.00    +0.000 HD
ENDBRANCH  18  23
BRANCH  20  26
ATOM     26  N   UNL     1       0.871   2.541  21.653  0.00  0.00    +0.000 NA
ATOM     27  H   UNL     1       0.312   3.229  22.159  0.00  0.00    +0.000 HD
ATOM     28  H   UNL     1       1.418   2.046  22.357  0.00  0.00    +0.000 HD
ENDBRANCH  20  26
BRANCH  21  29
ATOM     29  O   UNL     1       1.417   1.387  19.061  0.00  0.00    +0.000 OA
ATOM     30  H   UNL     1       0.736   1.033  19.658  0.00  0.00    +0.000 HD
ENDBRANCH  21  29
BRANCH  22  31
ATOM     31  O   UNL     1       2.155   3.084  16.919  0.00  0.00    +0.000 OA
ATOM     32  H   UNL     1       1.251   3.403  16.748  0.00  0.00    +0.000 HD
ENDBRANCH  22  31
ENDBRANCH  16  17
ENDBRANCH   3  16
BRANCH   6  33
ATOM     33  O   UNL     1       7.992   7.321  16.888  0.00  0.00    +0.000 OA
BRANCH  33  34
ATOM     34  C   UNL     1       7.217   8.422  17.357  0.00  0.00    +0.000 C 
BRANCH  34  35
ATOM     35  C   UNL     1       8.067   9.495  17.984  0.00  0.00    +0.000 A 
ATOM     36  C   UNL     1       8.885   9.155  19.071  0.00  0.00    +0.000 A 
ATOM     37  C   UNL     1       9.763  10.089  19.632  0.00  0.00    +0.000 A 
ATOM     38  C   UNL     1       9.853  11.384  19.104  0.00  0.00    +0.000 A 
ATOM     39  C   UNL     1      10.760  12.316  19.633  0.00  0.00    +0.000 A 
ATOM     40  C   UNL     1      10.849  13.598  19.089  0.00  0.00    +0.000 A 
ATOM     41  C   UNL     1      10.036  13.960  18.024  0.00  0.00    +0.000 A 
ATOM     42  C   UNL     1       9.128  13.037  17.491  0.00  0.00    +0.000 A 
ATOM     43  C   UNL     1       9.029  11.743  18.013  0.00  0.00    +0.000 A 
ATOM     44  C   UNL     1       8.146  10.787  17.469  0.00  0.00    +0.000 A 
ENDBRANCH  34  35
ENDBRANCH  33  34
ENDBRANCH   6  33
TORSDOF 13
ENDMDL
MODEL 2
REMARK VINA RESULT:      -7.8      6.474     10.662
REMARK  Name = 
REMARK  13 active torsions:
REMARK  status: ('A' for Active; 'I' for Inactive)
REMARK    1  A    between atoms: N_1  and  C_2
REMARK    2  A    between atoms: C_2  and  C_3
REMARK    3  A    between atoms: C_5  and  O_6
REMARK    4  A    between atoms: O_6  and  C_7
REMARK    5  A    between atoms: C_8  and  N_9
REMARK    6  A    between atoms: C_11  and  N_12
REMARK    7  A    between atoms: C_13  and  O_14
REMARK    8  A    between atoms: C_15  and  O_16
REMARK    9  A    between atoms: C_17  and  N_18
REMARK   10  A    between atoms: C_19  and  O_20
REMARK   11  A    between atoms: C_21  and  O_22
REMARK   12  A    between atoms: O_22  and  C_23
REMARK   13  A    between atoms: C_23  and  C_24
REMARK                            x       y       z     vdW  Elec       q    Type
REMARK                         _______ _______ _______ _____ _____    ______ ____
ROOT
ATOM      1  C   UNL     1       0.572  10.417  19.493  0.00  0.00    +0.000 C 
ATOM      2  O   UNL     1      -0.509  11.356  19.361  0.00  0.00    +0.000 OA
ATOM      3  C   UNL     1      -0.454  12.390  20.350  0.00  0.00    +0.000 C 
ATOM      4  C   UNL     1      -0.607  11.729  21.756  0.00  0.00    +0.000 C 
ATOM      5  C   UNL     1       0.461  10.633  21.971  0.00  0.00    +0.000 C 
ATOM      6  C   UNL     1       0.451   9.607  20.802  0.00  0.00    +0.000 C 
ENDROOT
BRANCH   4   7
ATOM      7  N   UNL     1      -0.644  12.648  22.921  0.00  0.00    +0.000 NA
ATOM      8  H   UNL     1      -1.073  12.145  23.704  0.00  0.00    +0.000 HD
ATOM      9  H   UNL     1      -1.336  13.373  22.717  0.00  0.00    +0.000 HD
ENDBRANCH   4   7
BRANCH   5  10
ATOM     10  O   UNL     1       0.215  10.017  23.250  0.00  0.00    +0.000 OA
ATOM     11  H   UNL     1       0.153   9.056  23.119  0.00  0.00    +0.000 HD
ENDBRANCH   5  10
BRANCH   1  12
ATOM     12  C   UNL     1       0.631   9.596  18.193  0.00  0.00    +0.000 C 
BRANCH  12  13
ATOM     13  N   UNL     1       1.877   9.742  17.437  0.00  0.00    +0.000 NA
ATOM     14  H   UNL     1       1.701   9.410  16.485  0.00  0.00    +0.000 HD
ATOM     15  H   UNL     1       2.587   9.123  17.822  0.00  0.00    +0.000 HD
ENDBRANCH  12  13
ENDBRANCH   1  12
BRANCH   3  16
ATOM     16  O   UNL     1       0.751  13.152  20.220  0.00  0.00    +0.000 OA
BRANCH  16  17
ATOM     17  C   UNL     1       0.794  14.068  19.083  0.00  0.00    +0.000 C 
ATOM     18  C   UNL     1       2.267  14.017  18.571  0.00  0.00    +0.000 C 
ATOM     19  C   UNL     1       2.662  15.149  17.618  0.00  0.00    +0.000 C 
ATOM     20  C   UNL     1       2.305  16.510  18.207  0.00  0.00    +0.000 C 
ATOM     21  C   UNL     1       0.777  16.567  18.420  0.00  0.00    +0.000 C 
ATOM     22  C   UNL     1       0.337  15.502  19.449  0.00  0.00    +0.000 C 
BRANCH  18  23
ATOM     23  N   UNL     1       2.581  12.738  17.896  0.00  0.00    +0.000 NA
ATOM     24  H   UNL     1       3.315  12.864  17.202  0.00  0.00    +0.000 HD
ATOM     25  H   UNL     1       1.748  12.438  17.381  0.00  0.00    +0.000 HD
ENDBRANCH  18  23
BRANCH  20  26
ATOM     26  N   UNL     1       2.799  17.591  17.347  0.00  0.00    +0.000 NA
ATOM     27  H   UNL     1       3.694  17.340  16.928  0.00  0.00    +0.000 HD
ATOM     28  H   UNL     1       2.969  18.431  17.900  0.00  0.00    +0.000 HD
ENDBRANCH  20  26
BRANCH  21  29
ATOM     29  O   UNL     1       0.356  17.860  18.868  0.00  0.00    +0.000 OA
ATOM     30  H   UNL     1       1.015  18.184  19.505  0.00  0.00    +0.000 HD
ENDBRANCH  21  29
BRANCH  22  31
ATOM     31  O   UNL     1      -1.098  15.536  19.572  0.00  0.00    +0.000 OA
ATOM     32  H   UNL     1      -1.360  16.400  19.935  0.00  0.00    +0.000 HD
ENDBRANCH  22  31
ENDBRANCH  16  17
ENDBRANCH   3  16
BRANCH   6  33
ATOM     33  O   UNL     1       1.548   8.675  20.856  0.00  0.00    +0.000 OA
BRANCH  33  34
ATOM     34  C   UNL     1       1.174   7.358  21.255  0.00  0.00    +0.000 C 
BRANCH  34  35
ATOM     35  C   UNL     1       1.652   6.309  20.286  0.00  0.00    +0.000 A 
ATOM     36  C   UNL     1       2.514   6.695  19.249  0.00  0.00    +0.000 A 
ATOM     37  C   UNL     1       3.062   5.746  18.377  0.00  0.00    +0.000 A 
ATOM     38  C   UNL     1       2.769   4.385  18.536  0.00  0.00    +0.000 A 
ATOM     39  C   UNL     1       3.346   3.422  17.693  0.00  0.00    +0.000 A 
ATOM     40  C   UNL     1       3.058   2.068  17.871  0.00  0.00    +0.000 A 
ATOM     41  C   UNL     1       2.194   1.667  18.881  0.00  0.00    +0.000 A 
ATOM     42  C   UNL     1       1.614   2.621  19.725  0.00  0.00    +0.000 A 
ATOM     43  C   UNL     1       1.897   3.983  19.573  0.00  0.00    +0.000 A 
ATOM     44  C   UNL     1       1.351   4.957  20.434  0.00  0.00    +0.000 A 
ENDBRANCH  34  35
ENDBRANCH  33  34
ENDBRANCH   6  33
TORSDOF 13
ENDMDL
MODEL 3
REMARK VINA RESULT:      -7.8      6.419     10.232
REMARK  Name = 
REMARK  13 active torsions:
REMARK  status: ('A' for Active; 'I' for Inactive)
REMARK    1  A    between atoms: N_1  and  C_2
REMARK    2  A    between atoms: C_2  and  C_3
REMARK    3  A    between atoms: C_5  and  O_6
REMARK    4  A    between atoms: O_6  and  C_7
REMARK    5  A    between atoms: C_8  and  N_9
REMARK    6  A    between atoms: C_11  and  N_12
REMARK    7  A    between atoms: C_13  and  O_14
REMARK    8  A    between atoms: C_15  and  O_16
REMARK    9  A    between atoms: C_17  and  N_18
REMARK   10  A    between atoms: C_19  and  O_20
REMARK   11  A    between atoms: C_21  and  O_22
REMARK   12  A    between atoms: O_22  and  C_23
REMARK   13  A    between atoms: C_23  and  C_24
REMARK                            x       y       z     vdW  Elec       q    Type
REMARK                         _______ _______ _______ _____ _____    ______ ____
ROOT
ATOM      1  C   UNL     1       0.575  10.383  19.458  0.00  0.00    +0.000 C 
ATOM      2  O   UNL     1      -0.487  11.345  19.338  0.00  0.00    +0.000 OA
ATOM      3  C   UNL     1      -0.403  12.372  20.331  0.00  0.00    +0.000 C 
ATOM      4  C   UNL     1      -0.561  11.707  21.735  0.00  0.00    +0.000 C 
ATOM      5  C   UNL     1       0.486  10.587  21.937  0.00  0.00    +0.000 C 
ATOM      6  C   UNL     1       0.446   9.568  20.762  0.00  0.00    +0.000 C 
ENDROOT
BRANCH   4   7
ATOM      7  N   UNL     1      -0.571  12.620  22.906  0.00  0.00    +0.000 NA
ATOM      8  H   UNL     1       0.277  12.440  23.451  0.00  0.00    +0.000 HD
ATOM      9  H   UNL     1      -1.312  12.302  23.535  0.00  0.00    +0.000 HD
ENDBRANCH   4   7
BRANCH   5  10
ATOM     10  O   UNL     1       0.236   9.970  23.214  0.00  0.00    +0.000 OA
ATOM     11  H   UNL     1      -0.657  10.220  23.504  0.00  0.00    +0.000 HD
ENDBRANCH   5  10
BRANCH   1  12
ATOM     12  C   UNL     1       0.608   9.568  18.152  0.00  0.00    +0.000 C 
BRANCH  12  13
ATOM     13  N   UNL     1       1.901   9.575  17.463  0.00  0.00    +0.000 NA
ATOM     14  H   UNL     1       1.813   8.975  16.638  0.00  0.00    +0.000 HD
ATOM     15  H   UNL     1       2.607   9.141  18.052  0.00  0.00    +0.000 HD
ENDBRANCH  12  13
ENDBRANCH   1  12
BRANCH   3  16
ATOM     16  O   UNL     1       0.816  13.109  20.198  0.00  0.00    +0.000 OA
BRANCH  16  17
ATOM     17  C   UNL     1       0.867  14.036  19.069  0.00  0.00    +0.000 C 
ATOM     18  C   UNL     1       2.326  13.939  18.525  0.00  0.00    +0.000 C 
ATOM     19  C   UNL     1       2.741  15.068  17.576  0.00  0.00    +0.000 C 
ATOM     20  C   UNL     1       2.445  16.433  18.187  0.00  0.00    +0.000 C 
ATOM     21  C   UNL     1       0.925  16.542  18.434  0.00  0.00    +0.000 C 
ATOM     22  C   UNL     1       0.469  15.481  19.461  0.00  0.00    +0.000 C 
BRANCH  18  23
ATOM     23  N   UNL     1       2.581  12.657  17.830  0.00  0.00    +0.000 NA
ATOM     24  H   UNL     1       3.023  11.987  18.455  0.00  0.00    +0.000 HD
ATOM     25  H   UNL     1       3.252  12.834  17.076  0.00  0.00    +0.000 HD
ENDBRANCH  18  23
BRANCH  20  26
ATOM     26  N   UNL     1       2.958  17.506  17.328  0.00  0.00    +0.000 NA
ATOM     27  H   UNL     1       3.752  17.973  17.768  0.00  0.00    +0.000 HD
ATOM     28  H   UNL     1       2.245  18.222  17.195  0.00  0.00    +0.000 HD
ENDBRANCH  20  26
BRANCH  21  29
ATOM     29  O   UNL     1       0.559  17.843  18.904  0.00  0.00    +0.000 OA
ATOM     30  H   UNL     1       0.993  17.983  19.763  0.00  0.00    +0.000 HD
ENDBRANCH  21  29
BRANCH  22  31
ATOM     31  O   UNL     1      -0.961  15.564  19.615  0.00  0.00    +0.000 OA
ATOM     32  H   UNL     1      -1.183  15.422  20.552  0.00  0.00    +0.000 HD
ENDBRANCH  22  31
ENDBRANCH  16  17
ENDBRANCH   3  16
BRANCH   6  33
ATOM     33  O   UNL     1       1.525   8.613  20.804  0.00  0.00    +0.000 OA
BRANCH  33  34
ATOM     34  C   UNL     1       1.114   7.285  21.118  0.00  0.00    +0.000 C 
BRANCH  34  35
ATOM     35  C   UNL     1       1.837   6.252  20.295  0.00  0.00    +0.000 A 
ATOM     36  C   UNL     1       1.481   4.903  20.445  0.00  0.00    +0.000 A 
ATOM     37  C   UNL     1       2.055   3.913  19.639  0.00  0.00    +0.000 A 
ATOM     38  C   UNL     1       2.988   4.255  18.652  0.00  0.00    +0.000 A 
ATOM     39  C   UNL     1       3.539   3.275  17.811  0.00  0.00    +0.000 A 
ATOM     40  C   UNL     1       4.456   3.631  16.822  0.00  0.00    +0.000 A 
ATOM     41  C   UNL     1       4.834   4.958  16.668  0.00  0.00    +0.000 A 
ATOM     42  C   UNL     1       4.291   5.941  17.503  0.00  0.00    +0.000 A 
ATOM     43  C   UNL     1       3.361   5.610  18.494  0.00  0.00    +0.000 A 
ATOM     44  C   UNL     1       2.776   6.589  19.322  0.00  0.00    +0.000 A 
ENDBRANCH  34  35
ENDBRANCH  33  34
ENDBRANCH   6  33
TORSDOF 13
ENDMDL
MODEL 4
REMARK VINA RESULT:      -7.7      7.760     11.019
REMARK  Name = 
REMARK  13 active torsions:
REMARK  status: ('A' for Active; 'I' for Inactive)
REMARK    1  A    between atoms: N_1  and  C_2
REMARK    2  A    between atoms: C_2  and  C_3
REMARK    3  A    between atoms: C_5  and  O_6
REMARK    4  A    between atoms: O_6  and  C_7
REMARK    5  A    between atoms: C_8  and  N_9
REMARK    6  A    between atoms: C_11  and  N_12
REMARK    7  A    between atoms: C_13  and  O_14
REMARK    8  A    between atoms: C_15  and  O_16
REMARK    9  A    between atoms: C_17  and  N_18
REMARK   10  A    between atoms: C_19  and  O_20
REMARK   11  A    between atoms: C_21  and  O_22
REMARK   12  A    between atoms: O_22  and  C_23
REMARK   13  A    between atoms: C_23  and  C_24
REMARK                            x       y       z     vdW  Elec       q    Type
REMARK                         _______ _______ _______ _____ _____    ______ ____
ROOT
ATOM      1  C   UNL     1      -0.679  11.235  21.005  0.00  0.00    +0.000 C 
ATOM      2  O   UNL     1      -0.965  12.578  20.580  0.00  0.00    +0.000 OA
ATOM      3  C   UNL     1      -1.889  12.617  19.488  0.00  0.00    +0.000 C 
ATOM      4  C   UNL     1      -1.234  11.894  18.269  0.00  0.00    +0.000 C 
ATOM      5  C   UNL     1      -0.805  10.457  18.643  0.00  0.00    +0.000 C 
ATOM      6  C   UNL     1       0.090  10.456  19.916  0.00  0.00    +0.000 C 
ENDROOT
BRANCH   4   7
ATOM      7  N   UNL     1      -2.013  11.886  17.004  0.00  0.00    +0.000 NA
ATOM      8  H   UNL     1      -2.993  11.708  17.241  0.00  0.00    +0.000 HD
ATOM      9  H   UNL     1      -1.751  11.043  16.489  0.00  0.00    +0.000 HD
ENDBRANCH   4   7
BRANCH   5  10
ATOM     10  O   UNL     1      -0.144   9.879  17.502  0.00  0.00    +0.000 OA
ATOM     11  H   UNL     1      -0.018   8.930  17.671  0.00  0.00    +0.000 HD
ENDBRANCH   5  10
BRANCH   1  12
ATOM     12  C   UNL     1       0.003  11.322  22.382  0.00  0.00    +0.000 C 
BRANCH  12  13
ATOM     13  N   UNL     1      -0.337  10.232  23.300  0.00  0.00    +0.000 NA
ATOM     14  H   UNL     1       0.209  10.368  24.155  0.00  0.00    +0.000 HD
ATOM     15  H   UNL     1      -0.030   9.345  22.909  0.00  0.00    +0.000 HD
ENDBRANCH  12  13
ENDBRANCH   1  12
BRANCH   3  16
ATOM     16  O   UNL     1      -3.146  12.045  19.866  0.00  0.00    +0.000 OA
BRANCH  16  17
ATOM     17  C   UNL     1      -4.150  12.996  20.337  0.00  0.00    +0.000 C 
ATOM     18  C   UNL     1      -4.228  12.777  21.880  0.00  0.00    +0.000 C 
ATOM     19  C   UNL     1      -5.454  13.393  22.562  0.00  0.00    +0.000 C 
ATOM     20  C   UNL     1      -6.740  12.975  21.857  0.00  0.00    +0.000 C 
ATOM     21  C   UNL     1      -6.688  13.484  20.400  0.00  0.00    +0.000 C 
ATOM     22  C   UNL     1      -5.520  12.818  19.638  0.00  0.00    +0.000 C 
BRANCH  18  23
ATOM     23  N   UNL     1      -3.027  13.288  22.580  0.00  0.00    +0.000 NA
ATOM     24  H   UNL     1      -2.823  12.728  23.405  0.00  0.00    +0.000 HD
ATOM     25  H   UNL     1      -3.235  14.232  22.918  0.00  0.00    +0.000 HD
ENDBRANCH  18  23
BRANCH  20  26
ATOM     26  N   UNL     1      -7.913  13.466  22.587  0.00  0.00    +0.000 NA
ATOM     27  H   UNL     1      -8.700  13.609  21.955  0.00  0.00    +0.000 HD
ATOM     28  H   UNL     1      -7.714  14.375  23.004  0.00  0.00    +0.000 HD
ENDBRANCH  20  26
BRANCH  21  29
ATOM     29  O   UNL     1      -7.914  13.224  19.708  0.00  0.00    +0.000 OA
ATOM     30  H   UNL     1      -8.573  12.941  20.365  0.00  0.00    +0.000 HD
ENDBRANCH  21  29
BRANCH  22  31
ATOM     31  O   UNL     1      -5.458  13.366  18.307  0.00  0.00    +0.000 OA
ATOM     32  H   UNL     1      -5.575  14.330  18.360  0.00  0.00    +0.000 HD
ENDBRANCH  22  31
ENDBRANCH  16  17
ENDBRANCH   3  16
BRANCH   6  33
ATOM     33  O   UNL     1       0.361   9.133  20.416  0.00  0.00    +0.000 OA
BRANCH  33  34
ATOM     34  C   UNL     1       1.723   8.731  20.291  0.00  0.00    +0.000 C 
BRANCH  34  35
ATOM     35  C   UNL     1       1.860   7.313  19.801  0.00  0.00    +0.000 A 
ATOM     36  C   UNL     1       2.443   7.090  18.546  0.00  0.00    +0.000 A 
ATOM     37  C   UNL     1       2.678   5.790  18.082  0.00  0.00    +0.000 A 
ATOM     38  C   UNL     1       2.348   4.684  18.875  0.00  0.00    +0.000 A 
ATOM     39  C   UNL     1       2.618   3.377  18.438  0.00  0.00    +0.000 A 
ATOM     40  C   UNL     1       2.298   2.284  19.244  0.00  0.00    +0.000 A 
ATOM     41  C   UNL     1       1.704   2.484  20.483  0.00  0.00    +0.000 A 
ATOM     42  C   UNL     1       1.431   3.783  20.927  0.00  0.00    +0.000 A 
ATOM     43  C   UNL     1       1.753   4.894  20.141  0.00  0.00    +0.000 A 
ATOM     44  C   UNL     1       1.518   6.212  20.583  0.00  0.00    +0.000 A 
ENDBRANCH  34  35
ENDBRANCH  33  34
ENDBRANCH   6  33
TORSDOF 13
ENDMDL
MODEL 5
REMARK VINA RESULT:      -7.6      6.437     10.053
REMARK  Name = 
REMARK  13 active torsions:
REMARK  status: ('A' for Active; 'I' for Inactive)
REMARK    1  A    between atoms: N_1  and  C_2
REMARK    2  A    between atoms: C_2  and  C_3
REMARK    3  A    between atoms: C_5  and  O_6
REMARK    4  A    between atoms: O_6  and  C_7
REMARK    5  A    between atoms: C_8  and  N_9
REMARK    6  A    between atoms: C_11  and  N_12
REMARK    7  A    between atoms: C_13  and  O_14
REMARK    8  A    between atoms: C_15  and  O_16
REMARK    9  A    between atoms: C_17  and  N_18
REMARK   10  A    between atoms: C_19  and  O_20
REMARK   11  A    between atoms: C_21  and  O_22
REMARK   12  A    between atoms: O_22  and  C_23
REMARK   13  A    between atoms: C_23  and  C_24
REMARK                            x       y       z     vdW  Elec       q    Type
REMARK                         _______ _______ _______ _____ _____    ______ ____
ROOT
ATOM      1  C   UNL     1       0.765  10.059  19.722  0.00  0.00    +0.000 C 
ATOM      2  O   UNL     1      -0.339  10.964  19.546  0.00  0.00    +0.000 OA
ATOM      3  C   UNL     1      -0.491  11.857  20.654  0.00  0.00    +0.000 C 
ATOM      4  C   UNL     1      -0.810  11.007  21.925  0.00  0.00    +0.000 C 
ATOM      5  C   UNL     1       0.279   9.935  22.160  0.00  0.00    +0.000 C 
ATOM      6  C   UNL     1       0.501   9.076  20.882  0.00  0.00    +0.000 C 
ENDROOT
BRANCH   4   7
ATOM      7  N   UNL     1      -1.072  11.758  23.178  0.00  0.00    +0.000 NA
ATOM      8  H   UNL     1      -1.877  11.324  23.640  0.00  0.00    +0.000 HD
ATOM      9  H   UNL     1      -1.435  12.676  22.914  0.00  0.00    +0.000 HD
ENDBRANCH   4   7
BRANCH   5  10
ATOM     10  O   UNL     1      -0.116   9.143  23.297  0.00  0.00    +0.000 OA
ATOM     11  H   UNL     1      -0.845   8.560  23.025  0.00  0.00    +0.000 HD
ENDBRANCH   5  10
BRANCH   1  12
ATOM     12  C   UNL     1       1.063   9.424  18.352  0.00  0.00    +0.000 C 
BRANCH  12  13
ATOM     13  N   UNL     1       1.943  10.218  17.491  0.00  0.00    +0.000 NA
ATOM     14  H   UNL     1       1.432  10.416  16.627  0.00  0.00    +0.000 HD
ATOM     15  H   UNL     1       2.750   9.663  17.218  0.00  0.00    +0.000 HD
ENDBRANCH  12  13
ENDBRANCH   1  12
BRANCH   3  16
ATOM     16  O   UNL     1       0.672  12.676  20.809  0.00  0.00    +0.000 OA
BRANCH  16  17
ATOM     17  C   UNL     1       0.609  13.983  20.160  0.00  0.00    +0.000 C 
ATOM     18  C   UNL     1       1.790  13.992  19.141  0.00  0.00    +0.000 C 
ATOM     19  C   UNL     1       2.163  15.372  18.590  0.00  0.00    +0.000 C 
ATOM     20  C   UNL     1       2.372  16.374  19.721  0.00  0.00    +0.000 C 
ATOM     21  C   UNL     1       1.052  16.506  20.511  0.00  0.00    +0.000 C 
ATOM     22  C   UNL     1       0.679  15.158  21.167  0.00  0.00    +0.000 C 
BRANCH  18  23
ATOM     23  N   UNL     1       1.537  13.105  17.983  0.00  0.00    +0.000 NA
ATOM     24  H   UNL     1       0.656  12.607  18.092  0.00  0.00    +0.000 HD
ATOM     25  H   UNL     1       2.271  12.390  17.965  0.00  0.00    +0.000 HD
ENDBRANCH  18  23
BRANCH  20  26
ATOM     26  N   UNL     1       2.849  17.656  19.194  0.00  0.00    +0.000 NA
ATOM     27  H   UNL     1       3.584  18.041  19.788  0.00  0.00    +0.000 HD
ATOM     28  H   UNL     1       2.094  18.341  19.196  0.00  0.00    +0.000 HD
ENDBRANCH  20  26
BRANCH  21  29
ATOM     29  O   UNL     1       1.142  17.516  21.521  0.00  0.00    +0.000 OA
ATOM     30  H   UNL     1       0.588  17.237  22.271  0.00  0.00    +0.000 HD
ENDBRANCH  21  29
BRANCH  22  31
ATOM     31  O   UNL     1      -0.590  15.299  21.835  0.00  0.00    +0.000 OA
ATOM     32  H   UNL     1      -1.300  15.235  21.172  0.00  0.00    +0.000 HD
ENDBRANCH  22  31
ENDBRANCH  16  17
ENDBRANCH   3  16
BRANCH   6  33
ATOM     33  O   UNL     1       1.632   8.189  20.985  0.00  0.00    +0.000 OA
BRANCH  33  34
ATOM     34  C   UNL     1       1.289   6.805  20.983  0.00  0.00    +0.000 C 
BRANCH  34  35
ATOM     35  C   UNL     1       2.082   6.020  19.971  0.00  0.00    +0.000 A 
ATOM     36  C   UNL     1       1.807   4.654  19.816  0.00  0.00    +0.000 A 
ATOM     37  C   UNL     1       2.448   3.898  18.827  0.00  0.00    +0.000 A 
ATOM     38  C   UNL     1       3.369   4.500  17.961  0.00  0.00    +0.000 A 
ATOM     39  C   UNL     1       3.987   3.761  16.939  0.00  0.00    +0.000 A 
ATOM     40  C   UNL     1       4.892   4.376  16.073  0.00  0.00    +0.000 A 
ATOM     41  C   UNL     1       5.190   5.723  16.222  0.00  0.00    +0.000 A 
ATOM     42  C   UNL     1       4.580   6.468  17.238  0.00  0.00    +0.000 A 
ATOM     43  C   UNL     1       3.661   5.875  18.110  0.00  0.00    +0.000 A 
ATOM     44  C   UNL     1       3.009   6.615  19.118  0.00  0.00    +0.000 A 
ENDBRANCH  34  35
ENDBRANCH  33  34
ENDBRANCH   6  33
TORSDOF 13
ENDMDL
MODEL 6
REMARK VINA RESULT:      -7.6      7.859     11.256
REMARK  Name = 
REMARK  13 active torsions:
REMARK  status: ('A' for Active; 'I' for Inactive)
REMARK    1  A    between atoms: N_1  and  C_2
REMARK    2  A    between atoms: C_2  and  C_3
REMARK    3  A    between atoms: C_5  and  O_6
REMARK    4  A    between atoms: O_6  and  C_7
REMARK    5  A    between atoms: C_8  and  N_9
REMARK    6  A    between atoms: C_11  and  N_12
REMARK    7  A    between atoms: C_13  and  O_14
REMARK    8  A    between atoms: C_15  and  O_16
REMARK    9  A    between atoms: C_17  and  N_18
REMARK   10  A    between atoms: C_19  and  O_20
REMARK   11  A    between atoms: C_21  and  O_22
REMARK   12  A    between atoms: O_22  and  C_23
REMARK   13  A    between atoms: C_23  and  C_24
REMARK                            x       y       z     vdW  Elec       q    Type
REMARK                         _______ _______ _______ _____ _____    ______ ____
ROOT
ATOM      1  C   UNL     1      -0.706  10.640  21.868  0.00  0.00    +0.000 C 
ATOM      2  O   UNL     1      -0.861  12.013  22.268  0.00  0.00    +0.000 OA
ATOM      3  C   UNL     1      -1.463  12.812  21.244  0.00  0.00    +0.000 C 
ATOM      4  C   UNL     1      -0.513  12.812  20.004  0.00  0.00    +0.000 C 
ATOM      5  C   UNL     1      -0.208  11.370  19.541  0.00  0.00    +0.000 C 
ATOM      6  C   UNL     1       0.318  10.504  20.722  0.00  0.00    +0.000 C 
ENDROOT
BRANCH   4   7
ATOM      7  N   UNL     1      -0.929  13.647  18.849  0.00  0.00    +0.000 NA
ATOM      8  H   UNL     1      -1.384  13.034  18.167  0.00  0.00    +0.000 HD
ATOM      9  H   UNL     1      -0.080  13.935  18.359  0.00  0.00    +0.000 HD
ENDBRANCH   4   7
BRANCH   5  10
ATOM     10  O   UNL     1       0.728  11.443  18.449  0.00  0.00    +0.000 OA
ATOM     11  H   UNL     1       0.258  11.216  17.628  0.00  0.00    +0.000 HD
ENDBRANCH   5  10
BRANCH   1  12
ATOM     12  C   UNL     1      -0.413   9.821  23.138  0.00  0.00    +0.000 C 
BRANCH  12  13
ATOM     13  N   UNL     1       1.011   9.642  23.431  0.00  0.00    +0.000 NA
ATOM     14  H   UNL     1       1.537  10.224  22.774  0.00  0.00    +0.000 HD
ATOM     15  H   UNL     1       1.284   8.682  23.236  0.00  0.00    +0.000 HD
ENDBRANCH  12  13
ENDBRANCH   1  12
BRANCH   3  16
ATOM     16  O   UNL     1      -2.778  12.337  20.938  0.00  0.00    +0.000 OA
BRANCH  16  17
ATOM     17  C   UNL     1      -3.854  12.913  21.741  0.00  0.00    +0.000 C 
ATOM     18  C   UNL     1      -4.215  14.258  21.038  0.00  0.00    +0.000 C 
ATOM     19  C   UNL     1      -5.060  15.223  21.876  0.00  0.00    +0.000 C 
ATOM     20  C   UNL     1      -4.438  15.442  23.251  0.00  0.00    +0.000 C 
ATOM     21  C   UNL     1      -4.378  14.085  23.985  0.00  0.00    +0.000 C 
ATOM     22  C   UNL     1      -3.459  13.102  23.227  0.00  0.00    +0.000 C 
BRANCH  18  23
ATOM     23  N   UNL     1      -4.923  14.047  19.755  0.00  0.00    +0.000 NA
ATOM     24  H   UNL     1      -4.819  13.086  19.437  0.00  0.00    +0.000 HD
ATOM     25  H   UNL     1      -4.474  14.634  19.045  0.00  0.00    +0.000 HD
ENDBRANCH  18  23
BRANCH  20  26
ATOM     26  N   UNL     1      -5.182  16.460  23.999  0.00  0.00    +0.000 NA
ATOM     27  H   UNL     1      -5.787  16.997  23.377  0.00  0.00    +0.000 HD
ATOM     28  H   UNL     1      -4.538  17.130  24.419  0.00  0.00    +0.000 HD
ENDBRANCH  20  26
BRANCH  21  29
ATOM     29  O   UNL     1      -3.907  14.233  25.329  0.00  0.00    +0.000 OA
ATOM     30  H   UNL     1      -3.095  14.768  25.302  0.00  0.00    +0.000 HD
ENDBRANCH  21  29
BRANCH  22  31
ATOM     31  O   UNL     1      -3.482  11.828  23.899  0.00  0.00    +0.000 OA
ATOM     32  H   UNL     1      -2.593  11.645  24.252  0.00  0.00    +0.000 HD
ENDBRANCH  22  31
ENDBRANCH  16  17
ENDBRANCH   3  16
BRANCH   6  33
ATOM     33  O   UNL     1       0.439   9.107  20.390  0.00  0.00    +0.000 OA
BRANCH  33  34
ATOM     34  C   UNL     1       1.784   8.638  20.325  0.00  0.00    +0.000 C 
BRANCH  34  35
ATOM     35  C   UNL     1       1.875   7.229  19.801  0.00  0.00    +0.000 A 
ATOM     36  C   UNL     1       2.421   7.020  18.527  0.00  0.00    +0.000 A 
ATOM     37  C   UNL     1       2.614   5.726  18.030  0.00  0.00    +0.000 A 
ATOM     38  C   UNL     1       2.279   4.610  18.807  0.00  0.00    +0.000 A 
ATOM     39  C   UNL     1       2.507   3.308  18.335  0.00  0.00    +0.000 A 
ATOM     40  C   UNL     1       2.182   2.205  19.126  0.00  0.00    +0.000 A 
ATOM     41  C   UNL     1       1.624   2.391  20.384  0.00  0.00    +0.000 A 
ATOM     42  C   UNL     1       1.393   3.686  20.862  0.00  0.00    +0.000 A 
ATOM     43  C   UNL     1       1.721   4.807  20.092  0.00  0.00    +0.000 A 
ATOM     44  C   UNL     1       1.528   6.119  20.568  0.00  0.00    +0.000 A 
ENDBRANCH  34  35
ENDBRANCH  33  34
ENDBRANCH   6  33
TORSDOF 13
ENDMDL
MODEL 7
REMARK VINA RESULT:      -7.5      7.860     10.800
REMARK  Name = 
REMARK  13 active torsions:
REMARK  status: ('A' for Active; 'I' for Inactive)
REMARK    1  A    between atoms: N_1  and  C_2
REMARK    2  A    between atoms: C_2  and  C_3
REMARK    3  A    between atoms: C_5  and  O_6
REMARK    4  A    between atoms: O_6  and  C_7
REMARK    5  A    between atoms: C_8  and  N_9
REMARK    6  A    between atoms: C_11  and  N_12
REMARK    7  A    between atoms: C_13  and  O_14
REMARK    8  A    between atoms: C_15  and  O_16
REMARK    9  A    between atoms: C_17  and  N_18
REMARK   10  A    between atoms: C_19  and  O_20
REMARK   11  A    between atoms: C_21  and  O_22
REMARK   12  A    between atoms: O_22  and  C_23
REMARK   13  A    between atoms: C_23  and  C_24
REMARK                            x       y       z     vdW  Elec       q    Type
REMARK                         _______ _______ _______ _____ _____    ______ ____
ROOT
ATOM      1  C   UNL     1      -0.496  10.620  20.927  0.00  0.00    +0.000 C 
ATOM      2  O   UNL     1      -0.662  11.747  21.805  0.00  0.00    +0.000 OA
ATOM      3  C   UNL     1      -1.338  12.837  21.167  0.00  0.00    +0.000 C 
ATOM      4  C   UNL     1      -0.457  13.326  19.975  0.00  0.00    +0.000 C 
ATOM      5  C   UNL     1      -0.142  12.164  19.006  0.00  0.00    +0.000 C 
ATOM      6  C   UNL     1       0.468  10.952  19.768  0.00  0.00    +0.000 C 
ENDROOT
BRANCH   4   7
ATOM      7  N   UNL     1      -0.954  14.505  19.221  0.00  0.00    +0.000 NA
ATOM      8  H   UNL     1      -1.037  15.285  19.879  0.00  0.00    +0.000 HD
ATOM      9  H   UNL     1      -1.928  14.319  18.972  0.00  0.00    +0.000 HD
ENDBRANCH   4   7
BRANCH   5  10
ATOM     10  O   UNL     1       0.732  12.667  17.977  0.00  0.00    +0.000 OA
ATOM     11  H   UNL     1       0.345  12.446  17.113  0.00  0.00    +0.000 HD
ENDBRANCH   5  10
BRANCH   1  12
ATOM     12  C   UNL     1      -0.115   9.410  21.798  0.00  0.00    +0.000 C 
BRANCH  12  13
ATOM     13  N   UNL     1      -0.733   9.397  23.126  0.00  0.00    +0.000 NA
ATOM     14  H   UNL     1      -1.747   9.442  22.994  0.00  0.00    +0.000 HD
ATOM     15  H   UNL     1      -0.478  10.241  23.632  0.00  0.00    +0.000 HD
ENDBRANCH  12  13
ENDBRANCH   1  12
BRANCH   3  16
ATOM     16  O   UNL     1      -2.656  12.450  20.765  0.00  0.00    +0.000 OA
BRANCH  16  17
ATOM     17  C   UNL     1      -3.726  12.820  21.688  0.00  0.00    +0.000 C 
ATOM     18  C   UNL     1      -4.268  14.185  21.162  0.00  0.00    +0.000 C 
ATOM     19  C   UNL     1      -5.146  14.959  22.150  0.00  0.00    +0.000 C 
ATOM     20  C   UNL     1      -4.455  15.098  23.503  0.00  0.00    +0.000 C 
ATOM     21  C   UNL     1      -4.209  13.686  24.076  0.00  0.00    +0.000 C 
ATOM     22  C   UNL     1      -3.250  12.893  23.160  0.00  0.00    +0.000 C 
BRANCH  18  23
ATOM     23  N   UNL     1      -5.038  14.035  19.906  0.00  0.00    +0.000 NA
ATOM     24  H   UNL     1      -5.748  14.760  19.828  0.00  0.00    +0.000 HD
ATOM     25  H   UNL     1      -5.541  13.143  19.947  0.00  0.00    +0.000 HD
ENDBRANCH  18  23
BRANCH  20  26
ATOM     26  N   UNL     1      -5.245  15.946  24.401  0.00  0.00    +0.000 NA
ATOM     27  H   UNL     1      -5.401  15.479  25.295  0.00  0.00    +0.000 HD
ATOM     28  H   UNL     1      -6.169  16.116  24.004  0.00  0.00    +0.000 HD
ENDBRANCH  20  26
BRANCH  21  29
ATOM     29  O   UNL     1      -3.663  13.742  25.398  0.00  0.00    +0.000 OA
ATOM     30  H   UNL     1      -3.217  12.895  25.572  0.00  0.00    +0.000 HD
ENDBRANCH  21  29
BRANCH  22  31
ATOM     31  O   UNL     1      -3.098  11.560  23.686  0.00  0.00    +0.000 OA
ATOM     32  H   UNL     1      -2.148  11.361  23.763  0.00  0.00    +0.000 HD
ENDBRANCH  22  31
ENDBRANCH  16  17
ENDBRANCH   3  16
BRANCH   6  33
ATOM     33  O   UNL     1       0.604   9.777  18.946  0.00  0.00    +0.000 OA
BRANCH  33  34
ATOM     34  C   UNL     1       1.933   9.539  18.486  0.00  0.00    +0.000 C 
BRANCH  34  35
ATOM     35  C   UNL     1       2.322   8.087  18.585  0.00  0.00    +0.000 A 
ATOM     36  C   UNL     1       3.235   7.572  17.653  0.00  0.00    +0.000 A 
ATOM     37  C   UNL     1       3.702   6.256  17.755  0.00  0.00    +0.000 A 
ATOM     38  C   UNL     1       3.275   5.431  18.803  0.00  0.00    +0.000 A 
ATOM     39  C   UNL     1       3.768   4.124  18.938  0.00  0.00    +0.000 A 
ATOM     40  C   UNL     1       3.346   3.317  19.995  0.00  0.00    +0.000 A 
ATOM     41  C   UNL     1       2.429   3.803  20.918  0.00  0.00    +0.000 A 
ATOM     42  C   UNL     1       1.931   5.105  20.790  0.00  0.00    +0.000 A 
ATOM     43  C   UNL     1       2.349   5.935  19.745  0.00  0.00    +0.000 A 
ATOM     44  C   UNL     1       1.887   7.261  19.619  0.00  0.00    +0.000 A 
ENDBRANCH  34  35
ENDBRANCH  33  34
ENDBRANCH   6  33
TORSDOF 13
ENDMDL
MODEL 8
REMARK VINA RESULT:      -7.5      7.282     10.643
REMARK  Name = 
REMARK  13 active torsions:
REMARK  status: ('A' for Active; 'I' for Inactive)
REMARK    1  A    between atoms: N_1  and  C_2
REMARK    2  A    between atoms: C_2  and  C_3
REMARK    3  A    between atoms: C_5  and  O_6
REMARK    4  A    between atoms: O_6  and  C_7
REMARK    5  A    between atoms: C_8  and  N_9
REMARK    6  A    between atoms: C_11  and  N_12
REMARK    7  A    between atoms: C_13  and  O_14
REMARK    8  A    between atoms: C_15  and  O_16
REMARK    9  A    between atoms: C_17  and  N_18
REMARK   10  A    between atoms: C_19  and  O_20
REMARK   11  A    between atoms: C_21  and  O_22
REMARK   12  A    between atoms: O_22  and  C_23
REMARK   13  A    between atoms: C_23  and  C_24
REMARK                            x       y       z     vdW  Elec       q    Type
REMARK                         _______ _______ _______ _____ _____    ______ ____
ROOT
ATOM      1  C   UNL     1       0.098  10.445  21.311  0.00  0.00    +0.000 C 
ATOM      2  O   UNL     1       0.087  11.883  21.346  0.00  0.00    +0.000 OA
ATOM      3  C   UNL     1      -0.845  12.441  20.414  0.00  0.00    +0.000 C 
ATOM      4  C   UNL     1      -0.399  12.033  18.974  0.00  0.00    +0.000 C 
ATOM      5  C   UNL     1      -0.269  10.498  18.850  0.00  0.00    +0.000 C 
ATOM      6  C   UNL     1       0.648   9.924  19.967  0.00  0.00    +0.000 C 
ENDROOT
BRANCH   4   7
ATOM      7  N   UNL     1      -1.204  12.575  17.851  0.00  0.00    +0.000 NA
ATOM      8  H   UNL     1      -0.634  13.274  17.365  0.00  0.00    +0.000 HD
ATOM      9  H   UNL     1      -1.953  13.141  18.256  0.00  0.00    +0.000 HD
ENDBRANCH   4   7
BRANCH   5  10
ATOM     10  O   UNL     1       0.216  10.199  17.527  0.00  0.00    +0.000 OA
ATOM     11  H   UNL     1      -0.411   9.588  17.103  0.00  0.00    +0.000 HD
ENDBRANCH   5  10
BRANCH   1  12
ATOM     12  C   UNL     1       0.830   9.960  22.575  0.00  0.00    +0.000 C 
BRANCH  12  13
ATOM     13  N   UNL     1      -0.039   9.738  23.734  0.00  0.00    +0.000 NA
ATOM     14  H   UNL     1       0.486   9.175  24.409  0.00  0.00    +0.000 HD
ATOM     15  H   UNL     1      -0.839   9.173  23.461  0.00  0.00    +0.000 HD
ENDBRANCH  12  13
ENDBRANCH   1  12
BRANCH   3  16
ATOM     16  O   UNL     1      -2.180  12.027  20.722  0.00  0.00    +0.000 OA
BRANCH  16  17
ATOM     17  C   UNL     1      -2.951  12.958  21.543  0.00  0.00    +0.000 C 
ATOM     18  C   UNL     1      -2.900  12.369  22.987  0.00  0.00    +0.000 C 
ATOM     19  C   UNL     1      -3.923  12.958  23.964  0.00  0.00    +0.000 C 
ATOM     20  C   UNL     1      -5.329  12.916  23.375  0.00  0.00    +0.000 C 
ATOM     21  C   UNL     1      -5.347  13.763  22.085  0.00  0.00    +0.000 C 
ATOM     22  C   UNL     1      -4.398  13.156  21.028  0.00  0.00    +0.000 C 
BRANCH  18  23
ATOM     23  N   UNL     1      -1.563  12.513  23.604  0.00  0.00    +0.000 NA
ATOM     24  H   UNL     1      -1.560  13.261  24.294  0.00  0.00    +0.000 HD
ATOM     25  H   UNL     1      -0.904  12.796  22.872  0.00  0.00    +0.000 HD
ENDBRANCH  18  23
BRANCH  20  26
ATOM     26  N   UNL     1      -6.317  13.364  24.362  0.00  0.00    +0.000 NA
ATOM     27  H   UNL     1      -6.966  14.033  23.948  0.00  0.00    +0.000 HD
ATOM     28  H   UNL     1      -5.853  13.853  25.127  0.00  0.00    +0.000 HD
ENDBRANCH  20  26
BRANCH  21  29
ATOM     29  O   UNL     1      -6.666  13.861  21.537  0.00  0.00    +0.000 OA
ATOM     30  H   UNL     1      -7.269  13.373  22.123  0.00  0.00    +0.000 HD
ENDBRANCH  21  29
BRANCH  22  31
ATOM     31  O   UNL     1      -4.386  14.008  19.866  0.00  0.00    +0.000 OA
ATOM     32  H   UNL     1      -3.864  14.804  20.069  0.00  0.00    +0.000 HD
ENDBRANCH  22  31
ENDBRANCH  16  17
ENDBRANCH   3  16
BRANCH   6  33
ATOM     33  O   UNL     1       0.652   8.483  20.012  0.00  0.00    +0.000 OA
BRANCH  33  34
ATOM     34  C   UNL     1       1.909   7.915  20.372  0.00  0.00    +0.000 C 
BRANCH  34  35
ATOM     35  C   UNL     1       2.234   6.685  19.565  0.00  0.00    +0.000 A 
ATOM     36  C   UNL     1       2.993   6.831  18.395  0.00  0.00    +0.000 A 
ATOM     37  C   UNL     1       3.402   5.712  17.659  0.00  0.00    +0.000 A 
ATOM     38  C   UNL     1       3.072   4.421  18.088  0.00  0.00    +0.000 A 
ATOM     39  C   UNL     1       3.512   3.291  17.380  0.00  0.00    +0.000 A 
ATOM     40  C   UNL     1       3.188   2.010  17.827  0.00  0.00    +0.000 A 
ATOM     41  C   UNL     1       2.423   1.846  18.974  0.00  0.00    +0.000 A 
ATOM     42  C   UNL     1       1.979   2.966  19.685  0.00  0.00    +0.000 A 
ATOM     43  C   UNL     1       2.301   4.260  19.263  0.00  0.00    +0.000 A 
ATOM     44  C   UNL     1       1.894   5.401  19.984  0.00  0.00    +0.000 A 
ENDBRANCH  34  35
ENDBRANCH  33  34
ENDBRANCH   6  33
TORSDOF 13
ENDMDL
MODEL 9
REMARK VINA RESULT:      -7.5      7.682     10.579
REMARK  Name = 
REMARK  13 active torsions:
REMARK  status: ('A' for Active; 'I' for Inactive)
REMARK    1  A    between atoms: N_1  and  C_2
REMARK    2  A    between atoms: C_2  and  C_3
REMARK    3  A    between atoms: C_5  and  O_6
REMARK    4  A    between atoms: O_6  and  C_7
REMARK    5  A    between atoms: C_8  and  N_9
REMARK    6  A    between atoms: C_11  and  N_12
REMARK    7  A    between atoms: C_13  and  O_14
REMARK    8  A    between atoms: C_15  and  O_16
REMARK    9  A    between atoms: C_17  and  N_18
REMARK   10  A    between atoms: C_19  and  O_20
REMARK   11  A    between atoms: C_21  and  O_22
REMARK   12  A    between atoms: O_22  and  C_23
REMARK   13  A    between atoms: C_23  and  C_24
REMARK                            x       y       z     vdW  Elec       q    Type
REMARK                         _______ _______ _______ _____ _____    ______ ____
ROOT
ATOM      1  C   UNL     1       0.012  11.554  19.985  0.00  0.00    +0.000 C 
ATOM      2  O   UNL     1      -0.572  12.829  19.667  0.00  0.00    +0.000 OA
ATOM      3  C   UNL     1      -1.922  12.708  19.207  0.00  0.00    +0.000 C 
ATOM      4  C   UNL     1      -1.913  11.879  17.884  0.00  0.00    +0.000 C 
ATOM      5  C   UNL     1      -1.224  10.512  18.093  0.00  0.00    +0.000 C 
ATOM      6  C   UNL     1       0.189  10.690  18.719  0.00  0.00    +0.000 C 
ENDROOT
BRANCH   4   7
ATOM      7  N   UNL     1      -3.221  11.698  17.205  0.00  0.00    +0.000 NA
ATOM      8  H   UNL     1      -3.190  12.214  16.321  0.00  0.00    +0.000 HD
ATOM      9  H   UNL     1      -3.919  12.217  17.742  0.00  0.00    +0.000 HD
ENDBRANCH   4   7
BRANCH   5  10
ATOM     10  O   UNL     1      -1.184   9.835  16.821  0.00  0.00    +0.000 OA
ATOM     11  H   UNL     1      -0.285   9.917  16.460  0.00  0.00    +0.000 HD
ENDBRANCH   5  10
BRANCH   1  12
ATOM     12  C   UNL     1       1.288  11.823  20.804  0.00  0.00    +0.000 C 
BRANCH  12  13
ATOM     13  N   UNL     1       1.316  13.123  21.478  0.00  0.00    +0.000 NA
ATOM     14  H   UNL     1       0.464  13.197  22.040  0.00  0.00    +0.000 HD
ATOM     15  H   UNL     1       1.262  13.869  20.789  0.00  0.00    +0.000 HD
ENDBRANCH  12  13
ENDBRANCH   1  12
BRANCH   3  16
ATOM     16  O   UNL     1      -2.753  12.133  20.220  0.00  0.00    +0.000 OA
BRANCH  16  17
ATOM     17  C   UNL     1      -3.417  13.089  21.103  0.00  0.00    +0.000 C 
ATOM     18  C   UNL     1      -3.054  12.631  22.549  0.00  0.00    +0.000 C 
ATOM     19  C   UNL     1      -3.911  13.247  23.660  0.00  0.00    +0.000 C 
ATOM     20  C   UNL     1      -5.397  13.079  23.360  0.00  0.00    +0.000 C 
ATOM     21  C   UNL     1      -5.717  13.810  22.039  0.00  0.00    +0.000 C 
ATOM     22  C   UNL     1      -4.946  13.164  20.865  0.00  0.00    +0.000 C 
BRANCH  18  23
ATOM     23  N   UNL     1      -1.636  12.899  22.882  0.00  0.00    +0.000 NA
ATOM     24  H   UNL     1      -1.546  13.760  23.417  0.00  0.00    +0.000 HD
ATOM     25  H   UNL     1      -1.128  13.050  22.006  0.00  0.00    +0.000 HD
ENDBRANCH  18  23
BRANCH  20  26
ATOM     26  N   UNL     1      -6.208  13.557  24.484  0.00  0.00    +0.000 NA
ATOM     27  H   UNL     1      -5.614  13.866  25.254  0.00  0.00    +0.000 HD
ATOM     28  H   UNL     1      -6.781  12.799  24.854  0.00  0.00    +0.000 HD
ENDBRANCH  20  26
BRANCH  21  29
ATOM     29  O   UNL     1      -7.119  13.789  21.751  0.00  0.00    +0.000 OA
ATOM     30  H   UNL     1      -7.543  14.483  22.286  0.00  0.00    +0.000 HD
ENDBRANCH  21  29
BRANCH  22  31
ATOM     31  O   UNL     1      -5.212  13.912  19.663  0.00  0.00    +0.000 OA
ATOM     32  H   UNL     1      -6.059  13.610  19.289  0.00  0.00    +0.000 HD
ENDBRANCH  22  31
ENDBRANCH  16  17
ENDBRANCH   3  16
BRANCH   6  33
ATOM     33  O   UNL     1       0.798   9.442  19.108  0.00  0.00    +0.000 OA
BRANCH  33  34
ATOM     34  C   UNL     1       1.989   9.127  18.391  0.00  0.00    +0.000 C 
BRANCH  34  35
ATOM     35  C   UNL     1       2.400   7.689  18.566  0.00  0.00    +0.000 A 
ATOM     36  C   UNL     1       3.380   7.162  17.712  0.00  0.00    +0.000 A 
ATOM     37  C   UNL     1       3.865   5.861  17.890  0.00  0.00    +0.000 A 
ATOM     38  C   UNL     1       3.389   5.064  18.939  0.00  0.00    +0.000 A 
ATOM     39  C   UNL     1       3.899   3.773  19.152  0.00  0.00    +0.000 A 
ATOM     40  C   UNL     1       3.427   2.995  20.209  0.00  0.00    +0.000 A 
ATOM     41  C   UNL     1       2.445   3.493  21.055  0.00  0.00    +0.000 A 
ATOM     42  C   UNL     1       1.931   4.778  20.850  0.00  0.00    +0.000 A 
ATOM     43  C   UNL     1       2.396   5.580  19.803  0.00  0.00    +0.000 A 
ATOM     44  C   UNL     1       1.917   6.891  19.600  0.00  0.00    +0.000 A 
ENDBRANCH  34  35
ENDBRANCH  33  34
ENDBRANCH   6  33
TORSDOF 13
ENDMDL
