MODEL 1
REMARK VINA RESULT:      -8.7      0.000      0.000
REMARK  Name = 
REMARK  9 active torsions:
REMARK  status: ('A' for Active; 'I' for Inactive)
REMARK    1  A    between atoms: C_1  and  C_2
REMARK    2  A    between atoms: C_2  and  C_3
REMARK    3  A    between atoms: C_3  and  C_4
REMARK    4  A    between atoms: C_4  and  C_5
REMARK    5  A    between atoms: C_5  and  C_6
REMARK    6  A    between atoms: C_9  and  C_10
REMARK    7  A    between atoms: N_12  and  C_13
REMARK    8  A    between atoms: C_13  and  C_14
REMARK    9  A    between atoms: C_21  and  O_22
REMARK                            x       y       z     vdW  Elec       q    Type
REMARK                         _______ _______ _______ _____ _____    ______ ____
ROOT
ATOM      1  C   UNL     1       0.095   9.575  18.492  0.00  0.00    +0.000 A 
ATOM      2  C   UNL     1       1.064   9.086  17.628  0.00  0.00    +0.000 A 
ATOM      3  N   UNL     1       2.098   8.643  18.432  0.00  0.00    +0.000 N 
ATOM      4  N   UNL     1       1.683   8.650  19.719  0.00  0.00    +0.000 NA
ATOM      5  N   UNL     1       0.496   9.262  19.773  0.00  0.00    +0.000 NA
ENDROOT
BRANCH   1   9
ATOM      6  C   UNL     1      -3.747  11.372  17.579  0.00  0.00    +0.000 A 
ATOM      7  C   UNL     1      -3.150  10.460  16.702  0.00  0.00    +0.000 A 
ATOM      8  C   UNL     1      -1.887   9.912  16.976  0.00  0.00    +0.000 A 
ATOM      9  C   UNL     1      -1.168  10.252  18.134  0.00  0.00    +0.000 A 
ATOM     10  C   UNL     1      -1.719  11.259  18.944  0.00  0.00    +0.000 A 
ATOM     11  C   UNL     1      -2.989  11.810  18.672  0.00  0.00    +0.000 A 
BRANCH   6  12
ATOM     12  C   UNL     1      -5.173  11.837  17.373  0.00  0.00    +0.000 C 
BRANCH  12  13
ATOM     13  C   UNL     1      -6.068  11.708  18.621  0.00  0.00    +0.000 C 
BRANCH  13  14
ATOM     14  C   UNL     1      -6.808  10.367  18.730  0.00  0.00    +0.000 C 
BRANCH  14  16
ATOM     15  C   UNL     1      -7.540   8.649  20.443  0.00  0.00    +0.000 C 
ATOM     16  C   UNL     1      -7.260  10.118  20.172  0.00  0.00    +0.000 C 
ENDBRANCH  14  16
ENDBRANCH  13  14
ENDBRANCH  12  13
ENDBRANCH   6  12
ENDBRANCH   1   9
BRANCH   3  17
ATOM     17  C   UNL     1       3.408   8.071  17.973  0.00  0.00    +0.000 C 
BRANCH  17  18
ATOM     18  C   UNL     1       3.545   6.570  17.663  0.00  0.00    +0.000 A 
ATOM     19  C   UNL     1       4.618   6.243  16.903  0.00  0.00    +0.000 A 
ATOM     20  C   UNL     1       5.055   4.859  17.057  0.00  0.00    +0.000 A 
ATOM     21  O   UNL     1       6.037   4.518  17.686  0.00  0.00    +0.000 OA
ATOM     22  O   UNL     1       4.112   4.050  16.503  0.00  0.00    +0.000 OA
ATOM     23  C   UNL     1       3.065   4.118  17.435  0.00  0.00    +0.000 A 
ATOM     24  C   UNL     1       2.439   2.869  17.591  0.00  0.00    +0.000 A 
ATOM     25  C   UNL     1       1.513   2.727  18.601  0.00  0.00    +0.000 A 
ATOM     26  C   UNL     1       1.252   3.815  19.424  0.00  0.00    +0.000 A 
ATOM     27  C   UNL     1       1.861   5.110  19.218  0.00  0.00    +0.000 A 
ATOM     28  C   UNL     1       2.789   5.323  18.155  0.00  0.00    +0.000 A 
BRANCH  25  29
ATOM     29  O   UNL     1       0.906   1.522  18.784  0.00  0.00    +0.000 OA
ATOM     30  H   UNL     1       0.964   0.997  17.974  0.00  0.00    +0.000 HD
ENDBRANCH  25  29
ENDBRANCH  17  18
ENDBRANCH   3  17
TORSDOF 8
ENDMDL
MODEL 2
REMARK VINA RESULT:      -8.7      4.805     10.210
REMARK  Name = 
REMARK  9 active torsions:
REMARK  status: ('A' for Active; 'I' for Inactive)
REMARK    1  A    between atoms: C_1  and  C_2
REMARK    2  A    between atoms: C_2  and  C_3
REMARK    3  A    between atoms: C_3  and  C_4
REMARK    4  A    between atoms: C_4  and  C_5
REMARK    5  A    between atoms: C_5  and  C_6
REMARK    6  A    between atoms: C_9  and  C_10
REMARK    7  A    between atoms: N_12  and  C_13
REMARK    8  A    between atoms: C_13  and  C_14
REMARK    9  A    between atoms: C_21  and  O_22
REMARK                            x       y       z     vdW  Elec       q    Type
REMARK                         _______ _______ _______ _____ _____    ______ ____
ROOT
ATOM      1  C   UNL     1       2.868   7.220  18.579  0.00  0.00    +0.000 A 
ATOM      2  C   UNL     1       2.241   8.402  18.210  0.00  0.00    +0.000 A 
ATOM      3  N   UNL     1       1.436   8.752  19.279  0.00  0.00    +0.000 N 
ATOM      4  N   UNL     1       1.734   7.952  20.329  0.00  0.00    +0.000 NA
ATOM      5  N   UNL     1       2.557   6.989  19.901  0.00  0.00    +0.000 NA
ENDROOT
BRANCH   1   9
ATOM      6  C   UNL     1       5.273   4.710  15.982  0.00  0.00    +0.000 A 
ATOM      7  C   UNL     1       4.628   4.179  17.104  0.00  0.00    +0.000 A 
ATOM      8  C   UNL     1       3.886   4.999  17.970  0.00  0.00    +0.000 A 
ATOM      9  C   UNL     1       3.758   6.380  17.751  0.00  0.00    +0.000 A 
ATOM     10  C   UNL     1       4.509   6.923  16.694  0.00  0.00    +0.000 A 
ATOM     11  C   UNL     1       5.254   6.101  15.823  0.00  0.00    +0.000 A 
BRANCH   6  12
ATOM     12  C   UNL     1       5.933   3.809  14.960  0.00  0.00    +0.000 C 
BRANCH  12  13
ATOM     13  C   UNL     1       5.617   4.174  13.497  0.00  0.00    +0.000 C 
BRANCH  13  14
ATOM     14  C   UNL     1       6.434   3.390  12.460  0.00  0.00    +0.000 C 
BRANCH  14  16
ATOM     15  C   UNL     1       4.135   3.195  11.413  0.00  0.00    +0.000 C 
ATOM     16  C   UNL     1       5.511   2.565  11.559  0.00  0.00    +0.000 C 
ENDBRANCH  14  16
ENDBRANCH  13  14
ENDBRANCH  12  13
ENDBRANCH   6  12
ENDBRANCH   1   9
BRANCH   3  17
ATOM     17  C   UNL     1       0.510   9.930  19.355  0.00  0.00    +0.000 C 
BRANCH  17  18
ATOM     18  C   UNL     1      -0.026  10.422  20.711  0.00  0.00    +0.000 A 
ATOM     19  C   UNL     1      -0.387   9.438  21.570  0.00  0.00    +0.000 A 
ATOM     20  C   UNL     1      -0.368   9.838  22.974  0.00  0.00    +0.000 A 
ATOM     21  O   UNL     1       0.495   9.515  23.766  0.00  0.00    +0.000 OA
ATOM     22  O   UNL     1      -1.383  10.722  23.179  0.00  0.00    +0.000 OA
ATOM     23  C   UNL     1      -0.909  11.883  22.550  0.00  0.00    +0.000 A 
ATOM     24  C   UNL     1      -1.253  13.034  23.280  0.00  0.00    +0.000 A 
ATOM     25  C   UNL     1      -0.707  14.238  22.891  0.00  0.00    +0.000 A 
ATOM     26  C   UNL     1       0.166  14.256  21.810  0.00  0.00    +0.000 A 
ATOM     27  C   UNL     1       0.467  13.075  21.033  0.00  0.00    +0.000 A 
ATOM     28  C   UNL     1      -0.112  11.814  21.364  0.00  0.00    +0.000 A 
BRANCH  25  29
ATOM     29  O   UNL     1      -1.010  15.365  23.593  0.00  0.00    +0.000 OA
ATOM     30  H   UNL     1      -1.908  15.301  23.946  0.00  0.00    +0.000 HD
ENDBRANCH  25  29
ENDBRANCH  17  18
ENDBRANCH   3  17
TORSDOF 8
ENDMDL
MODEL 3
REMARK VINA RESULT:      -8.5      3.144      5.085
REMARK  Name = 
REMARK  9 active torsions:
REMARK  status: ('A' for Active; 'I' for Inactive)
REMARK    1  A    between atoms: C_1  and  C_2
REMARK    2  A    between atoms: C_2  and  C_3
REMARK    3  A    between atoms: C_3  and  C_4
REMARK    4  A    between atoms: C_4  and  C_5
REMARK    5  A    between atoms: C_5  and  C_6
REMARK    6  A    between atoms: C_9  and  C_10
REMARK    7  A    between atoms: N_12  and  C_13
REMARK    8  A    between atoms: C_13  and  C_14
REMARK    9  A    between atoms: C_21  and  O_22
REMARK                            x       y       z     vdW  Elec       q    Type
REMARK                         _______ _______ _______ _____ _____    ______ ____
ROOT
ATOM      1  C   UNL     1       2.206   6.471  19.781  0.00  0.00    +0.000 A 
ATOM      2  C   UNL     1       2.885   5.979  18.675  0.00  0.00    +0.000 A 
ATOM      3  N   UNL     1       3.314   4.713  19.028  0.00  0.00    +0.000 N 
ATOM      4  N   UNL     1       2.730   4.365  20.198  0.00  0.00    +0.000 NA
ATOM      5  N   UNL     1       2.103   5.438  20.688  0.00  0.00    +0.000 NA
ENDROOT
BRANCH   1   9
ATOM      6  C   UNL     1       0.288  10.339  20.212  0.00  0.00    +0.000 A 
ATOM      7  C   UNL     1       0.956   9.992  19.033  0.00  0.00    +0.000 A 
ATOM      8  C   UNL     1       1.614   8.758  18.909  0.00  0.00    +0.000 A 
ATOM      9  C   UNL     1       1.634   7.822  19.956  0.00  0.00    +0.000 A 
ATOM     10  C   UNL     1       1.068   8.229  21.176  0.00  0.00    +0.000 A 
ATOM     11  C   UNL     1       0.405   9.468  21.302  0.00  0.00    +0.000 A 
BRANCH   6  12
ATOM     12  C   UNL     1      -0.559  11.592  20.292  0.00  0.00    +0.000 C 
BRANCH  12  13
ATOM     13  C   UNL     1      -0.958  12.174  18.923  0.00  0.00    +0.000 C 
BRANCH  13  14
ATOM     14  C   UNL     1      -2.335  11.718  18.421  0.00  0.00    +0.000 C 
BRANCH  14  16
ATOM     15  C   UNL     1      -2.650  10.037  16.551  0.00  0.00    +0.000 C 
ATOM     16  C   UNL     1      -2.299  10.241  18.016  0.00  0.00    +0.000 C 
ENDBRANCH  14  16
ENDBRANCH  13  14
ENDBRANCH  12  13
ENDBRANCH   6  12
ENDBRANCH   1   9
BRANCH   3  17
ATOM     17  C   UNL     1       4.142   3.783  18.192  0.00  0.00    +0.000 C 
BRANCH  17  18
ATOM     18  C   UNL     1       5.378   4.296  17.432  0.00  0.00    +0.000 A 
ATOM     19  C   UNL     1       6.354   4.812  18.218  0.00  0.00    +0.000 A 
ATOM     20  C   UNL     1       7.681   4.790  17.609  0.00  0.00    +0.000 A 
ATOM     21  O   UNL     1       8.558   4.003  17.909  0.00  0.00    +0.000 OA
ATOM     22  O   UNL     1       7.696   5.687  16.586  0.00  0.00    +0.000 OA
ATOM     23  C   UNL     1       6.927   5.044  15.604  0.00  0.00    +0.000 A 
ATOM     24  C   UNL     1       7.455   5.261  14.320  0.00  0.00    +0.000 A 
ATOM     25  C   UNL     1       6.921   4.549  13.268  0.00  0.00    +0.000 A 
ATOM     26  C   UNL     1       5.898   3.645  13.526  0.00  0.00    +0.000 A 
ATOM     27  C   UNL     1       5.324   3.474  14.842  0.00  0.00    +0.000 A 
ATOM     28  C   UNL     1       5.809   4.223  15.956  0.00  0.00    +0.000 A 
BRANCH  25  29
ATOM     29  O   UNL     1       7.428   4.727  12.017  0.00  0.00    +0.000 OA
ATOM     30  H   UNL     1       8.001   5.506  12.002  0.00  0.00    +0.000 HD
ENDBRANCH  25  29
ENDBRANCH  17  18
ENDBRANCH   3  17
TORSDOF 8
ENDMDL
MODEL 4
REMARK VINA RESULT:      -8.4      4.224      9.189
REMARK  Name = 
REMARK  9 active torsions:
REMARK  status: ('A' for Active; 'I' for Inactive)
REMARK    1  A    between atoms: C_1  and  C_2
REMARK    2  A    between atoms: C_2  and  C_3
REMARK    3  A    between atoms: C_3  and  C_4
REMARK    4  A    between atoms: C_4  and  C_5
REMARK    5  A    between atoms: C_5  and  C_6
REMARK    6  A    between atoms: C_9  and  C_10
REMARK    7  A    between atoms: N_12  and  C_13
REMARK    8  A    between atoms: C_13  and  C_14
REMARK    9  A    between atoms: C_21  and  O_22
REMARK                            x       y       z     vdW  Elec       q    Type
REMARK                         _______ _______ _______ _____ _____    ______ ____
ROOT
ATOM      1  C   UNL     1       2.129   8.040  18.358  0.00  0.00    +0.000 A 
ATOM      2  C   UNL     1       1.469   8.471  19.500  0.00  0.00    +0.000 A 
ATOM      3  N   UNL     1       1.392   9.848  19.395  0.00  0.00    +0.000 N 
ATOM      4  N   UNL     1       1.777  10.212  18.150  0.00  0.00    +0.000 NA
ATOM      5  N   UNL     1       2.275   9.135  17.534  0.00  0.00    +0.000 NA
ENDROOT
BRANCH   1   9
ATOM      6  C   UNL     1       3.383   3.945  17.663  0.00  0.00    +0.000 A 
ATOM      7  C   UNL     1       4.313   4.989  17.693  0.00  0.00    +0.000 A 
ATOM      8  C   UNL     1       3.903   6.320  17.874  0.00  0.00    +0.000 A 
ATOM      9  C   UNL     1       2.550   6.662  18.031  0.00  0.00    +0.000 A 
ATOM     10  C   UNL     1       1.615   5.624  17.875  0.00  0.00    +0.000 A 
ATOM     11  C   UNL     1       2.025   4.286  17.695  0.00  0.00    +0.000 A 
BRANCH   6  12
ATOM     12  C   UNL     1       3.831   2.499  17.634  0.00  0.00    +0.000 C 
BRANCH  12  13
ATOM     13  C   UNL     1       3.517   1.714  18.922  0.00  0.00    +0.000 C 
BRANCH  13  14
ATOM     14  C   UNL     1       3.813   2.482  20.217  0.00  0.00    +0.000 C 
BRANCH  14  16
ATOM     15  C   UNL     1       2.245   4.140  21.322  0.00  0.00    +0.000 C 
ATOM     16  C   UNL     1       2.530   2.674  21.033  0.00  0.00    +0.000 C 
ENDBRANCH  14  16
ENDBRANCH  13  14
ENDBRANCH  12  13
ENDBRANCH   6  12
ENDBRANCH   1   9
BRANCH   3  17
ATOM     17  C   UNL     1       0.812  10.793  20.405  0.00  0.00    +0.000 C 
BRANCH  17  18
ATOM     18  C   UNL     1      -0.545  11.475  20.156  0.00  0.00    +0.000 A 
ATOM     19  C   UNL     1      -0.817  12.515  20.981  0.00  0.00    +0.000 A 
ATOM     20  C   UNL     1      -1.777  13.470  20.435  0.00  0.00    +0.000 A 
ATOM     21  O   UNL     1      -1.479  14.562  19.990  0.00  0.00    +0.000 OA
ATOM     22  O   UNL     1      -2.998  12.870  20.393  0.00  0.00    +0.000 OA
ATOM     23  C   UNL     1      -2.860  11.972  19.324  0.00  0.00    +0.000 A 
ATOM     24  C   UNL     1      -4.039  11.899  18.563  0.00  0.00    +0.000 A 
ATOM     25  C   UNL     1      -4.006  11.199  17.376  0.00  0.00    +0.000 A 
ATOM     26  C   UNL     1      -2.810  10.612  16.982  0.00  0.00    +0.000 A 
ATOM     27  C   UNL     1      -1.620  10.645  17.802  0.00  0.00    +0.000 A 
ATOM     28  C   UNL     1      -1.616  11.315  19.062  0.00  0.00    +0.000 A 
BRANCH  25  29
ATOM     29  O   UNL     1      -5.131  11.130  16.612  0.00  0.00    +0.000 OA
ATOM     30  H   UNL     1      -5.459  10.221  16.590  0.00  0.00    +0.000 HD
ENDBRANCH  25  29
ENDBRANCH  17  18
ENDBRANCH   3  17
TORSDOF 8
ENDMDL
MODEL 5
REMARK VINA RESULT:      -8.4      0.981      1.143
REMARK  Name = 
REMARK  9 active torsions:
REMARK  status: ('A' for Active; 'I' for Inactive)
REMARK    1  A    between atoms: C_1  and  C_2
REMARK    2  A    between atoms: C_2  and  C_3
REMARK    3  A    between atoms: C_3  and  C_4
REMARK    4  A    between atoms: C_4  and  C_5
REMARK    5  A    between atoms: C_5  and  C_6
REMARK    6  A    between atoms: C_9  and  C_10
REMARK    7  A    between atoms: N_12  and  C_13
REMARK    8  A    between atoms: C_13  and  C_14
REMARK    9  A    between atoms: C_21  and  O_22
REMARK                            x       y       z     vdW  Elec       q    Type
REMARK                         _______ _______ _______ _____ _____    ______ ____
ROOT
ATOM      1  C   UNL     1      -0.582  10.107  18.624  0.00  0.00    +0.000 A 
ATOM      2  C   UNL     1       0.393   9.609  17.771  0.00  0.00    +0.000 A 
ATOM      3  N   UNL     1       1.465   9.273  18.576  0.00  0.00    +0.000 N 
ATOM      4  N   UNL     1       1.077   9.347  19.871  0.00  0.00    +0.000 NA
ATOM      5  N   UNL     1      -0.138   9.901  19.912  0.00  0.00    +0.000 NA
ENDROOT
BRANCH   1   9
ATOM      6  C   UNL     1      -4.530  11.626  17.659  0.00  0.00    +0.000 A 
ATOM      7  C   UNL     1      -3.830  10.813  16.761  0.00  0.00    +0.000 A 
ATOM      8  C   UNL     1      -2.534  10.357  17.054  0.00  0.00    +0.000 A 
ATOM      9  C   UNL     1      -1.885  10.695  18.253  0.00  0.00    +0.000 A 
ATOM     10  C   UNL     1      -2.546  11.610  19.091  0.00  0.00    +0.000 A 
ATOM     11  C   UNL     1      -3.848  12.067  18.799  0.00  0.00    +0.000 A 
BRANCH   6  12
ATOM     12  C   UNL     1      -5.983  11.981  17.423  0.00  0.00    +0.000 C 
BRANCH  12  13
ATOM     13  C   UNL     1      -6.927  11.578  18.572  0.00  0.00    +0.000 C 
BRANCH  13  14
ATOM     14  C   UNL     1      -6.925  10.077  18.893  0.00  0.00    +0.000 C 
BRANCH  14  16
ATOM     15  C   UNL     1      -7.746  11.126  21.049  0.00  0.00    +0.000 C 
ATOM     16  C   UNL     1      -7.366   9.836  20.341  0.00  0.00    +0.000 C 
ENDBRANCH  14  16
ENDBRANCH  13  14
ENDBRANCH  12  13
ENDBRANCH   6  12
ENDBRANCH   1   9
BRANCH   3  17
ATOM     17  C   UNL     1       2.791   8.737  18.125  0.00  0.00    +0.000 C 
BRANCH  17  18
ATOM     18  C   UNL     1       3.045   7.221  18.058  0.00  0.00    +0.000 A 
ATOM     19  C   UNL     1       3.961   6.839  17.135  0.00  0.00    +0.000 A 
ATOM     20  C   UNL     1       4.592   5.553  17.420  0.00  0.00    +0.000 A 
ATOM     21  O   UNL     1       5.721   5.426  17.851  0.00  0.00    +0.000 OA
ATOM     22  O   UNL     1       3.660   4.576  17.254  0.00  0.00    +0.000 OA
ATOM     23  C   UNL     1       2.839   4.741  18.380  0.00  0.00    +0.000 A 
ATOM     24  C   UNL     1       2.422   3.501  18.893  0.00  0.00    +0.000 A 
ATOM     25  C   UNL     1       1.760   3.486  20.102  0.00  0.00    +0.000 A 
ATOM     26  C   UNL     1       1.549   4.691  20.761  0.00  0.00    +0.000 A 
ATOM     27  C   UNL     1       1.932   5.965  20.196  0.00  0.00    +0.000 A 
ATOM     28  C   UNL     1       2.575   6.038  18.923  0.00  0.00    +0.000 A 
BRANCH  25  29
ATOM     29  O   UNL     1       1.363   2.295  20.630  0.00  0.00    +0.000 OA
ATOM     30  H   UNL     1       0.464   2.090  20.338  0.00  0.00    +0.000 HD
ENDBRANCH  25  29
ENDBRANCH  17  18
ENDBRANCH   3  17
TORSDOF 8
ENDMDL
MODEL 6
REMARK VINA RESULT:      -8.4      4.771     10.260
REMARK  Name = 
REMARK  9 active torsions:
REMARK  status: ('A' for Active; 'I' for Inactive)
REMARK    1  A    between atoms: C_1  and  C_2
REMARK    2  A    between atoms: C_2  and  C_3
REMARK    3  A    between atoms: C_3  and  C_4
REMARK    4  A    between atoms: C_4  and  C_5
REMARK    5  A    between atoms: C_5  and  C_6
REMARK    6  A    between atoms: C_9  and  C_10
REMARK    7  A    between atoms: N_12  and  C_13
REMARK    8  A    between atoms: C_13  and  C_14
REMARK    9  A    between atoms: C_21  and  O_22
REMARK                            x       y       z     vdW  Elec       q    Type
REMARK                         _______ _______ _______ _____ _____    ______ ____
ROOT
ATOM      1  C   UNL     1       2.694   7.331  18.494  0.00  0.00    +0.000 A 
ATOM      2  C   UNL     1       2.081   8.527  18.144  0.00  0.00    +0.000 A 
ATOM      3  N   UNL     1       1.326   8.898  19.241  0.00  0.00    +0.000 N 
ATOM      4  N   UNL     1       1.644   8.095  20.282  0.00  0.00    +0.000 NA
ATOM      5  N   UNL     1       2.427   7.112  19.828  0.00  0.00    +0.000 NA
ENDROOT
BRANCH   1   9
ATOM      6  C   UNL     1       5.326   4.769  16.184  0.00  0.00    +0.000 A 
ATOM      7  C   UNL     1       5.444   6.162  16.130  0.00  0.00    +0.000 A 
ATOM      8  C   UNL     1       4.564   6.993  16.842  0.00  0.00    +0.000 A 
ATOM      9  C   UNL     1       3.532   6.468  17.637  0.00  0.00    +0.000 A 
ATOM     10  C   UNL     1       3.344   5.076  17.587  0.00  0.00    +0.000 A 
ATOM     11  C   UNL     1       4.228   4.239  16.873  0.00  0.00    +0.000 A 
BRANCH   6  12
ATOM     12  C   UNL     1       6.368   3.870  15.554  0.00  0.00    +0.000 C 
BRANCH  12  13
ATOM     13  C   UNL     1       6.430   3.954  14.017  0.00  0.00    +0.000 C 
BRANCH  13  14
ATOM     14  C   UNL     1       5.065   3.850  13.323  0.00  0.00    +0.000 C 
BRANCH  14  16
ATOM     15  C   UNL     1       6.556   2.591  11.706  0.00  0.00    +0.000 C 
ATOM     16  C   UNL     1       5.223   3.296  11.904  0.00  0.00    +0.000 C 
ENDBRANCH  14  16
ENDBRANCH  13  14
ENDBRANCH  12  13
ENDBRANCH   6  12
ENDBRANCH   1   9
BRANCH   3  17
ATOM     17  C   UNL     1       0.431  10.098  19.347  0.00  0.00    +0.000 C 
BRANCH  17  18
ATOM     18  C   UNL     1      -0.095  10.569  20.714  0.00  0.00    +0.000 A 
ATOM     19  C   UNL     1      -0.452   9.571  21.559  0.00  0.00    +0.000 A 
ATOM     20  C   UNL     1      -0.424   9.947  22.969  0.00  0.00    +0.000 A 
ATOM     21  O   UNL     1       0.444   9.609  23.750  0.00  0.00    +0.000 OA
ATOM     22  O   UNL     1      -1.435  10.829  23.196  0.00  0.00    +0.000 OA
ATOM     23  C   UNL     1      -0.962  12.000  22.584  0.00  0.00    +0.000 A 
ATOM     24  C   UNL     1      -1.299  13.139  23.335  0.00  0.00    +0.000 A 
ATOM     25  C   UNL     1      -0.752  14.349  22.964  0.00  0.00    +0.000 A 
ATOM     26  C   UNL     1       0.113  14.383  21.878  0.00  0.00    +0.000 A 
ATOM     27  C   UNL     1       0.406  13.215  21.078  0.00  0.00    +0.000 A 
ATOM     28  C   UNL     1      -0.174  11.949  21.391  0.00  0.00    +0.000 A 
BRANCH  25  29
ATOM     29  O   UNL     1      -1.049  15.464  23.687  0.00  0.00    +0.000 OA
ATOM     30  H   UNL     1      -1.565  16.078  23.148  0.00  0.00    +0.000 HD
ENDBRANCH  25  29
ENDBRANCH  17  18
ENDBRANCH   3  17
TORSDOF 8
ENDMDL
MODEL 7
REMARK VINA RESULT:      -8.4      1.525      3.095
REMARK  Name = 
REMARK  9 active torsions:
REMARK  status: ('A' for Active; 'I' for Inactive)
REMARK    1  A    between atoms: C_1  and  C_2
REMARK    2  A    between atoms: C_2  and  C_3
REMARK    3  A    between atoms: C_3  and  C_4
REMARK    4  A    between atoms: C_4  and  C_5
REMARK    5  A    between atoms: C_5  and  C_6
REMARK    6  A    between atoms: C_9  and  C_10
REMARK    7  A    between atoms: N_12  and  C_13
REMARK    8  A    between atoms: C_13  and  C_14
REMARK    9  A    between atoms: C_21  and  O_22
REMARK                            x       y       z     vdW  Elec       q    Type
REMARK                         _______ _______ _______ _____ _____    ______ ____
ROOT
ATOM      1  C   UNL     1      -0.152  10.159  19.439  0.00  0.00    +0.000 A 
ATOM      2  C   UNL     1       0.480   9.790  18.260  0.00  0.00    +0.000 A 
ATOM      3  N   UNL     1       1.574   9.035  18.638  0.00  0.00    +0.000 N 
ATOM      4  N   UNL     1       1.482   8.766  19.961  0.00  0.00    +0.000 NA
ATOM      5  N   UNL     1       0.474   9.485  20.465  0.00  0.00    +0.000 NA
ENDROOT
BRANCH   1   9
ATOM      6  C   UNL     1      -3.705  12.584  20.006  0.00  0.00    +0.000 A 
ATOM      7  C   UNL     1      -3.495  11.878  18.817  0.00  0.00    +0.000 A 
ATOM      8  C   UNL     1      -2.325  11.129  18.615  0.00  0.00    +0.000 A 
ATOM      9  C   UNL     1      -1.318  11.054  19.591  0.00  0.00    +0.000 A 
ATOM     10  C   UNL     1      -1.481  11.863  20.728  0.00  0.00    +0.000 A 
ATOM     11  C   UNL     1      -2.657  12.616  20.934  0.00  0.00    +0.000 A 
BRANCH   6  12
ATOM     12  C   UNL     1      -5.032  13.255  20.294  0.00  0.00    +0.000 C 
BRANCH  12  13
ATOM     13  C   UNL     1      -6.098  12.318  20.893  0.00  0.00    +0.000 C 
BRANCH  13  14
ATOM     14  C   UNL     1      -6.870  11.494  19.852  0.00  0.00    +0.000 C 
BRANCH  14  16
ATOM     15  C   UNL     1      -7.156   8.977  19.789  0.00  0.00    +0.000 C 
ATOM     16  C   UNL     1      -7.515  10.268  20.507  0.00  0.00    +0.000 C 
ENDBRANCH  14  16
ENDBRANCH  13  14
ENDBRANCH  12  13
ENDBRANCH   6  12
ENDBRANCH   1   9
BRANCH   3  17
ATOM     17  C   UNL     1       2.610   8.442  17.730  0.00  0.00    +0.000 C 
BRANCH  17  18
ATOM     18  C   UNL     1       3.178   7.036  17.996  0.00  0.00    +0.000 A 
ATOM     19  C   UNL     1       2.273   6.134  18.446  0.00  0.00    +0.000 A 
ATOM     20  C   UNL     1       2.639   4.745  18.185  0.00  0.00    +0.000 A 
ATOM     21  O   UNL     1       2.136   4.056  17.319  0.00  0.00    +0.000 OA
ATOM     22  O   UNL     1       3.704   4.430  18.971  0.00  0.00    +0.000 OA
ATOM     23  C   UNL     1       4.757   5.118  18.348  0.00  0.00    +0.000 A 
ATOM     24  C   UNL     1       5.942   4.362  18.368  0.00  0.00    +0.000 A 
ATOM     25  C   UNL     1       7.018   4.820  17.639  0.00  0.00    +0.000 A 
ATOM     26  C   UNL     1       6.878   5.995  16.911  0.00  0.00    +0.000 A 
ATOM     27  C   UNL     1       5.674   6.794  16.946  0.00  0.00    +0.000 A 
ATOM     28  C   UNL     1       4.548   6.388  17.725  0.00  0.00    +0.000 A 
BRANCH  25  29
ATOM     29  O   UNL     1       8.171   4.096  17.626  0.00  0.00    +0.000 OA
ATOM     30  H   UNL     1       8.610   4.190  16.770  0.00  0.00    +0.000 HD
ENDBRANCH  25  29
ENDBRANCH  17  18
ENDBRANCH   3  17
TORSDOF 8
ENDMDL
MODEL 8
REMARK VINA RESULT:      -8.3      2.621      3.420
REMARK  Name = 
REMARK  9 active torsions:
REMARK  status: ('A' for Active; 'I' for Inactive)
REMARK    1  A    between atoms: C_1  and  C_2
REMARK    2  A    between atoms: C_2  and  C_3
REMARK    3  A    between atoms: C_3  and  C_4
REMARK    4  A    between atoms: C_4  and  C_5
REMARK    5  A    between atoms: C_5  and  C_6
REMARK    6  A    between atoms: C_9  and  C_10
REMARK    7  A    between atoms: N_12  and  C_13
REMARK    8  A    between atoms: C_13  and  C_14
REMARK    9  A    between atoms: C_21  and  O_22
REMARK                            x       y       z     vdW  Elec       q    Type
REMARK                         _______ _______ _______ _____ _____    ______ ____
ROOT
ATOM      1  C   UNL     1       0.807   9.664  20.760  0.00  0.00    +0.000 A 
ATOM      2  C   UNL     1       1.028   9.671  19.390  0.00  0.00    +0.000 A 
ATOM      3  N   UNL     1       1.826   8.573  19.130  0.00  0.00    +0.000 N 
ATOM      4  N   UNL     1       1.895   7.810  20.246  0.00  0.00    +0.000 NA
ATOM      5  N   UNL     1       1.329   8.486  21.250  0.00  0.00    +0.000 NA
ENDROOT
BRANCH   1   9
ATOM      6  C   UNL     1      -1.489  12.634  22.935  0.00  0.00    +0.000 A 
ATOM      7  C   UNL     1      -0.549  13.012  21.970  0.00  0.00    +0.000 A 
ATOM      8  C   UNL     1       0.225  12.054  21.298  0.00  0.00    +0.000 A 
ATOM      9  C   UNL     1       0.095  10.681  21.561  0.00  0.00    +0.000 A 
ATOM     10  C   UNL     1      -0.760  10.320  22.616  0.00  0.00    +0.000 A 
ATOM     11  C   UNL     1      -1.541  11.281  23.292  0.00  0.00    +0.000 A 
BRANCH   6  12
ATOM     12  C   UNL     1      -2.439  13.645  23.541  0.00  0.00    +0.000 C 
BRANCH  12  13
ATOM     13  C   UNL     1      -3.917  13.208  23.536  0.00  0.00    +0.000 C 
BRANCH  13  14
ATOM     14  C   UNL     1      -4.723  13.723  22.336  0.00  0.00    +0.000 C 
BRANCH  14  16
ATOM     15  C   UNL     1      -3.878  12.709  20.172  0.00  0.00    +0.000 C 
ATOM     16  C   UNL     1      -4.902  12.615  21.292  0.00  0.00    +0.000 C 
ENDBRANCH  14  16
ENDBRANCH  13  14
ENDBRANCH  12  13
ENDBRANCH   6  12
ENDBRANCH   1   9
BRANCH   3  17
ATOM     17  C   UNL     1       2.387   8.168  17.799  0.00  0.00    +0.000 C 
BRANCH  17  18
ATOM     18  C   UNL     1       3.201   6.872  17.649  0.00  0.00    +0.000 A 
ATOM     19  C   UNL     1       4.477   7.048  17.226  0.00  0.00    +0.000 A 
ATOM     20  C   UNL     1       5.380   5.961  17.593  0.00  0.00    +0.000 A 
ATOM     21  O   UNL     1       6.205   6.029  18.484  0.00  0.00    +0.000 OA
ATOM     22  O   UNL     1       5.037   4.859  16.872  0.00  0.00    +0.000 OA
ATOM     23  C   UNL     1       3.844   4.451  17.488  0.00  0.00    +0.000 A 
ATOM     24  C   UNL     1       3.764   3.050  17.566  0.00  0.00    +0.000 A 
ATOM     25  C   UNL     1       2.739   2.497  18.304  0.00  0.00    +0.000 A 
ATOM     26  C   UNL     1       1.846   3.345  18.945  0.00  0.00    +0.000 A 
ATOM     27  C   UNL     1       1.905   4.784  18.810  0.00  0.00    +0.000 A 
ATOM     28  C   UNL     1       2.917   5.404  18.017  0.00  0.00    +0.000 A 
BRANCH  25  29
ATOM     29  O   UNL     1       2.651   1.142  18.410  0.00  0.00    +0.000 OA
ATOM     30  H   UNL     1       3.441   0.730  18.035  0.00  0.00    +0.000 HD
ENDBRANCH  25  29
ENDBRANCH  17  18
ENDBRANCH   3  17
TORSDOF 8
ENDMDL
MODEL 9
REMARK VINA RESULT:      -8.3      4.235     10.041
REMARK  Name = 
REMARK  9 active torsions:
REMARK  status: ('A' for Active; 'I' for Inactive)
REMARK    1  A    between atoms: C_1  and  C_2
REMARK    2  A    between atoms: C_2  and  C_3
REMARK    3  A    between atoms: C_3  and  C_4
REMARK    4  A    between atoms: C_4  and  C_5
REMARK    5  A    between atoms: C_5  and  C_6
REMARK    6  A    between atoms: C_9  and  C_10
REMARK    7  A    between atoms: N_12  and  C_13
REMARK    8  A    between atoms: C_13  and  C_14
REMARK    9  A    between atoms: C_21  and  O_22
REMARK                            x       y       z     vdW  Elec       q    Type
REMARK                         _______ _______ _______ _____ _____    ______ ____
ROOT
ATOM      1  C   UNL     1       2.351   8.093  18.560  0.00  0.00    +0.000 A 
ATOM      2  C   UNL     1       2.067   9.337  18.016  0.00  0.00    +0.000 A 
ATOM      3  N   UNL     1       1.137   9.915  18.860  0.00  0.00    +0.000 N 
ATOM      4  N   UNL     1       1.034   9.160  19.978  0.00  0.00    +0.000 NA
ATOM      5  N   UNL     1       1.721   8.030  19.784  0.00  0.00    +0.000 NA
ENDROOT
BRANCH   1   9
ATOM      6  C   UNL     1       4.722   4.993  16.662  0.00  0.00    +0.000 A 
ATOM      7  C   UNL     1       3.696   4.671  17.558  0.00  0.00    +0.000 A 
ATOM      8  C   UNL     1       2.958   5.674  18.206  0.00  0.00    +0.000 A 
ATOM      9  C   UNL     1       3.213   7.038  17.987  0.00  0.00    +0.000 A 
ATOM     10  C   UNL     1       4.323   7.351  17.183  0.00  0.00    +0.000 A 
ATOM     11  C   UNL     1       5.065   6.344  16.530  0.00  0.00    +0.000 A 
BRANCH   6  12
ATOM     12  C   UNL     1       5.407   3.923  15.839  0.00  0.00    +0.000 C 
BRANCH  12  13
ATOM     13  C   UNL     1       5.371   4.173  14.319  0.00  0.00    +0.000 C 
BRANCH  13  14
ATOM     14  C   UNL     1       6.751   4.176  13.647  0.00  0.00    +0.000 C 
BRANCH  14  16
ATOM     15  C   UNL     1       5.341   2.968  11.923  0.00  0.00    +0.000 C 
ATOM     16  C   UNL     1       6.643   3.704  12.194  0.00  0.00    +0.000 C 
ENDBRANCH  14  16
ENDBRANCH  13  14
ENDBRANCH  12  13
ENDBRANCH   6  12
ENDBRANCH   1   9
BRANCH   3  17
ATOM     17  C   UNL     1       0.470  11.247  18.681  0.00  0.00    +0.000 C 
BRANCH  17  18
ATOM     18  C   UNL     1      -1.064  11.362  18.653  0.00  0.00    +0.000 A 
ATOM     19  C   UNL     1      -1.655  10.810  17.566  0.00  0.00    +0.000 A 
ATOM     20  C   UNL     1      -3.050  10.432  17.776  0.00  0.00    +0.000 A 
ATOM     21  O   UNL     1      -3.432   9.288  17.932  0.00  0.00    +0.000 OA
ATOM     22  O   UNL     1      -3.786  11.569  17.899  0.00  0.00    +0.000 OA
ATOM     23  C   UNL     1      -3.426  12.029  19.175  0.00  0.00    +0.000 A 
ATOM     24  C   UNL     1      -4.532  12.572  19.852  0.00  0.00    +0.000 A 
ATOM     25  C   UNL     1      -4.383  12.901  21.182  0.00  0.00    +0.000 A 
ATOM     26  C   UNL     1      -3.157  12.670  21.793  0.00  0.00    +0.000 A 
ATOM     27  C   UNL     1      -2.011  12.164  21.071  0.00  0.00    +0.000 A 
ATOM     28  C   UNL     1      -2.099  11.855  19.681  0.00  0.00    +0.000 A 
BRANCH  25  29
ATOM     29  O   UNL     1      -5.445  13.411  21.865  0.00  0.00    +0.000 OA
ATOM     30  H   UNL     1      -6.166  13.610  21.252  0.00  0.00    +0.000 HD
ENDBRANCH  25  29
ENDBRANCH  17  18
ENDBRANCH   3  17
TORSDOF 8
ENDMDL
