MODEL 1
REMARK VINA RESULT:      -8.9      0.000      0.000
REMARK  Name = 
REMARK  4 active torsions:
REMARK  status: ('A' for Active; 'I' for Inactive)
REMARK    1  A    between atoms: C_1  and  N_2
REMARK    2  A    between atoms: C_5  and  C_6
REMARK    3  A    between atoms: C_12  and  N_13
REMARK    4  A    between atoms: C_14  and  C_16
REMARK                            x       y       z     vdW  Elec       q    Type
REMARK                         _______ _______ _______ _____ _____    ______ ____
ROOT
ATOM      1  C   UNL     1       2.309   5.983  19.800  0.00  0.00    +0.000 A 
ATOM      2  C   UNL     1       1.711   5.232  20.808  0.00  0.00    +0.000 A 
ATOM      3  N   UNL     1       1.945   3.919  20.614  0.00  0.00    +0.000 N 
ATOM      4  C   UNL     1       2.684   3.824  19.498  0.00  0.00    +0.000 A 
ATOM      5  C   UNL     1       3.144   2.660  18.912  0.00  0.00    +0.000 A 
ATOM      6  C   UNL     1       3.904   2.750  17.739  0.00  0.00    +0.000 A 
ATOM      7  C   UNL     1       4.218   4.011  17.145  0.00  0.00    +0.000 A 
ATOM      8  C   UNL     1       3.709   5.181  17.791  0.00  0.00    +0.000 A 
ATOM      9  C   UNL     1       2.945   5.057  18.965  0.00  0.00    +0.000 A 
ATOM     10  H   UNL     1       1.608   3.130  21.211  0.00  0.00    +0.000 HD
ENDROOT
BRANCH   1  15
ATOM     11  C   UNL     1       0.497  11.400  19.183  0.00  0.00    +0.000 C 
ATOM     12  N   UNL     1       0.682   9.942  19.250  0.00  0.00    +0.000 NA
ATOM     13  C   UNL     1       1.718   9.510  18.286  0.00  0.00    +0.000 C 
ATOM     14  C   UNL     1       1.851   7.976  18.288  0.00  0.00    +0.000 C 
ATOM     15  C   UNL     1       2.196   7.490  19.702  0.00  0.00    +0.000 C 
ATOM     16  C   UNL     1       1.177   8.017  20.726  0.00  0.00    +0.000 C 
ATOM     17  C   UNL     1       1.048   9.543  20.623  0.00  0.00    +0.000 C 
ENDBRANCH   1  15
BRANCH   7  18
ATOM     18  N   UNL     1       5.003   4.204  15.938  0.00  0.00    +0.000 N 
ATOM     19  C   UNL     1       6.408   4.475  15.690  0.00  0.00    +0.000 C 
ATOM     20  N   UNL     1       7.311   4.628  16.597  0.00  0.00    +0.000 NA
ATOM     21  H   UNL     1       4.449   4.143  15.069  0.00  0.00    +0.000 HD
ATOM     22  H   UNL     1       7.225   4.593  17.601  0.00  0.00    +0.000 HD
BRANCH  19  23
ATOM     23  C   UNL     1       6.887   4.608  14.291  0.00  0.00    +0.000 A 
ATOM     24  C   UNL     1       6.424   3.875  13.210  0.00  0.00    +0.000 A 
ATOM     25  C   UNL     1       7.134   4.313  12.121  0.00  0.00    +0.000 A 
ATOM     26  C   UNL     1       7.991   5.285  12.590  0.00  0.00    +0.000 A 
ATOM     27  O   UNL     1       7.823   5.440  13.888  0.00  0.00    +0.000 OA
ENDBRANCH  19  23
ENDBRANCH   7  18
TORSDOF 3
ENDMDL
MODEL 2
REMARK VINA RESULT:      -7.9      0.717      1.222
REMARK  Name = 
REMARK  4 active torsions:
REMARK  status: ('A' for Active; 'I' for Inactive)
REMARK    1  A    between atoms: C_1  and  N_2
REMARK    2  A    between atoms: C_5  and  C_6
REMARK    3  A    between atoms: C_12  and  N_13
REMARK    4  A    between atoms: C_14  and  C_16
REMARK                            x       y       z     vdW  Elec       q    Type
REMARK                         _______ _______ _______ _____ _____    ______ ____
ROOT
ATOM      1  C   UNL     1       2.096   6.427  19.740  0.00  0.00    +0.000 A 
ATOM      2  C   UNL     1       1.743   5.827  20.944  0.00  0.00    +0.000 A 
ATOM      3  N   UNL     1       2.343   4.625  21.062  0.00  0.00    +0.000 N 
ATOM      4  C   UNL     1       3.073   4.454  19.948  0.00  0.00    +0.000 A 
ATOM      5  C   UNL     1       3.845   3.352  19.633  0.00  0.00    +0.000 A 
ATOM      6  C   UNL     1       4.542   3.342  18.417  0.00  0.00    +0.000 A 
ATOM      7  C   UNL     1       4.478   4.444  17.509  0.00  0.00    +0.000 A 
ATOM      8  C   UNL     1       3.658   5.553  17.886  0.00  0.00    +0.000 A 
ATOM      9  C   UNL     1       2.967   5.530  19.110  0.00  0.00    +0.000 A 
ATOM     10  H   UNL     1       2.249   3.956  21.859  0.00  0.00    +0.000 HD
ENDROOT
BRANCH   1  15
ATOM     11  C   UNL     1       1.273  11.992  18.570  0.00  0.00    +0.000 C 
ATOM     12  N   UNL     1       1.723  10.667  19.024  0.00  0.00    +0.000 NA
ATOM     13  C   UNL     1       0.701  10.048  19.898  0.00  0.00    +0.000 C 
ATOM     14  C   UNL     1       1.206   8.702  20.449  0.00  0.00    +0.000 C 
ATOM     15  C   UNL     1       1.555   7.766  19.284  0.00  0.00    +0.000 C 
ATOM     16  C   UNL     1       2.542   8.440  18.316  0.00  0.00    +0.000 C 
ATOM     17  C   UNL     1       2.006   9.804  17.860  0.00  0.00    +0.000 C 
ENDBRANCH   1  15
BRANCH   7  18
ATOM     18  N   UNL     1       5.169   4.528  16.234  0.00  0.00    +0.000 N 
ATOM     19  C   UNL     1       6.570   4.613  15.858  0.00  0.00    +0.000 C 
ATOM     20  N   UNL     1       7.563   4.652  16.678  0.00  0.00    +0.000 NA
ATOM     21  H   UNL     1       4.536   4.535  15.419  0.00  0.00    +0.000 HD
ATOM     22  H   UNL     1       7.564   4.632  17.686  0.00  0.00    +0.000 HD
BRANCH  19  23
ATOM     23  C   UNL     1       6.933   4.677  14.420  0.00  0.00    +0.000 A 
ATOM     24  C   UNL     1       6.383   3.894  13.417  0.00  0.00    +0.000 A 
ATOM     25  C   UNL     1       7.003   4.277  12.253  0.00  0.00    +0.000 A 
ATOM     26  C   UNL     1       7.896   5.267  12.605  0.00  0.00    +0.000 A 
ATOM     27  O   UNL     1       7.833   5.485  13.903  0.00  0.00    +0.000 OA
ENDBRANCH  19  23
ENDBRANCH   7  18
TORSDOF 3
ENDMDL
MODEL 3
REMARK VINA RESULT:      -7.4      3.390      7.434
REMARK  Name = 
REMARK  4 active torsions:
REMARK  status: ('A' for Active; 'I' for Inactive)
REMARK    1  A    between atoms: C_1  and  N_2
REMARK    2  A    between atoms: C_5  and  C_6
REMARK    3  A    between atoms: C_12  and  N_13
REMARK    4  A    between atoms: C_14  and  C_16
REMARK                            x       y       z     vdW  Elec       q    Type
REMARK                         _______ _______ _______ _____ _____    ______ ____
ROOT
ATOM      1  C   UNL     1       4.195   3.723  18.242  0.00  0.00    +0.000 A 
ATOM      2  C   UNL     1       4.085   2.367  17.948  0.00  0.00    +0.000 A 
ATOM      3  N   UNL     1       2.968   1.857  18.504  0.00  0.00    +0.000 N 
ATOM      4  C   UNL     1       2.366   2.870  19.147  0.00  0.00    +0.000 A 
ATOM      5  C   UNL     1       1.193   2.800  19.875  0.00  0.00    +0.000 A 
ATOM      6  C   UNL     1       0.710   3.964  20.487  0.00  0.00    +0.000 A 
ATOM      7  C   UNL     1       1.395   5.213  20.369  0.00  0.00    +0.000 A 
ATOM      8  C   UNL     1       2.606   5.222  19.609  0.00  0.00    +0.000 A 
ATOM      9  C   UNL     1       3.068   4.036  19.012  0.00  0.00    +0.000 A 
ATOM     10  H   UNL     1       2.642   0.866  18.451  0.00  0.00    +0.000 HD
ENDROOT
BRANCH   1  15
ATOM     11  C   UNL     1       7.989   7.957  17.411  0.00  0.00    +0.000 C 
ATOM     12  N   UNL     1       6.858   7.086  17.767  0.00  0.00    +0.000 NA
ATOM     13  C   UNL     1       6.180   6.597  16.545  0.00  0.00    +0.000 C 
ATOM     14  C   UNL     1       4.942   5.759  16.914  0.00  0.00    +0.000 C 
ATOM     15  C   UNL     1       5.363   4.581  17.803  0.00  0.00    +0.000 C 
ATOM     16  C   UNL     1       6.155   5.073  19.025  0.00  0.00    +0.000 C 
ATOM     17  C   UNL     1       7.333   5.954  18.588  0.00  0.00    +0.000 C 
ENDBRANCH   1  15
BRANCH   7  18
ATOM     18  N   UNL     1       0.967   6.469  20.959  0.00  0.00    +0.000 N 
ATOM     19  C   UNL     1       1.167   7.863  20.601  0.00  0.00    +0.000 C 
ATOM     20  N   UNL     1       1.850   8.285  19.593  0.00  0.00    +0.000 NA
ATOM     21  H   UNL     1       0.409   6.354  21.819  0.00  0.00    +0.000 HD
ATOM     22  H   UNL     1       2.352   7.761  18.893  0.00  0.00    +0.000 HD
BRANCH  19  23
ATOM     23  C   UNL     1       0.564   8.924  21.446  0.00  0.00    +0.000 A 
ATOM     24  C   UNL     1      -0.315   8.711  22.497  0.00  0.00    +0.000 A 
ATOM     25  C   UNL     1      -0.621   9.954  22.994  0.00  0.00    +0.000 A 
ATOM     26  C   UNL     1       0.082  10.856  22.225  0.00  0.00    +0.000 A 
ATOM     27  O   UNL     1       0.780  10.214  21.309  0.00  0.00    +0.000 OA
ENDBRANCH  19  23
ENDBRANCH   7  18
TORSDOF 3
ENDMDL
MODEL 4
REMARK VINA RESULT:      -7.2      2.838      7.874
REMARK  Name = 
REMARK  4 active torsions:
REMARK  status: ('A' for Active; 'I' for Inactive)
REMARK    1  A    between atoms: C_1  and  N_2
REMARK    2  A    between atoms: C_5  and  C_6
REMARK    3  A    between atoms: C_12  and  N_13
REMARK    4  A    between atoms: C_14  and  C_16
REMARK                            x       y       z     vdW  Elec       q    Type
REMARK                         _______ _______ _______ _____ _____    ______ ____
ROOT
ATOM      1  C   UNL     1       4.257   4.369  18.158  0.00  0.00    +0.000 A 
ATOM      2  C   UNL     1       4.345   3.061  18.625  0.00  0.00    +0.000 A 
ATOM      3  N   UNL     1       3.567   2.899  19.714  0.00  0.00    +0.000 N 
ATOM      4  C   UNL     1       2.986   4.087  19.946  0.00  0.00    +0.000 A 
ATOM      5  C   UNL     1       2.115   4.388  20.977  0.00  0.00    +0.000 A 
ATOM      6  C   UNL     1       1.605   5.690  21.068  0.00  0.00    +0.000 A 
ATOM      7  C   UNL     1       1.956   6.701  20.121  0.00  0.00    +0.000 A 
ATOM      8  C   UNL     1       2.865   6.332  19.081  0.00  0.00    +0.000 A 
ATOM      9  C   UNL     1       3.365   5.019  19.019  0.00  0.00    +0.000 A 
ATOM     10  H   UNL     1       3.450   2.024  20.271  0.00  0.00    +0.000 HD
ENDROOT
BRANCH   1  15
ATOM     11  C   UNL     1       7.684   4.975  13.586  0.00  0.00    +0.000 C 
ATOM     12  N   UNL     1       6.926   4.543  14.771  0.00  0.00    +0.000 NA
ATOM     13  C   UNL     1       7.286   5.371  15.943  0.00  0.00    +0.000 C 
ATOM     14  C   UNL     1       6.563   4.864  17.204  0.00  0.00    +0.000 C 
ATOM     15  C   UNL     1       5.045   4.889  16.974  0.00  0.00    +0.000 C 
ATOM     16  C   UNL     1       4.672   4.112  15.701  0.00  0.00    +0.000 C 
ATOM     17  C   UNL     1       5.477   4.625  14.499  0.00  0.00    +0.000 C 
ENDBRANCH   1  15
BRANCH   7  18
ATOM     18  N   UNL     1       1.472   8.071  20.130  0.00  0.00    +0.000 N 
ATOM     19  C   UNL     1       1.338   9.079  21.168  0.00  0.00    +0.000 C 
ATOM     20  N   UNL     1       1.641   8.917  22.410  0.00  0.00    +0.000 NA
ATOM     21  H   UNL     1       1.147   8.401  19.208  0.00  0.00    +0.000 HD
ATOM     22  H   UNL     1       2.010   8.106  22.880  0.00  0.00    +0.000 HD
BRANCH  19  23
ATOM     23  C   UNL     1       0.800  10.416  20.816  0.00  0.00    +0.000 A 
ATOM     24  C   UNL     1       0.153  10.736  19.632  0.00  0.00    +0.000 A 
ATOM     25  C   UNL     1      -0.172  12.067  19.724  0.00  0.00    +0.000 A 
ATOM     26  C   UNL     1       0.292  12.489  20.952  0.00  0.00    +0.000 A 
ATOM     27  O   UNL     1       0.868  11.484  21.581  0.00  0.00    +0.000 OA
ENDBRANCH  19  23
ENDBRANCH   7  18
TORSDOF 3
ENDMDL
MODEL 5
REMARK VINA RESULT:      -7.1      4.098      5.215
REMARK  Name = 
REMARK  4 active torsions:
REMARK  status: ('A' for Active; 'I' for Inactive)
REMARK    1  A    between atoms: C_1  and  N_2
REMARK    2  A    between atoms: C_5  and  C_6
REMARK    3  A    between atoms: C_12  and  N_13
REMARK    4  A    between atoms: C_14  and  C_16
REMARK                            x       y       z     vdW  Elec       q    Type
REMARK                         _______ _______ _______ _____ _____    ______ ____
ROOT
ATOM      1  C   UNL     1       3.645   5.238  17.971  0.00  0.00    +0.000 A 
ATOM      2  C   UNL     1       3.591   3.909  17.559  0.00  0.00    +0.000 A 
ATOM      3  N   UNL     1       4.720   3.576  16.904  0.00  0.00    +0.000 N 
ATOM      4  C   UNL     1       5.492   4.674  16.893  0.00  0.00    +0.000 A 
ATOM      5  C   UNL     1       6.740   4.796  16.312  0.00  0.00    +0.000 A 
ATOM      6  C   UNL     1       7.405   6.026  16.394  0.00  0.00    +0.000 A 
ATOM      7  C   UNL     1       6.828   7.146  17.070  0.00  0.00    +0.000 A 
ATOM      8  C   UNL     1       5.532   6.962  17.646  0.00  0.00    +0.000 A 
ATOM      9  C   UNL     1       4.888   5.717  17.540  0.00  0.00    +0.000 A 
ATOM     10  H   UNL     1       4.944   2.648  16.479  0.00  0.00    +0.000 HD
ENDROOT
BRANCH   1  15
ATOM     11  C   UNL     1       0.428   8.503  21.436  0.00  0.00    +0.000 C 
ATOM     12  N   UNL     1       1.480   7.762  20.722  0.00  0.00    +0.000 NA
ATOM     13  C   UNL     1       1.252   6.304  20.838  0.00  0.00    +0.000 C 
ATOM     14  C   UNL     1       2.399   5.524  20.170  0.00  0.00    +0.000 C 
ATOM     15  C   UNL     1       2.512   5.935  18.695  0.00  0.00    +0.000 C 
ATOM     16  C   UNL     1       2.651   7.460  18.561  0.00  0.00    +0.000 C 
ATOM     17  C   UNL     1       1.513   8.174  19.305  0.00  0.00    +0.000 C 
ENDBRANCH   1  15
BRANCH   7  18
ATOM     18  N   UNL     1       7.443   8.454  17.214  0.00  0.00    +0.000 N 
ATOM     19  C   UNL     1       8.374   9.023  18.172  0.00  0.00    +0.000 C 
ATOM     20  N   UNL     1       8.865   8.408  19.192  0.00  0.00    +0.000 NA
ATOM     21  H   UNL     1       7.155   9.129  16.487  0.00  0.00    +0.000 HD
ATOM     22  H   UNL     1       8.709   7.463  19.509  0.00  0.00    +0.000 HD
BRANCH  19  23
ATOM     23  C   UNL     1       8.814  10.431  18.010  0.00  0.00    +0.000 A 
ATOM     24  C   UNL     1      10.072  10.921  18.324  0.00  0.00    +0.000 A 
ATOM     25  C   UNL     1      10.045  12.260  18.023  0.00  0.00    +0.000 A 
ATOM     26  C   UNL     1       8.778  12.518  17.545  0.00  0.00    +0.000 A 
ATOM     27  O   UNL     1       8.065  11.409  17.549  0.00  0.00    +0.000 OA
ENDBRANCH  19  23
ENDBRANCH   7  18
TORSDOF 3
ENDMDL
MODEL 6
REMARK VINA RESULT:      -7.0      4.262      5.220
REMARK  Name = 
REMARK  4 active torsions:
REMARK  status: ('A' for Active; 'I' for Inactive)
REMARK    1  A    between atoms: C_1  and  N_2
REMARK    2  A    between atoms: C_5  and  C_6
REMARK    3  A    between atoms: C_12  and  N_13
REMARK    4  A    between atoms: C_14  and  C_16
REMARK                            x       y       z     vdW  Elec       q    Type
REMARK                         _______ _______ _______ _____ _____    ______ ____
ROOT
ATOM      1  C   UNL     1       3.546   6.028  17.961  0.00  0.00    +0.000 A 
ATOM      2  C   UNL     1       3.414   4.663  17.725  0.00  0.00    +0.000 A 
ATOM      3  N   UNL     1       4.579   4.150  17.281  0.00  0.00    +0.000 N 
ATOM      4  C   UNL     1       5.450   5.170  17.233  0.00  0.00    +0.000 A 
ATOM      5  C   UNL     1       6.768   5.107  16.818  0.00  0.00    +0.000 A 
ATOM      6  C   UNL     1       7.534   6.280  16.829  0.00  0.00    +0.000 A 
ATOM      7  C   UNL     1       6.989   7.527  17.265  0.00  0.00    +0.000 A 
ATOM      8  C   UNL     1       5.619   7.532  17.675  0.00  0.00    +0.000 A 
ATOM      9  C   UNL     1       4.875   6.340  17.647  0.00  0.00    +0.000 A 
ATOM     10  H   UNL     1       4.763   3.156  17.018  0.00  0.00    +0.000 HD
ENDROOT
BRANCH   1  15
ATOM     11  C   UNL     1       0.287  10.282  20.031  0.00  0.00    +0.000 C 
ATOM     12  N   UNL     1       1.351   9.361  19.602  0.00  0.00    +0.000 NA
ATOM     13  C   UNL     1       1.238   8.073  20.321  0.00  0.00    +0.000 C 
ATOM     14  C   UNL     1       2.402   7.140  19.942  0.00  0.00    +0.000 C 
ATOM     15  C   UNL     1       2.406   6.910  18.425  0.00  0.00    +0.000 C 
ATOM     16  C   UNL     1       2.423   8.248  17.668  0.00  0.00    +0.000 C 
ATOM     17  C   UNL     1       1.278   9.152  18.142  0.00  0.00    +0.000 C 
ENDBRANCH   1  15
BRANCH   7  18
ATOM     18  N   UNL     1       7.706   8.789  17.318  0.00  0.00    +0.000 N 
ATOM     19  C   UNL     1       8.594   9.396  18.295  0.00  0.00    +0.000 C 
ATOM     20  N   UNL     1       8.930   8.874  19.424  0.00  0.00    +0.000 NA
ATOM     21  H   UNL     1       7.550   9.390  16.493  0.00  0.00    +0.000 HD
ATOM     22  H   UNL     1       8.659   7.992  19.831  0.00  0.00    +0.000 HD
BRANCH  19  23
ATOM     23  C   UNL     1       9.175  10.733  18.017  0.00  0.00    +0.000 A 
ATOM     24  C   UNL     1       8.451  11.887  17.765  0.00  0.00    +0.000 A 
ATOM     25  C   UNL     1       9.377  12.880  17.561  0.00  0.00    +0.000 A 
ATOM     26  C   UNL     1      10.612  12.284  17.697  0.00  0.00    +0.000 A 
ATOM     27  O   UNL     1      10.462  11.003  17.969  0.00  0.00    +0.000 OA
ENDBRANCH  19  23
ENDBRANCH   7  18
TORSDOF 3
ENDMDL
MODEL 7
REMARK VINA RESULT:      -7.0      2.288      6.912
REMARK  Name = 
REMARK  4 active torsions:
REMARK  status: ('A' for Active; 'I' for Inactive)
REMARK    1  A    between atoms: C_1  and  N_2
REMARK    2  A    between atoms: C_5  and  C_6
REMARK    3  A    between atoms: C_12  and  N_13
REMARK    4  A    between atoms: C_14  and  C_16
REMARK                            x       y       z     vdW  Elec       q    Type
REMARK                         _______ _______ _______ _____ _____    ______ ____
ROOT
ATOM      1  C   UNL     1       4.139   3.552  18.490  0.00  0.00    +0.000 A 
ATOM      2  C   UNL     1       3.938   2.358  19.176  0.00  0.00    +0.000 A 
ATOM      3  N   UNL     1       3.081   2.545  20.200  0.00  0.00    +0.000 N 
ATOM      4  C   UNL     1       2.734   3.841  20.174  0.00  0.00    +0.000 A 
ATOM      5  C   UNL     1       1.882   4.482  21.054  0.00  0.00    +0.000 A 
ATOM      6  C   UNL     1       1.636   5.850  20.877  0.00  0.00    +0.000 A 
ATOM      7  C   UNL     1       2.235   6.588  19.810  0.00  0.00    +0.000 A 
ATOM      8  C   UNL     1       3.112   5.873  18.936  0.00  0.00    +0.000 A 
ATOM      9  C   UNL     1       3.344   4.502  19.143  0.00  0.00    +0.000 A 
ATOM     10  H   UNL     1       2.759   1.823  20.884  0.00  0.00    +0.000 HD
ENDROOT
BRANCH   1  15
ATOM     11  C   UNL     1       7.464   5.480  14.220  0.00  0.00    +0.000 C 
ATOM     12  N   UNL     1       6.523   5.274  15.332  0.00  0.00    +0.000 NA
ATOM     13  C   UNL     1       5.428   4.369  14.919  0.00  0.00    +0.000 C 
ATOM     14  C   UNL     1       4.394   4.223  16.050  0.00  0.00    +0.000 C 
ATOM     15  C   UNL     1       5.083   3.691  17.314  0.00  0.00    +0.000 C 
ATOM     16  C   UNL     1       6.285   4.571  17.694  0.00  0.00    +0.000 C 
ATOM     17  C   UNL     1       7.239   4.727  16.502  0.00  0.00    +0.000 C 
ENDBRANCH   1  15
BRANCH   7  18
ATOM     18  N   UNL     1       2.033   8.001  19.543  0.00  0.00    +0.000 N 
ATOM     19  C   UNL     1       2.110   8.815  18.342  0.00  0.00    +0.000 C 
ATOM     20  N   UNL     1       2.423   8.386  17.168  0.00  0.00    +0.000 NA
ATOM     21  H   UNL     1       1.790   8.551  20.383  0.00  0.00    +0.000 HD
ATOM     22  H   UNL     1       2.663   7.454  16.868  0.00  0.00    +0.000 HD
BRANCH  19  23
ATOM     23  C   UNL     1       1.825  10.269  18.430  0.00  0.00    +0.000 A 
ATOM     24  C   UNL     1       0.739  10.837  19.077  0.00  0.00    +0.000 A 
ATOM     25  C   UNL     1       0.865  12.194  18.910  0.00  0.00    +0.000 A 
ATOM     26  C   UNL     1       2.014  12.383  18.173  0.00  0.00    +0.000 A 
ATOM     27  O   UNL     1       2.566  11.218  17.900  0.00  0.00    +0.000 OA
ENDBRANCH  19  23
ENDBRANCH   7  18
TORSDOF 3
ENDMDL
MODEL 8
REMARK VINA RESULT:      -7.0      2.660      7.649
REMARK  Name = 
REMARK  4 active torsions:
REMARK  status: ('A' for Active; 'I' for Inactive)
REMARK    1  A    between atoms: C_1  and  N_2
REMARK    2  A    between atoms: C_5  and  C_6
REMARK    3  A    between atoms: C_12  and  N_13
REMARK    4  A    between atoms: C_14  and  C_16
REMARK                            x       y       z     vdW  Elec       q    Type
REMARK                         _______ _______ _______ _____ _____    ______ ____
ROOT
ATOM      1  C   UNL     1       4.005   3.455  17.766  0.00  0.00    +0.000 A 
ATOM      2  C   UNL     1       4.049   2.067  17.846  0.00  0.00    +0.000 A 
ATOM      3  N   UNL     1       3.313   1.635  18.890  0.00  0.00    +0.000 N 
ATOM      4  C   UNL     1       2.802   2.730  19.474  0.00  0.00    +0.000 A 
ATOM      5  C   UNL     1       1.994   2.762  20.596  0.00  0.00    +0.000 A 
ATOM      6  C   UNL     1       1.553   4.003  21.073  0.00  0.00    +0.000 A 
ATOM      7  C   UNL     1       1.910   5.225  20.425  0.00  0.00    +0.000 A 
ATOM      8  C   UNL     1       2.753   5.130  19.273  0.00  0.00    +0.000 A 
ATOM      9  C   UNL     1       3.184   3.870  18.822  0.00  0.00    +0.000 A 
ATOM     10  H   UNL     1       3.178   0.643  19.189  0.00  0.00    +0.000 HD
ENDROOT
BRANCH   1  15
ATOM     11  C   UNL     1       7.887   5.490  14.051  0.00  0.00    +0.000 C 
ATOM     12  N   UNL     1       7.114   4.780  15.082  0.00  0.00    +0.000 NA
ATOM     13  C   UNL     1       6.741   5.706  16.175  0.00  0.00    +0.000 C 
ATOM     14  C   UNL     1       6.011   4.947  17.299  0.00  0.00    +0.000 C 
ATOM     15  C   UNL     1       4.764   4.257  16.730  0.00  0.00    +0.000 C 
ATOM     16  C   UNL     1       5.130   3.368  15.529  0.00  0.00    +0.000 C 
ATOM     17  C   UNL     1       5.911   4.172  14.481  0.00  0.00    +0.000 C 
ENDBRANCH   1  15
BRANCH   7  18
ATOM     18  N   UNL     1       1.496   6.554  20.840  0.00  0.00    +0.000 N 
ATOM     19  C   UNL     1       1.565   7.865  20.218  0.00  0.00    +0.000 C 
ATOM     20  N   UNL     1       2.080   8.118  19.064  0.00  0.00    +0.000 NA
ATOM     21  H   UNL     1       1.066   6.579  21.778  0.00  0.00    +0.000 HD
ATOM     22  H   UNL     1       2.512   7.492  18.402  0.00  0.00    +0.000 HD
BRANCH  19  23
ATOM     23  C   UNL     1       1.022   9.042  20.941  0.00  0.00    +0.000 A 
ATOM     24  C   UNL     1       0.412   9.009  22.185  0.00  0.00    +0.000 A 
ATOM     25  C   UNL     1       0.063  10.306  22.471  0.00  0.00    +0.000 A 
ATOM     26  C   UNL     1       0.474  11.059  21.392  0.00  0.00    +0.000 A 
ATOM     27  O   UNL     1       1.042  10.279  20.494  0.00  0.00    +0.000 OA
ENDBRANCH  19  23
ENDBRANCH   7  18
TORSDOF 3
ENDMDL
MODEL 9
REMARK VINA RESULT:      -7.0      2.675      7.620
REMARK  Name = 
REMARK  4 active torsions:
REMARK  status: ('A' for Active; 'I' for Inactive)
REMARK    1  A    between atoms: C_1  and  N_2
REMARK    2  A    between atoms: C_5  and  C_6
REMARK    3  A    between atoms: C_12  and  N_13
REMARK    4  A    between atoms: C_14  and  C_16
REMARK                            x       y       z     vdW  Elec       q    Type
REMARK                         _______ _______ _______ _____ _____    ______ ____
ROOT
ATOM      1  C   UNL     1       4.010   4.736  17.969  0.00  0.00    +0.000 A 
ATOM      2  C   UNL     1       4.017   3.460  18.523  0.00  0.00    +0.000 A 
ATOM      3  N   UNL     1       3.265   3.430  19.641  0.00  0.00    +0.000 N 
ATOM      4  C   UNL     1       2.777   4.670  19.805  0.00  0.00    +0.000 A 
ATOM      5  C   UNL     1       1.963   5.104  20.834  0.00  0.00    +0.000 A 
ATOM      6  C   UNL     1       1.551   6.442  20.849  0.00  0.00    +0.000 A 
ATOM      7  C   UNL     1       1.944   7.358  19.824  0.00  0.00    +0.000 A 
ATOM      8  C   UNL     1       2.791   6.854  18.789  0.00  0.00    +0.000 A 
ATOM      9  C   UNL     1       3.193   5.507  18.806  0.00  0.00    +0.000 A 
ATOM     10  H   UNL     1       3.102   2.605  20.261  0.00  0.00    +0.000 HD
ENDROOT
BRANCH   1  15
ATOM     11  C   UNL     1       7.736   4.990  13.604  0.00  0.00    +0.000 C 
ATOM     12  N   UNL     1       6.959   4.700  14.819  0.00  0.00    +0.000 NA
ATOM     13  C   UNL     1       6.974   5.867  15.730  0.00  0.00    +0.000 C 
ATOM     14  C   UNL     1       6.239   5.536  17.041  0.00  0.00    +0.000 C 
ATOM     15  C   UNL     1       4.796   5.115  16.732  0.00  0.00    +0.000 C 
ATOM     16  C   UNL     1       4.768   3.967  15.709  0.00  0.00    +0.000 C 
ATOM     17  C   UNL     1       5.574   4.339  14.457  0.00  0.00    +0.000 C 
ENDBRANCH   1  15
BRANCH   7  18
ATOM     18  N   UNL     1       1.560   8.758  19.750  0.00  0.00    +0.000 N 
ATOM     19  C   UNL     1       1.452   9.710  18.659  0.00  0.00    +0.000 C 
ATOM     20  N   UNL     1       1.724   9.465  17.423  0.00  0.00    +0.000 NA
ATOM     21  H   UNL     1       1.318   9.170  20.666  0.00  0.00    +0.000 HD
ATOM     22  H   UNL     1       2.047   8.612  16.994  0.00  0.00    +0.000 HD
BRANCH  19  23
ATOM     23  C   UNL     1       1.009  11.097  18.946  0.00  0.00    +0.000 A 
ATOM     24  C   UNL     1       1.715  12.248  18.633  0.00  0.00    +0.000 A 
ATOM     25  C   UNL     1       0.948  13.297  19.074  0.00  0.00    +0.000 A 
ATOM     26  C   UNL     1      -0.181  12.736  19.633  0.00  0.00    +0.000 A 
ATOM     27  O   UNL     1      -0.118  11.422  19.543  0.00  0.00    +0.000 OA
ENDBRANCH  19  23
ENDBRANCH   7  18
TORSDOF 3
ENDMDL
