MODEL 1
REMARK VINA RESULT:      -7.7      0.000      0.000
REMARK  Name = 
REMARK  1 active torsions:
REMARK  status: ('A' for Active; 'I' for Inactive)
REMARK    1  A    between atoms: C_12  and  C_13
REMARK                            x       y       z     vdW  Elec       q    Type
REMARK                         _______ _______ _______ _____ _____    ______ ____
ROOT
ATOM      1  O   UNL     1      -3.061  11.472  17.202  0.00  0.00    +0.000 OA
ATOM      2  C   UNL     1      -3.588  11.783  18.284  0.00  0.00    +0.000 C 
ATOM      3  N   UNL     1      -4.949  12.082  18.306  0.00  0.00    +0.000 N 
ATOM      4  C   UNL     1      -5.676  12.165  17.031  0.00  0.00    +0.000 C 
ATOM      5  C   UNL     1      -6.514  13.448  16.961  0.00  0.00    +0.000 C 
ATOM      6  C   UNL     1      -7.391  13.672  18.199  0.00  0.00    +0.000 C 
ATOM      7  C   UNL     1      -6.621  13.419  19.486  0.00  0.00    +0.000 C 
ATOM      8  C   UNL     1      -5.876  12.076  19.438  0.00  0.00    +0.000 C 
ATOM      9  N   UNL     1      -2.816  11.763  19.459  0.00  0.00    +0.000 N 
ATOM     10  C   UNL     1      -1.569  11.013  19.318  0.00  0.00    +0.000 C 
ATOM     11  C   UNL     1      -0.815  10.796  20.574  0.00  0.00    +0.000 A 
ATOM     12  C   UNL     1       0.346  10.113  20.875  0.00  0.00    +0.000 A 
ATOM     13  N   UNL     1       0.605  10.182  22.225  0.00  0.00    +0.000 NA
ATOM     14  C   UNL     1      -0.358  10.928  22.725  0.00  0.00    +0.000 A 
ATOM     15  N   UNL     1      -1.249  11.321  21.761  0.00  0.00    +0.000 N 
ATOM     16  C   UNL     1      -2.352  12.179  21.852  0.00  0.00    +0.000 A 
ATOM     17  C   UNL     1      -2.778  12.705  23.078  0.00  0.00    +0.000 A 
ATOM     18  C   UNL     1      -3.830  13.617  23.096  0.00  0.00    +0.000 A 
ATOM     19  C   UNL     1      -4.292  14.138  21.895  0.00  0.00    +0.000 A 
ATOM     20  C   UNL     1      -3.769  13.670  20.687  0.00  0.00    +0.000 A 
ATOM     21  C   UNL     1      -2.977  12.537  20.650  0.00  0.00    +0.000 A 
ENDROOT
BRANCH  12  22
ATOM     22  C   UNL     1       1.151   9.347  19.939  0.00  0.00    +0.000 A 
ATOM     23  C   UNL     1       1.399   9.792  18.631  0.00  0.00    +0.000 A 
ATOM     24  C   UNL     1       2.032   8.968  17.705  0.00  0.00    +0.000 A 
ATOM     25  C   UNL     1       2.476   7.708  18.090  0.00  0.00    +0.000 A 
ATOM     26  C   UNL     1       2.308   7.283  19.407  0.00  0.00    +0.000 A 
ATOM     27  C   UNL     1       1.650   8.099  20.328  0.00  0.00    +0.000 A 
ENDBRANCH  12  22
TORSDOF 1
ENDMDL
MODEL 2
REMARK VINA RESULT:      -7.5      4.169      9.463
REMARK  Name = 
REMARK  1 active torsions:
REMARK  status: ('A' for Active; 'I' for Inactive)
REMARK    1  A    between atoms: C_12  and  C_13
REMARK                            x       y       z     vdW  Elec       q    Type
REMARK                         _______ _______ _______ _____ _____    ______ ____
ROOT
ATOM      1  O   UNL     1       1.660   4.786  21.247  0.00  0.00    +0.000 OA
ATOM      2  C   UNL     1       2.127   4.837  20.096  0.00  0.00    +0.000 C 
ATOM      3  N   UNL     1       2.348   3.645  19.408  0.00  0.00    +0.000 N 
ATOM      4  C   UNL     1       2.166   2.372  20.120  0.00  0.00    +0.000 C 
ATOM      5  C   UNL     1       3.368   1.445  19.901  0.00  0.00    +0.000 C 
ATOM      6  C   UNL     1       3.757   1.289  18.426  0.00  0.00    +0.000 C 
ATOM      7  C   UNL     1       3.777   2.628  17.705  0.00  0.00    +0.000 C 
ATOM      8  C   UNL     1       2.489   3.425  17.968  0.00  0.00    +0.000 C 
ATOM      9  N   UNL     1       2.355   6.089  19.500  0.00  0.00    +0.000 N 
ATOM     10  C   UNL     1       1.662   7.186  20.175  0.00  0.00    +0.000 C 
ATOM     11  C   UNL     1       1.712   8.491  19.477  0.00  0.00    +0.000 A 
ATOM     12  C   UNL     1       1.158   9.727  19.741  0.00  0.00    +0.000 A 
ATOM     13  N   UNL     1       1.476  10.618  18.741  0.00  0.00    +0.000 NA
ATOM     14  C   UNL     1       2.244   9.945  17.910  0.00  0.00    +0.000 A 
ATOM     15  N   UNL     1       2.412   8.646  18.311  0.00  0.00    +0.000 N 
ATOM     16  C   UNL     1       3.209   7.632  17.766  0.00  0.00    +0.000 A 
ATOM     17  C   UNL     1       3.918   7.813  16.572  0.00  0.00    +0.000 A 
ATOM     18  C   UNL     1       4.759   6.799  16.122  0.00  0.00    +0.000 A 
ATOM     19  C   UNL     1       5.035   5.728  16.962  0.00  0.00    +0.000 A 
ATOM     20  C   UNL     1       4.393   5.631  18.198  0.00  0.00    +0.000 A 
ATOM     21  C   UNL     1       3.316   6.444  18.503  0.00  0.00    +0.000 A 
ENDROOT
BRANCH  12  22
ATOM     22  C   UNL     1       0.285  10.049  20.858  0.00  0.00    +0.000 A 
ATOM     23  C   UNL     1      -0.635  11.106  20.804  0.00  0.00    +0.000 A 
ATOM     24  C   UNL     1      -1.340  11.498  21.938  0.00  0.00    +0.000 A 
ATOM     25  C   UNL     1      -1.175  10.800  23.130  0.00  0.00    +0.000 A 
ATOM     26  C   UNL     1      -0.324   9.697  23.179  0.00  0.00    +0.000 A 
ATOM     27  C   UNL     1       0.402   9.321  22.048  0.00  0.00    +0.000 A 
ENDBRANCH  12  22
TORSDOF 1
ENDMDL
MODEL 3
REMARK VINA RESULT:      -7.5      4.157      9.103
REMARK  Name = 
REMARK  1 active torsions:
REMARK  status: ('A' for Active; 'I' for Inactive)
REMARK    1  A    between atoms: C_12  and  C_13
REMARK                            x       y       z     vdW  Elec       q    Type
REMARK                         _______ _______ _______ _____ _____    ______ ____
ROOT
ATOM      1  O   UNL     1       3.584   8.080  16.264  0.00  0.00    +0.000 OA
ATOM      2  C   UNL     1       3.720   7.171  17.101  0.00  0.00    +0.000 C 
ATOM      3  N   UNL     1       4.739   6.237  16.918  0.00  0.00    +0.000 N 
ATOM      4  C   UNL     1       5.515   6.271  15.670  0.00  0.00    +0.000 C 
ATOM      5  C   UNL     1       5.615   4.872  15.049  0.00  0.00    +0.000 C 
ATOM      6  C   UNL     1       6.070   3.795  16.042  0.00  0.00    +0.000 C 
ATOM      7  C   UNL     1       5.338   3.911  17.370  0.00  0.00    +0.000 C 
ATOM      8  C   UNL     1       5.365   5.353  17.901  0.00  0.00    +0.000 C 
ATOM      9  N   UNL     1       2.890   7.148  18.236  0.00  0.00    +0.000 N 
ATOM     10  C   UNL     1       2.208   8.419  18.479  0.00  0.00    +0.000 C 
ATOM     11  C   UNL     1       1.478   8.509  19.763  0.00  0.00    +0.000 A 
ATOM     12  C   UNL     1       0.771   9.521  20.381  0.00  0.00    +0.000 A 
ATOM     13  N   UNL     1       0.310   9.103  21.609  0.00  0.00    +0.000 NA
ATOM     14  C   UNL     1       0.694   7.848  21.713  0.00  0.00    +0.000 A 
ATOM     15  N   UNL     1       1.412   7.443  20.619  0.00  0.00    +0.000 N 
ATOM     16  C   UNL     1       1.924   6.180  20.296  0.00  0.00    +0.000 A 
ATOM     17  C   UNL     1       1.846   5.102  21.187  0.00  0.00    +0.000 A 
ATOM     18  C   UNL     1       2.298   3.851  20.779  0.00  0.00    +0.000 A 
ATOM     19  C   UNL     1       2.621   3.652  19.444  0.00  0.00    +0.000 A 
ATOM     20  C   UNL     1       2.586   4.727  18.553  0.00  0.00    +0.000 A 
ATOM     21  C   UNL     1       2.468   6.026  19.013  0.00  0.00    +0.000 A 
ENDROOT
BRANCH  12  22
ATOM     22  C   UNL     1       0.597  10.872  19.873  0.00  0.00    +0.000 A 
ATOM     23  C   UNL     1       1.307  11.962  20.399  0.00  0.00    +0.000 A 
ATOM     24  C   UNL     1       1.004  13.264  20.012  0.00  0.00    +0.000 A 
ATOM     25  C   UNL     1       0.026  13.490  19.050  0.00  0.00    +0.000 A 
ATOM     26  C   UNL     1      -0.632  12.412  18.460  0.00  0.00    +0.000 A 
ATOM     27  C   UNL     1      -0.347  11.109  18.868  0.00  0.00    +0.000 A 
ENDBRANCH  12  22
TORSDOF 1
ENDMDL
MODEL 4
REMARK VINA RESULT:      -7.5      3.526      5.932
REMARK  Name = 
REMARK  1 active torsions:
REMARK  status: ('A' for Active; 'I' for Inactive)
REMARK    1  A    between atoms: C_12  and  C_13
REMARK                            x       y       z     vdW  Elec       q    Type
REMARK                         _______ _______ _______ _____ _____    ______ ____
ROOT
ATOM      1  O   UNL     1      -1.909  13.665  21.398  0.00  0.00    +0.000 OA
ATOM      2  C   UNL     1      -3.015  14.010  21.851  0.00  0.00    +0.000 C 
ATOM      3  N   UNL     1      -3.077  15.114  22.700  0.00  0.00    +0.000 N 
ATOM      4  C   UNL     1      -1.822  15.734  23.148  0.00  0.00    +0.000 C 
ATOM      5  C   UNL     1      -1.826  15.944  24.667  0.00  0.00    +0.000 C 
ATOM      6  C   UNL     1      -3.090  16.643  25.183  0.00  0.00    +0.000 C 
ATOM      7  C   UNL     1      -4.349  16.056  24.563  0.00  0.00    +0.000 C 
ATOM      8  C   UNL     1      -4.226  15.956  23.034  0.00  0.00    +0.000 C 
ATOM      9  N   UNL     1      -4.172  13.322  21.445  0.00  0.00    +0.000 N 
ATOM     10  C   UNL     1      -3.972  12.514  20.243  0.00  0.00    +0.000 C 
ATOM     11  C   UNL     1      -5.202  11.927  19.664  0.00  0.00    +0.000 A 
ATOM     12  C   UNL     1      -5.448  11.169  18.538  0.00  0.00    +0.000 A 
ATOM     13  N   UNL     1      -6.795  10.906  18.422  0.00  0.00    +0.000 NA
ATOM     14  C   UNL     1      -7.347  11.459  19.482  0.00  0.00    +0.000 A 
ATOM     15  N   UNL     1      -6.420  12.096  20.265  0.00  0.00    +0.000 N 
ATOM     16  C   UNL     1      -6.571  12.727  21.505  0.00  0.00    +0.000 A 
ATOM     17  C   UNL     1      -7.828  12.890  22.102  0.00  0.00    +0.000 A 
ATOM     18  C   UNL     1      -7.908  13.451  23.373  0.00  0.00    +0.000 A 
ATOM     19  C   UNL     1      -6.741  13.646  24.100  0.00  0.00    +0.000 A 
ATOM     20  C   UNL     1      -5.503  13.371  23.514  0.00  0.00    +0.000 A 
ATOM     21  C   UNL     1      -5.399  13.139  22.154  0.00  0.00    +0.000 A 
ENDROOT
BRANCH  12  22
ATOM     22  C   UNL     1      -4.463  10.767  17.548  0.00  0.00    +0.000 A 
ATOM     23  C   UNL     1      -3.443   9.849  17.842  0.00  0.00    +0.000 A 
ATOM     24  C   UNL     1      -2.418   9.606  16.933  0.00  0.00    +0.000 A 
ATOM     25  C   UNL     1      -2.428  10.235  15.694  0.00  0.00    +0.000 A 
ATOM     26  C   UNL     1      -3.477  11.089  15.355  0.00  0.00    +0.000 A 
ATOM     27  C   UNL     1      -4.491  11.352  16.277  0.00  0.00    +0.000 A 
ENDBRANCH  12  22
TORSDOF 1
ENDMDL
MODEL 5
REMARK VINA RESULT:      -7.4      3.408      5.872
REMARK  Name = 
REMARK  1 active torsions:
REMARK  status: ('A' for Active; 'I' for Inactive)
REMARK    1  A    between atoms: C_12  and  C_13
REMARK                            x       y       z     vdW  Elec       q    Type
REMARK                         _______ _______ _______ _____ _____    ______ ____
ROOT
ATOM      1  O   UNL     1      -1.630  13.300  21.536  0.00  0.00    +0.000 OA
ATOM      2  C   UNL     1      -2.720  13.678  21.999  0.00  0.00    +0.000 C 
ATOM      3  N   UNL     1      -2.729  14.705  22.942  0.00  0.00    +0.000 N 
ATOM      4  C   UNL     1      -1.446  15.197  23.465  0.00  0.00    +0.000 C 
ATOM      5  C   UNL     1      -1.470  15.273  24.996  0.00  0.00    +0.000 C 
ATOM      6  C   UNL     1      -2.697  16.007  25.551  0.00  0.00    +0.000 C 
ATOM      7  C   UNL     1      -3.978  15.563  24.861  0.00  0.00    +0.000 C 
ATOM      8  C   UNL     1      -3.828  15.589  23.331  0.00  0.00    +0.000 C 
ATOM      9  N   UNL     1      -3.911  13.108  21.515  0.00  0.00    +0.000 N 
ATOM     10  C   UNL     1      -3.738  12.397  20.249  0.00  0.00    +0.000 C 
ATOM     11  C   UNL     1      -4.990  11.947  19.601  0.00  0.00    +0.000 A 
ATOM     12  C   UNL     1      -5.261  11.309  18.407  0.00  0.00    +0.000 A 
ATOM     13  N   UNL     1      -6.619  11.148  18.246  0.00  0.00    +0.000 NA
ATOM     14  C   UNL     1      -7.157  11.642  19.343  0.00  0.00    +0.000 A 
ATOM     15  N   UNL     1      -6.208  12.144  20.194  0.00  0.00    +0.000 N 
ATOM     16  C   UNL     1      -6.345  12.673  21.483  0.00  0.00    +0.000 A 
ATOM     17  C   UNL     1      -7.601  12.866  22.071  0.00  0.00    +0.000 A 
ATOM     18  C   UNL     1      -7.672  13.318  23.386  0.00  0.00    +0.000 A 
ATOM     19  C   UNL     1      -6.512  13.369  24.146  0.00  0.00    +0.000 A 
ATOM     20  C   UNL     1      -5.282  13.064  23.558  0.00  0.00    +0.000 A 
ATOM     21  C   UNL     1      -5.163  12.946  22.185  0.00  0.00    +0.000 A 
ENDROOT
BRANCH  12  22
ATOM     22  C   UNL     1      -4.282  10.929  17.402  0.00  0.00    +0.000 A 
ATOM     23  C   UNL     1      -4.427  11.279  16.051  0.00  0.00    +0.000 A 
ATOM     24  C   UNL     1      -3.567  10.767  15.084  0.00  0.00    +0.000 A 
ATOM     25  C   UNL     1      -2.514   9.941  15.463  0.00  0.00    +0.000 A 
ATOM     26  C   UNL     1      -2.309   9.648  16.811  0.00  0.00    +0.000 A 
ATOM     27  C   UNL     1      -3.188  10.142  17.777  0.00  0.00    +0.000 A 
ENDBRANCH  12  22
TORSDOF 1
ENDMDL
MODEL 6
REMARK VINA RESULT:      -7.4      0.616      1.113
REMARK  Name = 
REMARK  1 active torsions:
REMARK  status: ('A' for Active; 'I' for Inactive)
REMARK    1  A    between atoms: C_12  and  C_13
REMARK                            x       y       z     vdW  Elec       q    Type
REMARK                         _______ _______ _______ _____ _____    ______ ____
ROOT
ATOM      1  O   UNL     1      -2.912  10.932  17.197  0.00  0.00    +0.000 OA
ATOM      2  C   UNL     1      -3.312  11.409  18.274  0.00  0.00    +0.000 C 
ATOM      3  N   UNL     1      -4.638  11.828  18.371  0.00  0.00    +0.000 N 
ATOM      4  C   UNL     1      -5.470  11.831  17.159  0.00  0.00    +0.000 C 
ATOM      5  C   UNL     1      -6.208  13.166  17.004  0.00  0.00    +0.000 C 
ATOM      6  C   UNL     1      -6.947  13.606  18.274  0.00  0.00    +0.000 C 
ATOM      7  C   UNL     1      -6.085  13.433  19.515  0.00  0.00    +0.000 C 
ATOM      8  C   UNL     1      -5.455  12.032  19.568  0.00  0.00    +0.000 C 
ATOM      9  N   UNL     1      -2.439  11.454  19.375  0.00  0.00    +0.000 N 
ATOM     10  C   UNL     1      -1.273  10.585  19.224  0.00  0.00    +0.000 C 
ATOM     11  C   UNL     1      -0.426  10.446  20.430  0.00  0.00    +0.000 A 
ATOM     12  C   UNL     1       0.700   9.701  20.715  0.00  0.00    +0.000 A 
ATOM     13  N   UNL     1       1.088   9.898  22.021  0.00  0.00    +0.000 NA
ATOM     14  C   UNL     1       0.236  10.779  22.504  0.00  0.00    +0.000 A 
ATOM     15  N   UNL     1      -0.707  11.138  21.577  0.00  0.00    +0.000 N 
ATOM     16  C   UNL     1      -1.726  12.095  21.654  0.00  0.00    +0.000 A 
ATOM     17  C   UNL     1      -1.995  12.792  22.839  0.00  0.00    +0.000 A 
ATOM     18  C   UNL     1      -2.966  13.789  22.833  0.00  0.00    +0.000 A 
ATOM     19  C   UNL     1      -3.494  14.210  21.621  0.00  0.00    +0.000 A 
ATOM     20  C   UNL     1      -3.123  13.564  20.439  0.00  0.00    +0.000 A 
ATOM     21  C   UNL     1      -2.429  12.368  20.473  0.00  0.00    +0.000 A 
ENDROOT
BRANCH  12  22
ATOM     22  C   UNL     1       1.354   8.766  19.814  0.00  0.00    +0.000 A 
ATOM     23  C   UNL     1       1.746   7.484  20.228  0.00  0.00    +0.000 A 
ATOM     24  C   UNL     1       2.514   6.670  19.400  0.00  0.00    +0.000 A 
ATOM     25  C   UNL     1       2.854   7.106  18.125  0.00  0.00    +0.000 A 
ATOM     26  C   UNL     1       2.405   8.345  17.669  0.00  0.00    +0.000 A 
ATOM     27  C   UNL     1       1.656   9.171  18.510  0.00  0.00    +0.000 A 
ENDBRANCH  12  22
TORSDOF 1
ENDMDL
MODEL 7
REMARK VINA RESULT:      -7.2      3.495      5.220
REMARK  Name = 
REMARK  1 active torsions:
REMARK  status: ('A' for Active; 'I' for Inactive)
REMARK    1  A    between atoms: C_12  and  C_13
REMARK                            x       y       z     vdW  Elec       q    Type
REMARK                         _______ _______ _______ _____ _____    ______ ____
ROOT
ATOM      1  O   UNL     1       2.237  11.334  17.735  0.00  0.00    +0.000 OA
ATOM      2  C   UNL     1       1.374  11.153  18.612  0.00  0.00    +0.000 C 
ATOM      3  N   UNL     1       0.378  12.114  18.782  0.00  0.00    +0.000 N 
ATOM      4  C   UNL     1       0.471  13.372  18.027  0.00  0.00    +0.000 C 
ATOM      5  C   UNL     1       0.266  14.580  18.948  0.00  0.00    +0.000 C 
ATOM      6  C   UNL     1      -0.983  14.469  19.832  0.00  0.00    +0.000 C 
ATOM      7  C   UNL     1      -1.104  13.091  20.463  0.00  0.00    +0.000 C 
ATOM      8  C   UNL     1      -0.934  11.979  19.416  0.00  0.00    +0.000 C 
ATOM      9  N   UNL     1       1.388   9.962  19.358  0.00  0.00    +0.000 N 
ATOM     10  C   UNL     1       2.203   8.910  18.751  0.00  0.00    +0.000 C 
ATOM     11  C   UNL     1       2.097   7.579  19.391  0.00  0.00    +0.000 A 
ATOM     12  C   UNL     1       2.642   6.344  19.103  0.00  0.00    +0.000 A 
ATOM     13  N   UNL     1       2.190   5.400  19.997  0.00  0.00    +0.000 NA
ATOM     14  C   UNL     1       1.419   6.061  20.836  0.00  0.00    +0.000 A 
ATOM     15  N   UNL     1       1.327   7.387  20.506  0.00  0.00    +0.000 N 
ATOM     16  C   UNL     1       0.688   8.438  21.175  0.00  0.00    +0.000 A 
ATOM     17  C   UNL     1      -0.096   8.219  22.315  0.00  0.00    +0.000 A 
ATOM     18  C   UNL     1      -0.639   9.311  22.986  0.00  0.00    +0.000 A 
ATOM     19  C   UNL     1      -0.227  10.591  22.637  0.00  0.00    +0.000 A 
ATOM     20  C   UNL     1       0.644  10.771  21.559  0.00  0.00    +0.000 A 
ATOM     21  C   UNL     1       0.916   9.732  20.687  0.00  0.00    +0.000 A 
ENDROOT
BRANCH  12  22
ATOM     22  C   UNL     1       3.502   6.035  17.972  0.00  0.00    +0.000 A 
ATOM     23  C   UNL     1       3.642   4.729  17.478  0.00  0.00    +0.000 A 
ATOM     24  C   UNL     1       4.592   4.432  16.505  0.00  0.00    +0.000 A 
ATOM     25  C   UNL     1       5.377   5.449  15.973  0.00  0.00    +0.000 A 
ATOM     26  C   UNL     1       5.195   6.764  16.396  0.00  0.00    +0.000 A 
ATOM     27  C   UNL     1       4.260   7.057  17.390  0.00  0.00    +0.000 A 
ENDBRANCH  12  22
TORSDOF 1
ENDMDL
MODEL 8
REMARK VINA RESULT:      -7.0      3.642      5.997
REMARK  Name = 
REMARK  1 active torsions:
REMARK  status: ('A' for Active; 'I' for Inactive)
REMARK    1  A    between atoms: C_12  and  C_13
REMARK                            x       y       z     vdW  Elec       q    Type
REMARK                         _______ _______ _______ _____ _____    ______ ____
ROOT
ATOM      1  O   UNL     1      -0.978   8.516  22.239  0.00  0.00    +0.000 OA
ATOM      2  C   UNL     1      -0.359   9.442  21.686  0.00  0.00    +0.000 C 
ATOM      3  N   UNL     1      -0.453  10.725  22.224  0.00  0.00    +0.000 N 
ATOM      4  C   UNL     1      -1.395  10.964  23.326  0.00  0.00    +0.000 C 
ATOM      5  C   UNL     1      -2.257  12.203  23.052  0.00  0.00    +0.000 C 
ATOM      6  C   UNL     1      -1.441  13.436  22.645  0.00  0.00    +0.000 C 
ATOM      7  C   UNL     1      -0.378  13.091  21.613  0.00  0.00    +0.000 C 
ATOM      8  C   UNL     1       0.445  11.867  22.044  0.00  0.00    +0.000 C 
ATOM      9  N   UNL     1       0.464   9.160  20.582  0.00  0.00    +0.000 N 
ATOM     10  C   UNL     1       0.783   7.739  20.447  0.00  0.00    +0.000 C 
ATOM     11  C   UNL     1       1.799   7.414  19.421  0.00  0.00    +0.000 A 
ATOM     12  C   UNL     1       2.403   6.237  19.027  0.00  0.00    +0.000 A 
ATOM     13  N   UNL     1       3.329   6.481  18.039  0.00  0.00    +0.000 NA
ATOM     14  C   UNL     1       3.257   7.776  17.809  0.00  0.00    +0.000 A 
ATOM     15  N   UNL     1       2.345   8.388  18.629  0.00  0.00    +0.000 N 
ATOM     16  C   UNL     1       1.906   9.717  18.653  0.00  0.00    +0.000 A 
ATOM     17  C   UNL     1       2.479  10.698  17.832  0.00  0.00    +0.000 A 
ATOM     18  C   UNL     1       1.947  11.984  17.840  0.00  0.00    +0.000 A 
ATOM     19  C   UNL     1       0.745  12.214  18.496  0.00  0.00    +0.000 A 
ATOM     20  C   UNL     1       0.140  11.183  19.219  0.00  0.00    +0.000 A 
ATOM     21  C   UNL     1       0.825  10.013  19.494  0.00  0.00    +0.000 A 
ENDROOT
BRANCH  12  22
ATOM     22  C   UNL     1       2.179   4.926  19.614  0.00  0.00    +0.000 A 
ATOM     23  C   UNL     1       1.572   3.883  18.899  0.00  0.00    +0.000 A 
ATOM     24  C   UNL     1       1.220   2.694  19.532  0.00  0.00    +0.000 A 
ATOM     25  C   UNL     1       1.523   2.511  20.876  0.00  0.00    +0.000 A 
ATOM     26  C   UNL     1       2.198   3.507  21.581  0.00  0.00    +0.000 A 
ATOM     27  C   UNL     1       2.527   4.709  20.952  0.00  0.00    +0.000 A 
ENDBRANCH  12  22
TORSDOF 1
ENDMDL
MODEL 9
REMARK VINA RESULT:      -7.0      3.829      4.516
REMARK  Name = 
REMARK  1 active torsions:
REMARK  status: ('A' for Active; 'I' for Inactive)
REMARK    1  A    between atoms: C_12  and  C_13
REMARK                            x       y       z     vdW  Elec       q    Type
REMARK                         _______ _______ _______ _____ _____    ______ ____
ROOT
ATOM      1  O   UNL     1       2.288  13.944  18.746  0.00  0.00    +0.000 OA
ATOM      2  C   UNL     1       1.339  14.249  19.488  0.00  0.00    +0.000 C 
ATOM      3  N   UNL     1       0.768  15.515  19.361  0.00  0.00    +0.000 N 
ATOM      4  C   UNL     1       1.403  16.492  18.464  0.00  0.00    +0.000 C 
ATOM      5  C   UNL     1       1.580  17.844  19.164  0.00  0.00    +0.000 C 
ATOM      6  C   UNL     1       0.301  18.353  19.841  0.00  0.00    +0.000 C 
ATOM      7  C   UNL     1      -0.394  17.253  20.628  0.00  0.00    +0.000 C 
ATOM      8  C   UNL     1      -0.554  15.977  19.786  0.00  0.00    +0.000 C 
ATOM      9  N   UNL     1       0.828  13.294  20.384  0.00  0.00    +0.000 N 
ATOM     10  C   UNL     1       1.241  11.927  20.069  0.00  0.00    +0.000 C 
ATOM     11  C   UNL     1       0.577  10.867  20.860  0.00  0.00    +0.000 A 
ATOM     12  C   UNL     1       0.641   9.489  20.838  0.00  0.00    +0.000 A 
ATOM     13  N   UNL     1      -0.221   8.953  21.768  0.00  0.00    +0.000 NA
ATOM     14  C   UNL     1      -0.764   9.990  22.372  0.00  0.00    +0.000 A 
ATOM     15  N   UNL     1      -0.315  11.175  21.852  0.00  0.00    +0.000 N 
ATOM     16  C   UNL     1      -0.572  12.490  22.257  0.00  0.00    +0.000 A 
ATOM     17  C   UNL     1      -1.489  12.783  23.275  0.00  0.00    +0.000 A 
ATOM     18  C   UNL     1      -1.643  14.102  23.691  0.00  0.00    +0.000 A 
ATOM     19  C   UNL     1      -0.746  15.061  23.240  0.00  0.00    +0.000 A 
ATOM     20  C   UNL     1       0.230  14.714  22.303  0.00  0.00    +0.000 A 
ATOM     21  C   UNL     1       0.175  13.502  21.638  0.00  0.00    +0.000 A 
ENDROOT
BRANCH  12  22
ATOM     22  C   UNL     1       1.427   8.687  19.914  0.00  0.00    +0.000 A 
ATOM     23  C   UNL     1       1.603   9.054  18.572  0.00  0.00    +0.000 A 
ATOM     24  C   UNL     1       2.219   8.191  17.670  0.00  0.00    +0.000 A 
ATOM     25  C   UNL     1       2.718   6.971  18.112  0.00  0.00    +0.000 A 
ATOM     26  C   UNL     1       2.621   6.625  19.459  0.00  0.00    +0.000 A 
ATOM     27  C   UNL     1       1.981   7.481  20.358  0.00  0.00    +0.000 A 
ENDBRANCH  12  22
TORSDOF 1
ENDMDL
