MODEL 1
REMARK VINA RESULT:      -9.1      0.000      0.000
REMARK  Name = 
REMARK  8 active torsions:
REMARK  status: ('A' for Active; 'I' for Inactive)
REMARK    1  A    between atoms: O_1  and  C_2
REMARK    2  A    between atoms: C_2  and  CA_3
REMARK    3  A    between atoms: CA_3  and  N_4
REMARK    4  A    between atoms: CA_3  and  C_28
REMARK    5  A    between atoms: N_4  and  C_5
REMARK    6  A    between atoms: C_8  and  C_9
REMARK    7  A    between atoms: C_15  and  O_16
REMARK    8  A    between atoms: C_17  and  C_18
REMARK                            x       y       z     vdW  Elec       q    Type
REMARK                         _______ _______ _______ _____ _____    ______ ____
ROOT
ATOM      1  C   UNL     1       1.368   8.210  21.058  0.00  0.00    +0.000 A 
ATOM      2  C   UNL     1       1.645   8.996  22.170  0.00  0.00    +0.000 A 
ATOM      3  N   UNL     1       0.981  10.122  22.525  0.00  0.00    +0.000 NA
ATOM      4  C   UNL     1      -0.032  10.551  21.719  0.00  0.00    +0.000 A 
ATOM      5  C   UNL     1      -0.297   9.938  20.470  0.00  0.00    +0.000 A 
ATOM      6  C   UNL     1       0.429   8.750  20.185  0.00  0.00    +0.000 A 
ENDROOT
BRANCH   5   7
ATOM      7  C   UNL     1      -1.229  10.465  19.429  0.00  0.00    +0.000 A 
ATOM      8  C   UNL     1      -1.933  11.672  19.605  0.00  0.00    +0.000 A 
ATOM      9  C   UNL     1      -2.825  12.180  18.651  0.00  0.00    +0.000 A 
ATOM     10  C   UNL     1      -2.930  11.492  17.443  0.00  0.00    +0.000 A 
ATOM     11  N   UNL     1      -3.656  11.781  16.310  0.00  0.00    +0.000 N 
ATOM     12  C   UNL     1      -3.398  10.857  15.334  0.00  0.00    +0.000 A 
ATOM     13  C   UNL     1      -2.533   9.929  15.855  0.00  0.00    +0.000 A 
ATOM     14  C   UNL     1      -2.229  10.314  17.190  0.00  0.00    +0.000 A 
ATOM     15  C   UNL     1      -1.409   9.781  18.205  0.00  0.00    +0.000 A 
ATOM     16  H   UNL     1      -4.263  12.583  16.210  0.00  0.00    +0.000 HD
ENDBRANCH   5   7
BRANCH   4  17
ATOM     17  C   UNL     1      -0.762  11.716  22.292  0.00  0.00    +0.000 A 
ATOM     18  C   UNL     1      -1.986  11.510  22.964  0.00  0.00    +0.000 A 
ATOM     19  C   UNL     1      -2.659  12.564  23.588  0.00  0.00    +0.000 A 
ATOM     20 CL   UNL     1      -4.151  12.272  24.394  0.00  0.00    +0.000 Cl
ATOM     21  C   UNL     1      -2.129  13.850  23.573  0.00  0.00    +0.000 A 
ATOM     22  C   UNL     1      -0.947  14.095  22.878  0.00  0.00    +0.000 A 
ATOM     23  C   UNL     1      -0.297  13.045  22.220  0.00  0.00    +0.000 A 
BRANCH  23  24
ATOM     24  O   UNL     1       0.813  13.342  21.478  0.00  0.00    +0.000 OA
ATOM     25  H   UNL     1       1.427  12.589  21.519  0.00  0.00    +0.000 HD
ENDBRANCH  23  24
ENDBRANCH   4  17
BRANCH   1  26
ATOM     26  N   UNL     1       2.068   7.039  20.840  0.00  0.00    +0.000 N 
ATOM     27  H   UNL     1       2.061   6.390  21.625  0.00  0.00    +0.000 HD
BRANCH  26  28
ATOM     28  CA  UNL     1       2.198   6.347  19.553  0.00  0.00    +0.000 C 
BRANCH  28  29
ATOM     29  C   UNL     1       1.850   4.861  19.576  0.00  0.00    +0.000 A 
ATOM     30  C   UNL     1       1.646   4.233  20.822  0.00  0.00    +0.000 A 
ATOM     31  C   UNL     1       1.214   2.911  20.902  0.00  0.00    +0.000 A 
ATOM     32  C   UNL     1       0.985   2.186  19.738  0.00  0.00    +0.000 A 
ATOM     33  C   UNL     1       1.199   2.781  18.494  0.00  0.00    +0.000 A 
ATOM     34  C   UNL     1       1.618   4.115  18.414  0.00  0.00    +0.000 A 
ENDBRANCH  28  29
BRANCH  28  35
ATOM     35  C   UNL     1       3.655   6.527  19.042  0.00  0.00    +0.000 C 
BRANCH  35  36
ATOM     36  O   UNL     1       4.529   5.506  19.540  0.00  0.00    +0.000 OA
ATOM     37  H   UNL     1       5.433   5.863  19.490  0.00  0.00    +0.000 HD
ENDBRANCH  35  36
ENDBRANCH  28  35
ENDBRANCH  26  28
ENDBRANCH   1  26
TORSDOF 8
ENDMDL
MODEL 2
REMARK VINA RESULT:      -8.5      2.850      3.847
REMARK  Name = 
REMARK  8 active torsions:
REMARK  status: ('A' for Active; 'I' for Inactive)
REMARK    1  A    between atoms: O_1  and  C_2
REMARK    2  A    between atoms: C_2  and  CA_3
REMARK    3  A    between atoms: CA_3  and  N_4
REMARK    4  A    between atoms: CA_3  and  C_28
REMARK    5  A    between atoms: N_4  and  C_5
REMARK    6  A    between atoms: C_8  and  C_9
REMARK    7  A    between atoms: C_15  and  O_16
REMARK    8  A    between atoms: C_17  and  C_18
REMARK                            x       y       z     vdW  Elec       q    Type
REMARK                         _______ _______ _______ _____ _____    ______ ____
ROOT
ATOM      1  C   UNL     1       1.285   9.241  17.988  0.00  0.00    +0.000 A 
ATOM      2  C   UNL     1       2.063  10.273  18.499  0.00  0.00    +0.000 A 
ATOM      3  N   UNL     1       1.603  11.476  18.916  0.00  0.00    +0.000 NA
ATOM      4  C   UNL     1       0.266  11.725  18.808  0.00  0.00    +0.000 A 
ATOM      5  C   UNL     1      -0.605  10.827  18.146  0.00  0.00    +0.000 A 
ATOM      6  C   UNL     1      -0.046   9.578  17.759  0.00  0.00    +0.000 A 
ENDROOT
BRANCH   5   7
ATOM      7  C   UNL     1      -2.027  11.107  17.786  0.00  0.00    +0.000 A 
ATOM      8  C   UNL     1      -2.513  10.914  16.479  0.00  0.00    +0.000 A 
ATOM      9  C   UNL     1      -3.838  11.184  16.111  0.00  0.00    +0.000 A 
ATOM     10  C   UNL     1      -4.717  11.570  17.122  0.00  0.00    +0.000 A 
ATOM     11  N   UNL     1      -6.067  11.831  17.081  0.00  0.00    +0.000 N 
ATOM     12  C   UNL     1      -6.534  12.108  18.338  0.00  0.00    +0.000 A 
ATOM     13  C   UNL     1      -5.466  12.076  19.197  0.00  0.00    +0.000 A 
ATOM     14  C   UNL     1      -4.307  11.740  18.444  0.00  0.00    +0.000 A 
ATOM     15  C   UNL     1      -2.948  11.546  18.763  0.00  0.00    +0.000 A 
ATOM     16  H   UNL     1      -6.632  11.787  16.244  0.00  0.00    +0.000 HD
ENDBRANCH   5   7
BRANCH   4  17
ATOM     17  C   UNL     1      -0.123  13.024  19.423  0.00  0.00    +0.000 A 
ATOM     18  C   UNL     1      -0.147  14.192  18.631  0.00  0.00    +0.000 A 
ATOM     19  C   UNL     1      -0.586  15.413  19.149  0.00  0.00    +0.000 A 
ATOM     20 CL   UNL     1      -0.596  16.815  18.151  0.00  0.00    +0.000 Cl
ATOM     21  C   UNL     1      -1.027  15.506  20.465  0.00  0.00    +0.000 A 
ATOM     22  C   UNL     1      -0.972  14.383  21.286  0.00  0.00    +0.000 A 
ATOM     23  C   UNL     1      -0.493  13.172  20.776  0.00  0.00    +0.000 A 
BRANCH  23  24
ATOM     24  O   UNL     1      -0.374  12.115  21.637  0.00  0.00    +0.000 OA
ATOM     25  H   UNL     1       0.371  11.560  21.349  0.00  0.00    +0.000 HD
ENDBRANCH  23  24
ENDBRANCH   4  17
BRANCH   1  26
ATOM     26  N   UNL     1       1.860   8.028  17.665  0.00  0.00    +0.000 N 
ATOM     27  H   UNL     1       1.921   7.842  16.665  0.00  0.00    +0.000 HD
BRANCH  26  28
ATOM     28  CA  UNL     1       2.929   7.360  18.416  0.00  0.00    +0.000 C 
BRANCH  28  29
ATOM     29  C   UNL     1       3.783   6.388  17.606  0.00  0.00    +0.000 A 
ATOM     30  C   UNL     1       3.529   5.006  17.720  0.00  0.00    +0.000 A 
ATOM     31  C   UNL     1       4.197   4.082  16.921  0.00  0.00    +0.000 A 
ATOM     32  C   UNL     1       5.140   4.518  15.998  0.00  0.00    +0.000 A 
ATOM     33  C   UNL     1       5.422   5.880  15.882  0.00  0.00    +0.000 A 
ATOM     34  C   UNL     1       4.738   6.810  16.674  0.00  0.00    +0.000 A 
ENDBRANCH  28  29
BRANCH  28  35
ATOM     35  C   UNL     1       2.289   6.607  19.617  0.00  0.00    +0.000 C 
BRANCH  35  36
ATOM     36  O   UNL     1       2.162   7.448  20.771  0.00  0.00    +0.000 OA
ATOM     37  H   UNL     1       1.640   6.949  21.424  0.00  0.00    +0.000 HD
ENDBRANCH  35  36
ENDBRANCH  28  35
ENDBRANCH  26  28
ENDBRANCH   1  26
TORSDOF 8
ENDMDL
MODEL 3
REMARK VINA RESULT:      -8.5      1.402      1.829
REMARK  Name = 
REMARK  8 active torsions:
REMARK  status: ('A' for Active; 'I' for Inactive)
REMARK    1  A    between atoms: O_1  and  C_2
REMARK    2  A    between atoms: C_2  and  CA_3
REMARK    3  A    between atoms: CA_3  and  N_4
REMARK    4  A    between atoms: CA_3  and  C_28
REMARK    5  A    between atoms: N_4  and  C_5
REMARK    6  A    between atoms: C_8  and  C_9
REMARK    7  A    between atoms: C_15  and  O_16
REMARK    8  A    between atoms: C_17  and  C_18
REMARK                            x       y       z     vdW  Elec       q    Type
REMARK                         _______ _______ _______ _____ _____    ______ ____
ROOT
ATOM      1  C   UNL     1       1.404   8.295  20.811  0.00  0.00    +0.000 A 
ATOM      2  C   UNL     1       1.806   9.188  21.797  0.00  0.00    +0.000 A 
ATOM      3  N   UNL     1       1.213  10.373  22.076  0.00  0.00    +0.000 NA
ATOM      4  C   UNL     1       0.146  10.753  21.316  0.00  0.00    +0.000 A 
ATOM      5  C   UNL     1      -0.250  10.017  20.173  0.00  0.00    +0.000 A 
ATOM      6  C   UNL     1       0.409   8.775  19.965  0.00  0.00    +0.000 A 
ENDROOT
BRANCH   5   7
ATOM      7  C   UNL     1      -1.253  10.465  19.162  0.00  0.00    +0.000 A 
ATOM      8  C   UNL     1      -2.112  11.555  19.400  0.00  0.00    +0.000 A 
ATOM      9  C   UNL     1      -3.072  11.985  18.474  0.00  0.00    +0.000 A 
ATOM     10  C   UNL     1      -3.095  11.350  17.234  0.00  0.00    +0.000 A 
ATOM     11  N   UNL     1      -3.863  11.593  16.118  0.00  0.00    +0.000 N 
ATOM     12  C   UNL     1      -3.492  10.762  15.097  0.00  0.00    +0.000 A 
ATOM     13  C   UNL     1      -2.505   9.934  15.569  0.00  0.00    +0.000 A 
ATOM     14  C   UNL     1      -2.244  10.290  16.920  0.00  0.00    +0.000 A 
ATOM     15  C   UNL     1      -1.350   9.824  17.906  0.00  0.00    +0.000 A 
ATOM     16  H   UNL     1      -4.573  12.310  16.060  0.00  0.00    +0.000 HD
ENDBRANCH   5   7
BRANCH   4  17
ATOM     17  C   UNL     1      -0.491  12.005  21.812  0.00  0.00    +0.000 A 
ATOM     18  C   UNL     1      -0.089  13.250  21.281  0.00  0.00    +0.000 A 
ATOM     19  C   UNL     1      -0.719  14.438  21.658  0.00  0.00    +0.000 A 
ATOM     20 CL   UNL     1      -0.198  15.936  20.990  0.00  0.00    +0.000 Cl
ATOM     21  C   UNL     1      -1.775  14.423  22.564  0.00  0.00    +0.000 A 
ATOM     22  C   UNL     1      -2.164  13.217  23.142  0.00  0.00    +0.000 A 
ATOM     23  C   UNL     1      -1.503  12.034  22.793  0.00  0.00    +0.000 A 
BRANCH  23  24
ATOM     24  O   UNL     1      -1.857  10.885  23.446  0.00  0.00    +0.000 OA
ATOM     25  H   UNL     1      -2.661  11.054  23.964  0.00  0.00    +0.000 HD
ENDBRANCH  23  24
ENDBRANCH   4  17
BRANCH   1  26
ATOM     26  N   UNL     1       2.043   7.078  20.669  0.00  0.00    +0.000 N 
ATOM     27  H   UNL     1       1.991   6.476  21.489  0.00  0.00    +0.000 HD
BRANCH  26  28
ATOM     28  CA  UNL     1       2.152   6.309  19.424  0.00  0.00    +0.000 C 
BRANCH  28  29
ATOM     29  C   UNL     1       1.747   4.841  19.530  0.00  0.00    +0.000 A 
ATOM     30  C   UNL     1       1.719   4.060  18.357  0.00  0.00    +0.000 A 
ATOM     31  C   UNL     1       1.469   2.691  18.407  0.00  0.00    +0.000 A 
ATOM     32  C   UNL     1       1.234   2.075  19.630  0.00  0.00    +0.000 A 
ATOM     33  C   UNL     1       1.237   2.831  20.803  0.00  0.00    +0.000 A 
ATOM     34  C   UNL     1       1.503   4.205  20.753  0.00  0.00    +0.000 A 
ENDBRANCH  28  29
BRANCH  28  35
ATOM     35  C   UNL     1       3.618   6.404  18.914  0.00  0.00    +0.000 C 
BRANCH  35  36
ATOM     36  O   UNL     1       4.519   5.638  19.724  0.00  0.00    +0.000 OA
ATOM     37  H   UNL     1       4.953   4.999  19.131  0.00  0.00    +0.000 HD
ENDBRANCH  35  36
ENDBRANCH  28  35
ENDBRANCH  26  28
ENDBRANCH   1  26
TORSDOF 8
ENDMDL
MODEL 4
REMARK VINA RESULT:      -8.4      0.838      1.611
REMARK  Name = 
REMARK  8 active torsions:
REMARK  status: ('A' for Active; 'I' for Inactive)
REMARK    1  A    between atoms: O_1  and  C_2
REMARK    2  A    between atoms: C_2  and  CA_3
REMARK    3  A    between atoms: CA_3  and  N_4
REMARK    4  A    between atoms: CA_3  and  C_28
REMARK    5  A    between atoms: N_4  and  C_5
REMARK    6  A    between atoms: C_8  and  C_9
REMARK    7  A    between atoms: C_15  and  O_16
REMARK    8  A    between atoms: C_17  and  C_18
REMARK                            x       y       z     vdW  Elec       q    Type
REMARK                         _______ _______ _______ _____ _____    ______ ____
ROOT
ATOM      1  C   UNL     1       1.353   8.391  20.854  0.00  0.00    +0.000 A 
ATOM      2  C   UNL     1       1.651   9.200  21.944  0.00  0.00    +0.000 A 
ATOM      3  N   UNL     1       0.970  10.313  22.310  0.00  0.00    +0.000 NA
ATOM      4  C   UNL     1      -0.085  10.703  21.538  0.00  0.00    +0.000 A 
ATOM      5  C   UNL     1      -0.380  10.066  20.309  0.00  0.00    +0.000 A 
ATOM      6  C   UNL     1       0.367   8.894  20.011  0.00  0.00    +0.000 A 
ENDROOT
BRANCH   5   7
ATOM      7  C   UNL     1      -1.365  10.553  19.297  0.00  0.00    +0.000 A 
ATOM      8  C   UNL     1      -1.185  10.330  17.919  0.00  0.00    +0.000 A 
ATOM      9  C   UNL     1      -2.086  10.790  16.948  0.00  0.00    +0.000 A 
ATOM     10  C   UNL     1      -3.250  11.409  17.399  0.00  0.00    +0.000 A 
ATOM     11  N   UNL     1      -4.333  11.894  16.700  0.00  0.00    +0.000 N 
ATOM     12  C   UNL     1      -5.285  12.358  17.566  0.00  0.00    +0.000 A 
ATOM     13  C   UNL     1      -4.796  12.220  18.840  0.00  0.00    +0.000 A 
ATOM     14  C   UNL     1      -3.508  11.624  18.752  0.00  0.00    +0.000 A 
ATOM     15  C   UNL     1      -2.540  11.230  19.698  0.00  0.00    +0.000 A 
ATOM     16  H   UNL     1      -4.418  11.873  15.693  0.00  0.00    +0.000 HD
ENDBRANCH   5   7
BRANCH   4  17
ATOM     17  C   UNL     1      -0.823  11.856  22.124  0.00  0.00    +0.000 A 
ATOM     18  C   UNL     1      -1.985  11.623  22.891  0.00  0.00    +0.000 A 
ATOM     19  C   UNL     1      -2.659  12.669  23.526  0.00  0.00    +0.000 A 
ATOM     20 CL   UNL     1      -4.075  12.343  24.449  0.00  0.00    +0.000 Cl
ATOM     21  C   UNL     1      -2.190  13.975  23.429  0.00  0.00    +0.000 A 
ATOM     22  C   UNL     1      -1.074  14.245  22.642  0.00  0.00    +0.000 A 
ATOM     23  C   UNL     1      -0.426  13.201  21.974  0.00  0.00    +0.000 A 
BRANCH  23  24
ATOM     24  O   UNL     1       0.614  13.517  21.142  0.00  0.00    +0.000 OA
ATOM     25  H   UNL     1       0.952  12.700  20.740  0.00  0.00    +0.000 HD
ENDBRANCH  23  24
ENDBRANCH   4  17
BRANCH   1  26
ATOM     26  N   UNL     1       2.076   7.236  20.624  0.00  0.00    +0.000 N 
ATOM     27  H   UNL     1       2.126   6.604  21.421  0.00  0.00    +0.000 HD
BRANCH  26  28
ATOM     28  CA  UNL     1       2.163   6.521  19.346  0.00  0.00    +0.000 C 
BRANCH  28  29
ATOM     29  C   UNL     1       1.751   5.052  19.394  0.00  0.00    +0.000 A 
ATOM     30  C   UNL     1       1.861   4.280  18.219  0.00  0.00    +0.000 A 
ATOM     31  C   UNL     1       1.611   2.910  18.231  0.00  0.00    +0.000 A 
ATOM     32  C   UNL     1       1.236   2.285  19.414  0.00  0.00    +0.000 A 
ATOM     33  C   UNL     1       1.102   3.032  20.584  0.00  0.00    +0.000 A 
ATOM     34  C   UNL     1       1.370   4.407  20.576  0.00  0.00    +0.000 A 
ENDBRANCH  28  29
BRANCH  28  35
ATOM     35  C   UNL     1       3.621   6.632  18.818  0.00  0.00    +0.000 C 
BRANCH  35  36
ATOM     36  O   UNL     1       3.694   7.377  17.595  0.00  0.00    +0.000 OA
ATOM     37  H   UNL     1       2.819   7.309  17.174  0.00  0.00    +0.000 HD
ENDBRANCH  35  36
ENDBRANCH  28  35
ENDBRANCH  26  28
ENDBRANCH   1  26
TORSDOF 8
ENDMDL
MODEL 5
REMARK VINA RESULT:      -8.4      3.220      4.622
REMARK  Name = 
REMARK  8 active torsions:
REMARK  status: ('A' for Active; 'I' for Inactive)
REMARK    1  A    between atoms: O_1  and  C_2
REMARK    2  A    between atoms: C_2  and  CA_3
REMARK    3  A    between atoms: CA_3  and  N_4
REMARK    4  A    between atoms: CA_3  and  C_28
REMARK    5  A    between atoms: N_4  and  C_5
REMARK    6  A    between atoms: C_8  and  C_9
REMARK    7  A    between atoms: C_15  and  O_16
REMARK    8  A    between atoms: C_17  and  C_18
REMARK                            x       y       z     vdW  Elec       q    Type
REMARK                         _______ _______ _______ _____ _____    ______ ____
ROOT
ATOM      1  C   UNL     1       1.585   9.418  18.503  0.00  0.00    +0.000 A 
ATOM      2  C   UNL     1       2.192  10.484  17.852  0.00  0.00    +0.000 A 
ATOM      3  N   UNL     1       2.061  11.790  18.185  0.00  0.00    +0.000 NA
ATOM      4  C   UNL     1       1.245  12.107  19.231  0.00  0.00    +0.000 A 
ATOM      5  C   UNL     1       0.436  11.132  19.863  0.00  0.00    +0.000 A 
ATOM      6  C   UNL     1       0.652   9.784  19.469  0.00  0.00    +0.000 A 
ENDROOT
BRANCH   5   7
ATOM      7  C   UNL     1      -0.641  11.415  20.859  0.00  0.00    +0.000 A 
ATOM      8  C   UNL     1      -0.508  11.063  22.216  0.00  0.00    +0.000 A 
ATOM      9  C   UNL     1      -1.510  11.302  23.167  0.00  0.00    +0.000 A 
ATOM     10  C   UNL     1      -2.636  12.006  22.745  0.00  0.00    +0.000 A 
ATOM     11  N   UNL     1      -3.734  12.442  23.452  0.00  0.00    +0.000 N 
ATOM     12  C   UNL     1      -4.566  13.160  22.637  0.00  0.00    +0.000 A 
ATOM     13  C   UNL     1      -4.030  13.147  21.375  0.00  0.00    +0.000 A 
ATOM     14  C   UNL     1      -2.810  12.419  21.424  0.00  0.00    +0.000 A 
ATOM     15  C   UNL     1      -1.825  12.083  20.474  0.00  0.00    +0.000 A 
ATOM     16  H   UNL     1      -3.877  12.282  24.439  0.00  0.00    +0.000 HD
ENDBRANCH   5   7
BRANCH   4  17
ATOM     17  C   UNL     1       1.295  13.555  19.575  0.00  0.00    +0.000 A 
ATOM     18  C   UNL     1       0.572  14.483  18.795  0.00  0.00    +0.000 A 
ATOM     19  C   UNL     1       0.526  15.838  19.134  0.00  0.00    +0.000 A 
ATOM     20 CL   UNL     1      -0.364  16.938  18.154  0.00  0.00    +0.000 Cl
ATOM     21  C   UNL     1       1.187  16.308  20.264  0.00  0.00    +0.000 A 
ATOM     22  C   UNL     1       1.948  15.426  21.028  0.00  0.00    +0.000 A 
ATOM     23  C   UNL     1       2.025  14.078  20.663  0.00  0.00    +0.000 A 
BRANCH  23  24
ATOM     24  O   UNL     1       2.851  13.263  21.387  0.00  0.00    +0.000 OA
ATOM     25  H   UNL     1       2.465  13.133  22.270  0.00  0.00    +0.000 HD
ENDBRANCH  23  24
ENDBRANCH   4  17
BRANCH   1  26
ATOM     26  N   UNL     1       1.855   8.119  18.117  0.00  0.00    +0.000 N 
ATOM     27  H   UNL     1       1.741   7.942  17.121  0.00  0.00    +0.000 HD
BRANCH  26  28
ATOM     28  CA  UNL     1       2.859   7.237  18.723  0.00  0.00    +0.000 C 
BRANCH  28  29
ATOM     29  C   UNL     1       3.590   6.318  17.748  0.00  0.00    +0.000 A 
ATOM     30  C   UNL     1       4.579   6.871  16.909  0.00  0.00    +0.000 A 
ATOM     31  C   UNL     1       5.358   6.064  16.084  0.00  0.00    +0.000 A 
ATOM     32  C   UNL     1       5.158   4.689  16.072  0.00  0.00    +0.000 A 
ATOM     33  C   UNL     1       4.171   4.121  16.878  0.00  0.00    +0.000 A 
ATOM     34  C   UNL     1       3.400   4.931  17.721  0.00  0.00    +0.000 A 
ENDBRANCH  28  29
BRANCH  28  35
ATOM     35  C   UNL     1       2.165   6.380  19.819  0.00  0.00    +0.000 C 
BRANCH  35  36
ATOM     36  O   UNL     1       2.024   7.097  21.053  0.00  0.00    +0.000 OA
ATOM     37  H   UNL     1       2.642   7.848  21.011  0.00  0.00    +0.000 HD
ENDBRANCH  35  36
ENDBRANCH  28  35
ENDBRANCH  26  28
ENDBRANCH   1  26
TORSDOF 8
ENDMDL
MODEL 6
REMARK VINA RESULT:      -8.4      0.741      1.279
REMARK  Name = 
REMARK  8 active torsions:
REMARK  status: ('A' for Active; 'I' for Inactive)
REMARK    1  A    between atoms: O_1  and  C_2
REMARK    2  A    between atoms: C_2  and  CA_3
REMARK    3  A    between atoms: CA_3  and  N_4
REMARK    4  A    between atoms: CA_3  and  C_28
REMARK    5  A    between atoms: N_4  and  C_5
REMARK    6  A    between atoms: C_8  and  C_9
REMARK    7  A    between atoms: C_15  and  O_16
REMARK    8  A    between atoms: C_17  and  C_18
REMARK                            x       y       z     vdW  Elec       q    Type
REMARK                         _______ _______ _______ _____ _____    ______ ____
ROOT
ATOM      1  C   UNL     1       1.407   8.445  20.742  0.00  0.00    +0.000 A 
ATOM      2  C   UNL     1       1.659   9.294  21.813  0.00  0.00    +0.000 A 
ATOM      3  N   UNL     1       0.938  10.395  22.132  0.00  0.00    +0.000 NA
ATOM      4  C   UNL     1      -0.112  10.731  21.328  0.00  0.00    +0.000 A 
ATOM      5  C   UNL     1      -0.363  10.050  20.113  0.00  0.00    +0.000 A 
ATOM      6  C   UNL     1       0.424   8.893  19.865  0.00  0.00    +0.000 A 
ENDROOT
BRANCH   5   7
ATOM      7  C   UNL     1      -1.341  10.477  19.068  0.00  0.00    +0.000 A 
ATOM      8  C   UNL     1      -1.147  10.184  17.705  0.00  0.00    +0.000 A 
ATOM      9  C   UNL     1      -2.040  10.587  16.703  0.00  0.00    +0.000 A 
ATOM     10  C   UNL     1      -3.213  11.221  17.110  0.00  0.00    +0.000 A 
ATOM     11  N   UNL     1      -4.291  11.662  16.377  0.00  0.00    +0.000 N 
ATOM     12  C   UNL     1      -5.255  12.165  17.209  0.00  0.00    +0.000 A 
ATOM     13  C   UNL     1      -4.777  12.097  18.492  0.00  0.00    +0.000 A 
ATOM     14  C   UNL     1      -3.485  11.505  18.448  0.00  0.00    +0.000 A 
ATOM     15  C   UNL     1      -2.524  11.167  19.422  0.00  0.00    +0.000 A 
ATOM     16  H   UNL     1      -4.367  11.588  15.372  0.00  0.00    +0.000 HD
ENDBRANCH   5   7
BRANCH   4  17
ATOM     17  C   UNL     1      -0.896  11.878  21.865  0.00  0.00    +0.000 A 
ATOM     18  C   UNL     1      -1.959  11.637  22.763  0.00  0.00    +0.000 A 
ATOM     19  C   UNL     1      -2.664  12.688  23.353  0.00  0.00    +0.000 A 
ATOM     20 CL   UNL     1      -3.956  12.352  24.439  0.00  0.00    +0.000 Cl
ATOM     21  C   UNL     1      -2.326  14.009  23.079  0.00  0.00    +0.000 A 
ATOM     22  C   UNL     1      -1.314  14.281  22.162  0.00  0.00    +0.000 A 
ATOM     23  C   UNL     1      -0.637  13.225  21.541  0.00  0.00    +0.000 A 
BRANCH  23  24
ATOM     24  O   UNL     1       0.290  13.532  20.583  0.00  0.00    +0.000 OA
ATOM     25  H   UNL     1       0.520  12.721  20.100  0.00  0.00    +0.000 HD
ENDBRANCH  23  24
ENDBRANCH   4  17
BRANCH   1  26
ATOM     26  N   UNL     1       2.168   7.306  20.561  0.00  0.00    +0.000 N 
ATOM     27  H   UNL     1       2.225   6.701  21.379  0.00  0.00    +0.000 HD
BRANCH  26  28
ATOM     28  CA  UNL     1       2.297   6.553  19.308  0.00  0.00    +0.000 C 
BRANCH  28  29
ATOM     29  C   UNL     1       1.890   5.084  19.387  0.00  0.00    +0.000 A 
ATOM     30  C   UNL     1       1.546   4.545  20.643  0.00  0.00    +0.000 A 
ATOM     31  C   UNL     1       1.057   3.246  20.761  0.00  0.00    +0.000 A 
ATOM     32  C   UNL     1       0.910   2.456  19.627  0.00  0.00    +0.000 A 
ATOM     33  C   UNL     1       1.264   2.962  18.376  0.00  0.00    +0.000 A 
ATOM     34  C   UNL     1       1.740   4.273  18.256  0.00  0.00    +0.000 A 
ENDBRANCH  28  29
BRANCH  28  35
ATOM     35  C   UNL     1       3.771   6.655  18.822  0.00  0.00    +0.000 C 
BRANCH  35  36
ATOM     36  O   UNL     1       4.602   5.648  19.415  0.00  0.00    +0.000 OA
ATOM     37  H   UNL     1       4.592   5.807  20.375  0.00  0.00    +0.000 HD
ENDBRANCH  35  36
ENDBRANCH  28  35
ENDBRANCH  26  28
ENDBRANCH   1  26
TORSDOF 8
ENDMDL
MODEL 7
REMARK VINA RESULT:      -8.3      3.928      9.259
REMARK  Name = 
REMARK  8 active torsions:
REMARK  status: ('A' for Active; 'I' for Inactive)
REMARK    1  A    between atoms: O_1  and  C_2
REMARK    2  A    between atoms: C_2  and  CA_3
REMARK    3  A    between atoms: CA_3  and  N_4
REMARK    4  A    between atoms: CA_3  and  C_28
REMARK    5  A    between atoms: N_4  and  C_5
REMARK    6  A    between atoms: C_8  and  C_9
REMARK    7  A    between atoms: C_15  and  O_16
REMARK    8  A    between atoms: C_17  and  C_18
REMARK                            x       y       z     vdW  Elec       q    Type
REMARK                         _______ _______ _______ _____ _____    ______ ____
ROOT
ATOM      1  C   UNL     1       1.970   9.174  17.827  0.00  0.00    +0.000 A 
ATOM      2  C   UNL     1       3.290   9.381  17.445  0.00  0.00    +0.000 A 
ATOM      3  N   UNL     1       4.232   8.417  17.307  0.00  0.00    +0.000 NA
ATOM      4  C   UNL     1       3.879   7.130  17.589  0.00  0.00    +0.000 A 
ATOM      5  C   UNL     1       2.620   6.812  18.152  0.00  0.00    +0.000 A 
ATOM      6  C   UNL     1       1.683   7.878  18.242  0.00  0.00    +0.000 A 
ENDROOT
BRANCH   5   7
ATOM      7  C   UNL     1       2.227   5.477  18.694  0.00  0.00    +0.000 A 
ATOM      8  C   UNL     1       1.802   4.431  17.853  0.00  0.00    +0.000 A 
ATOM      9  C   UNL     1       1.413   3.174  18.337  0.00  0.00    +0.000 A 
ATOM     10  C   UNL     1       1.552   2.944  19.705  0.00  0.00    +0.000 A 
ATOM     11  N   UNL     1       1.323   1.809  20.448  0.00  0.00    +0.000 N 
ATOM     12  C   UNL     1       1.666   2.023  21.756  0.00  0.00    +0.000 A 
ATOM     13  C   UNL     1       2.075   3.327  21.874  0.00  0.00    +0.000 A 
ATOM     14  C   UNL     1       2.007   3.925  20.585  0.00  0.00    +0.000 A 
ATOM     15  C   UNL     1       2.304   5.207  20.079  0.00  0.00    +0.000 A 
ATOM     16  H   UNL     1       0.984   0.936  20.068  0.00  0.00    +0.000 HD
ENDBRANCH   5   7
BRANCH   4  17
ATOM     17  C   UNL     1       4.962   6.159  17.268  0.00  0.00    +0.000 A 
ATOM     18  C   UNL     1       5.178   5.773  15.928  0.00  0.00    +0.000 A 
ATOM     19  C   UNL     1       6.236   4.931  15.576  0.00  0.00    +0.000 A 
ATOM     20 CL   UNL     1       6.462   4.480  13.930  0.00  0.00    +0.000 Cl
ATOM     21  C   UNL     1       7.117   4.459  16.543  0.00  0.00    +0.000 A 
ATOM     22  C   UNL     1       6.903   4.783  17.880  0.00  0.00    +0.000 A 
ATOM     23  C   UNL     1       5.819   5.593  18.234  0.00  0.00    +0.000 A 
BRANCH  23  24
ATOM     24  O   UNL     1       5.594   5.819  19.565  0.00  0.00    +0.000 OA
ATOM     25  H   UNL     1       5.850   5.025  20.064  0.00  0.00    +0.000 HD
ENDBRANCH  23  24
ENDBRANCH   4  17
BRANCH   1  26
ATOM     26  N   UNL     1       1.080  10.230  17.860  0.00  0.00    +0.000 N 
ATOM     27  H   UNL     1       0.838  10.608  16.945  0.00  0.00    +0.000 HD
BRANCH  26  28
ATOM     28  CA  UNL     1      -0.004  10.405  18.833  0.00  0.00    +0.000 C 
BRANCH  28  29
ATOM     29  C   UNL     1      -1.406  10.500  18.236  0.00  0.00    +0.000 A 
ATOM     30  C   UNL     1      -2.325  11.405  18.805  0.00  0.00    +0.000 A 
ATOM     31  C   UNL     1      -3.576  11.618  18.233  0.00  0.00    +0.000 A 
ATOM     32  C   UNL     1      -3.939  10.925  17.084  0.00  0.00    +0.000 A 
ATOM     33  C   UNL     1      -3.054  10.010  16.514  0.00  0.00    +0.000 A 
ATOM     34  C   UNL     1      -1.789   9.808  17.081  0.00  0.00    +0.000 A 
ENDBRANCH  28  29
BRANCH  28  35
ATOM     35  C   UNL     1       0.288  11.683  19.670  0.00  0.00    +0.000 C 
BRANCH  35  36
ATOM     36  O   UNL     1       0.512  11.379  21.053  0.00  0.00    +0.000 OA
ATOM     37  H   UNL     1       0.324  12.194  21.552  0.00  0.00    +0.000 HD
ENDBRANCH  35  36
ENDBRANCH  28  35
ENDBRANCH  26  28
ENDBRANCH   1  26
TORSDOF 8
ENDMDL
MODEL 8
REMARK VINA RESULT:      -8.3      2.954      3.714
REMARK  Name = 
REMARK  8 active torsions:
REMARK  status: ('A' for Active; 'I' for Inactive)
REMARK    1  A    between atoms: O_1  and  C_2
REMARK    2  A    between atoms: C_2  and  CA_3
REMARK    3  A    between atoms: CA_3  and  N_4
REMARK    4  A    between atoms: CA_3  and  C_28
REMARK    5  A    between atoms: N_4  and  C_5
REMARK    6  A    between atoms: C_8  and  C_9
REMARK    7  A    between atoms: C_15  and  O_16
REMARK    8  A    between atoms: C_17  and  C_18
REMARK                            x       y       z     vdW  Elec       q    Type
REMARK                         _______ _______ _______ _____ _____    ______ ____
ROOT
ATOM      1  C   UNL     1       1.273   9.663  18.159  0.00  0.00    +0.000 A 
ATOM      2  C   UNL     1       2.185  10.711  18.165  0.00  0.00    +0.000 A 
ATOM      3  N   UNL     1       1.917  11.988  18.531  0.00  0.00    +0.000 NA
ATOM      4  C   UNL     1       0.641  12.295  18.901  0.00  0.00    +0.000 A 
ATOM      5  C   UNL     1      -0.415  11.361  18.771  0.00  0.00    +0.000 A 
ATOM      6  C   UNL     1      -0.044  10.039  18.403  0.00  0.00    +0.000 A 
ENDROOT
BRANCH   5   7
ATOM      7  C   UNL     1      -1.867  11.668  18.940  0.00  0.00    +0.000 A 
ATOM      8  C   UNL     1      -2.360  12.318  20.088  0.00  0.00    +0.000 A 
ATOM      9  C   UNL     1      -3.719  12.603  20.278  0.00  0.00    +0.000 A 
ATOM     10  C   UNL     1      -4.587  12.307  19.229  0.00  0.00    +0.000 A 
ATOM     11  N   UNL     1      -5.939  12.531  19.096  0.00  0.00    +0.000 N 
ATOM     12  C   UNL     1      -6.364  12.137  17.856  0.00  0.00    +0.000 A 
ATOM     13  C   UNL     1      -5.288  11.604  17.194  0.00  0.00    +0.000 A 
ATOM     14  C   UNL     1      -4.156  11.701  18.049  0.00  0.00    +0.000 A 
ATOM     15  C   UNL     1      -2.798  11.345  17.926  0.00  0.00    +0.000 A 
ATOM     16  H   UNL     1      -6.518  12.959  19.805  0.00  0.00    +0.000 HD
ENDBRANCH   5   7
BRANCH   4  17
ATOM     17  C   UNL     1       0.514  13.691  19.405  0.00  0.00    +0.000 A 
ATOM     18  C   UNL     1       0.023  14.700  18.549  0.00  0.00    +0.000 A 
ATOM     19  C   UNL     1      -0.189  16.003  19.007  0.00  0.00    +0.000 A 
ATOM     20 CL   UNL     1      -0.785  17.205  17.929  0.00  0.00    +0.000 Cl
ATOM     21  C   UNL     1       0.068  16.338  20.332  0.00  0.00    +0.000 A 
ATOM     22  C   UNL     1       0.597  15.377  21.191  0.00  0.00    +0.000 A 
ATOM     23  C   UNL     1       0.847  14.084  20.718  0.00  0.00    +0.000 A 
BRANCH  23  24
ATOM     24  O   UNL     1       1.447  13.195  21.567  0.00  0.00    +0.000 OA
ATOM     25  H   UNL     1       2.254  12.856  21.145  0.00  0.00    +0.000 HD
ENDBRANCH  23  24
ENDBRANCH   4  17
BRANCH   1  26
ATOM     26  N   UNL     1       1.683   8.384  17.837  0.00  0.00    +0.000 N 
ATOM     27  H   UNL     1       1.839   8.228  16.843  0.00  0.00    +0.000 HD
BRANCH  26  28
ATOM     28  CA  UNL     1       2.527   7.520  18.671  0.00  0.00    +0.000 C 
BRANCH  28  29
ATOM     29  C   UNL     1       2.995   6.230  18.004  0.00  0.00    +0.000 A 
ATOM     30  C   UNL     1       4.294   6.183  17.457  0.00  0.00    +0.000 A 
ATOM     31  C   UNL     1       4.817   5.001  16.940  0.00  0.00    +0.000 A 
ATOM     32  C   UNL     1       4.050   3.842  16.951  0.00  0.00    +0.000 A 
ATOM     33  C   UNL     1       2.755   3.868  17.469  0.00  0.00    +0.000 A 
ATOM     34  C   UNL     1       2.235   5.054  18.003  0.00  0.00    +0.000 A 
ENDBRANCH  28  29
BRANCH  28  35
ATOM     35  C   UNL     1       1.746   7.176  19.971  0.00  0.00    +0.000 C 
BRANCH  35  36
ATOM     36  O   UNL     1       2.092   8.052  21.052  0.00  0.00    +0.000 OA
ATOM     37  H   UNL     1       2.286   8.920  20.658  0.00  0.00    +0.000 HD
ENDBRANCH  35  36
ENDBRANCH  28  35
ENDBRANCH  26  28
ENDBRANCH   1  26
TORSDOF 8
ENDMDL
MODEL 9
REMARK VINA RESULT:      -8.2      3.248      4.780
REMARK  Name = 
REMARK  8 active torsions:
REMARK  status: ('A' for Active; 'I' for Inactive)
REMARK    1  A    between atoms: O_1  and  C_2
REMARK    2  A    between atoms: C_2  and  CA_3
REMARK    3  A    between atoms: CA_3  and  N_4
REMARK    4  A    between atoms: CA_3  and  C_28
REMARK    5  A    between atoms: N_4  and  C_5
REMARK    6  A    between atoms: C_8  and  C_9
REMARK    7  A    between atoms: C_15  and  O_16
REMARK    8  A    between atoms: C_17  and  C_18
REMARK                            x       y       z     vdW  Elec       q    Type
REMARK                         _______ _______ _______ _____ _____    ______ ____
ROOT
ATOM      1  C   UNL     1       1.716   8.770  18.567  0.00  0.00    +0.000 A 
ATOM      2  C   UNL     1       2.282   9.795  17.819  0.00  0.00    +0.000 A 
ATOM      3  N   UNL     1       2.177  11.119  18.087  0.00  0.00    +0.000 NA
ATOM      4  C   UNL     1       1.432  11.498  19.165  0.00  0.00    +0.000 A 
ATOM      5  C   UNL     1       0.665  10.565  19.902  0.00  0.00    +0.000 A 
ATOM      6  C   UNL     1       0.850   9.195  19.570  0.00  0.00    +0.000 A 
ENDROOT
BRANCH   5   7
ATOM      7  C   UNL     1      -0.344  10.909  20.949  0.00  0.00    +0.000 A 
ATOM      8  C   UNL     1      -0.227  10.444  22.273  0.00  0.00    +0.000 A 
ATOM      9  C   UNL     1      -1.167  10.739  23.270  0.00  0.00    +0.000 A 
ATOM     10  C   UNL     1      -2.202  11.610  22.935  0.00  0.00    +0.000 A 
ATOM     11  N   UNL     1      -3.217  12.130  23.705  0.00  0.00    +0.000 N 
ATOM     12  C   UNL     1      -3.968  13.007  22.969  0.00  0.00    +0.000 A 
ATOM     13  C   UNL     1      -3.467  13.018  21.693  0.00  0.00    +0.000 A 
ATOM     14  C   UNL     1      -2.351  12.138  21.652  0.00  0.00    +0.000 A 
ATOM     15  C   UNL     1      -1.439  11.750  20.650  0.00  0.00    +0.000 A 
ATOM     16  H   UNL     1      -3.358  11.917  24.683  0.00  0.00    +0.000 HD
ENDBRANCH   5   7
BRANCH   4  17
ATOM     17  C   UNL     1       1.510  12.963  19.424  0.00  0.00    +0.000 A 
ATOM     18  C   UNL     1       2.363  13.448  20.438  0.00  0.00    +0.000 A 
ATOM     19  C   UNL     1       2.528  14.818  20.657  0.00  0.00    +0.000 A 
ATOM     20 CL   UNL     1       3.575  15.368  21.907  0.00  0.00    +0.000 Cl
ATOM     21  C   UNL     1       1.859  15.746  19.865  0.00  0.00    +0.000 A 
ATOM     22  C   UNL     1       0.974  15.300  18.887  0.00  0.00    +0.000 A 
ATOM     23  C   UNL     1       0.780  13.927  18.698  0.00  0.00    +0.000 A 
BRANCH  23  24
ATOM     24  O   UNL     1      -0.161  13.530  17.788  0.00  0.00    +0.000 OA
ATOM     25  H   UNL     1      -0.712  12.839  18.190  0.00  0.00    +0.000 HD
ENDBRANCH  23  24
ENDBRANCH   4  17
BRANCH   1  26
ATOM     26  N   UNL     1       1.956   7.450  18.237  0.00  0.00    +0.000 N 
ATOM     27  H   UNL     1       1.647   7.185  17.303  0.00  0.00    +0.000 HD
BRANCH  26  28
ATOM     28  CA  UNL     1       3.101   6.651  18.687  0.00  0.00    +0.000 C 
BRANCH  28  29
ATOM     29  C   UNL     1       3.867   5.932  17.579  0.00  0.00    +0.000 A 
ATOM     30  C   UNL     1       4.661   6.696  16.700  0.00  0.00    +0.000 A 
ATOM     31  C   UNL     1       5.472   6.086  15.745  0.00  0.00    +0.000 A 
ATOM     32  C   UNL     1       5.498   4.700  15.643  0.00  0.00    +0.000 A 
ATOM     33  C   UNL     1       4.705   3.924  16.489  0.00  0.00    +0.000 A 
ATOM     34  C   UNL     1       3.903   4.537  17.460  0.00  0.00    +0.000 A 
ENDBRANCH  28  29
BRANCH  28  35
ATOM     35  C   UNL     1       2.596   5.609  19.725  0.00  0.00    +0.000 C 
BRANCH  35  36
ATOM     36  O   UNL     1       2.179   6.230  20.948  0.00  0.00    +0.000 OA
ATOM     37  H   UNL     1       2.970   6.644  21.335  0.00  0.00    +0.000 HD
ENDBRANCH  35  36
ENDBRANCH  28  35
ENDBRANCH  26  28
ENDBRANCH   1  26
TORSDOF 8
ENDMDL
