MODEL 1
REMARK VINA RESULT:      -8.2      0.000      0.000
REMARK  Name = 
REMARK  7 active torsions:
REMARK  status: ('A' for Active; 'I' for Inactive)
REMARK    1  A    between atoms: C_1  and  C_2
REMARK    2  A    between atoms: C_2  and  C_4
REMARK    3  A    between atoms: C_5  and  C_6
REMARK    4  A    between atoms: C_12  and  O_13
REMARK    5  A    between atoms: O_13  and  C_14
REMARK    6  A    between atoms: C_14  and  C_15
REMARK    7  A    between atoms: C_22  and  O_23
REMARK                            x       y       z     vdW  Elec       q    Type
REMARK                         _______ _______ _______ _____ _____    ______ ____
ROOT
ATOM      1  C   UNL     1       3.932   3.323  19.848  0.00  0.00    +0.000 A 
ATOM      2  C   UNL     1       2.782   3.837  20.472  0.00  0.00    +0.000 A 
ATOM      3  C   UNL     1       2.054   3.141  21.593  0.00  0.00    +0.000 C 
ATOM      4  C   UNL     1       2.292   5.098  20.074  0.00  0.00    +0.000 A 
ATOM      5  C   UNL     1       2.919   5.861  19.073  0.00  0.00    +0.000 A 
ATOM      6  C   UNL     1       2.455   7.156  18.775  0.00  0.00    +0.000 A 
ATOM      7  C   UNL     1       3.095   7.939  17.818  0.00  0.00    +0.000 A 
ATOM      8  C   UNL     1       4.137   7.402  17.067  0.00  0.00    +0.000 A 
ATOM      9  C   UNL     1       4.565   6.091  17.306  0.00  0.00    +0.000 A 
ATOM     10  C   UNL     1       4.044   5.345  18.402  0.00  0.00    +0.000 A 
ATOM     11  C   UNL     1       4.585   4.129  18.897  0.00  0.00    +0.000 A 
ENDROOT
BRANCH   1  13
ATOM     12  C   UNL     1       4.084   0.784  19.227  0.00  0.00    +0.000 C 
ATOM     13  C   UNL     1       4.431   1.934  20.138  0.00  0.00    +0.000 C 
ATOM     14  O   UNL     1       5.081   1.727  21.165  0.00  0.00    +0.000 OA
ENDBRANCH   1  13
BRANCH  11  15
ATOM     15  O   UNL     1       5.848   3.772  18.493  0.00  0.00    +0.000 OA
ATOM     16  H   UNL     1       6.385   3.637  19.299  0.00  0.00    +0.000 HD
ENDBRANCH  11  15
BRANCH   9  17
ATOM     17  O   UNL     1       5.536   5.640  16.434  0.00  0.00    +0.000 OA
BRANCH  17  18
ATOM     18  C   UNL     1       5.166   4.500  15.635  0.00  0.00    +0.000 C 
BRANCH  18  19
ATOM     19  C   UNL     1       5.981   4.375  14.377  0.00  0.00    +0.000 A 
ATOM     20  C   UNL     1       5.541   3.571  13.321  0.00  0.00    +0.000 A 
ATOM     21  C   UNL     1       6.238   3.558  12.115  0.00  0.00    +0.000 A 
ATOM     22  C   UNL     1       7.380   4.344  11.962  0.00  0.00    +0.000 A 
ATOM     23  C   UNL     1       7.830   5.139  13.014  0.00  0.00    +0.000 A 
ATOM     24  C   UNL     1       7.135   5.155  14.222  0.00  0.00    +0.000 A 
ENDBRANCH  18  19
ENDBRANCH  17  18
ENDBRANCH   9  17
TORSDOF 5
ENDMDL
MODEL 2
REMARK VINA RESULT:      -8.1      0.073      1.011
REMARK  Name = 
REMARK  7 active torsions:
REMARK  status: ('A' for Active; 'I' for Inactive)
REMARK    1  A    between atoms: C_1  and  C_2
REMARK    2  A    between atoms: C_2  and  C_4
REMARK    3  A    between atoms: C_5  and  C_6
REMARK    4  A    between atoms: C_12  and  O_13
REMARK    5  A    between atoms: O_13  and  C_14
REMARK    6  A    between atoms: C_14  and  C_15
REMARK    7  A    between atoms: C_22  and  O_23
REMARK                            x       y       z     vdW  Elec       q    Type
REMARK                         _______ _______ _______ _____ _____    ______ ____
ROOT
ATOM      1  C   UNL     1       3.946   3.273  19.868  0.00  0.00    +0.000 A 
ATOM      2  C   UNL     1       2.785   3.782  20.474  0.00  0.00    +0.000 A 
ATOM      3  C   UNL     1       2.047   3.088  21.589  0.00  0.00    +0.000 C 
ATOM      4  C   UNL     1       2.290   5.037  20.061  0.00  0.00    +0.000 A 
ATOM      5  C   UNL     1       2.925   5.799  19.064  0.00  0.00    +0.000 A 
ATOM      6  C   UNL     1       2.454   7.088  18.752  0.00  0.00    +0.000 A 
ATOM      7  C   UNL     1       3.101   7.871  17.798  0.00  0.00    +0.000 A 
ATOM      8  C   UNL     1       4.157   7.337  17.064  0.00  0.00    +0.000 A 
ATOM      9  C   UNL     1       4.592   6.031  17.317  0.00  0.00    +0.000 A 
ATOM     10  C   UNL     1       4.062   5.287  18.411  0.00  0.00    +0.000 A 
ATOM     11  C   UNL     1       4.606   4.079  18.920  0.00  0.00    +0.000 A 
ENDROOT
BRANCH   1  13
ATOM     12  C   UNL     1       4.106   0.728  19.278  0.00  0.00    +0.000 C 
ATOM     13  C   UNL     1       4.453   1.891  20.173  0.00  0.00    +0.000 C 
ATOM     14  O   UNL     1       5.108   1.699  21.199  0.00  0.00    +0.000 OA
ENDBRANCH   1  13
BRANCH  11  15
ATOM     15  O   UNL     1       5.877   3.730  18.535  0.00  0.00    +0.000 OA
ATOM     16  H   UNL     1       5.995   4.027  17.611  0.00  0.00    +0.000 HD
ENDBRANCH  11  15
BRANCH   9  17
ATOM     17  O   UNL     1       5.577   5.582  16.460  0.00  0.00    +0.000 OA
BRANCH  17  18
ATOM     18  C   UNL     1       5.207   4.471  15.622  0.00  0.00    +0.000 C 
BRANCH  18  19
ATOM     19  C   UNL     1       5.935   4.459  14.306  0.00  0.00    +0.000 A 
ATOM     20  C   UNL     1       7.102   5.208  14.132  0.00  0.00    +0.000 A 
ATOM     21  C   UNL     1       7.836   5.096  12.953  0.00  0.00    +0.000 A 
ATOM     22  C   UNL     1       7.402   4.239  11.942  0.00  0.00    +0.000 A 
ATOM     23  C   UNL     1       6.233   3.498  12.104  0.00  0.00    +0.000 A 
ATOM     24  C   UNL     1       5.497   3.608  13.283  0.00  0.00    +0.000 A 
ENDBRANCH  18  19
ENDBRANCH  17  18
ENDBRANCH   9  17
TORSDOF 5
ENDMDL
MODEL 3
REMARK VINA RESULT:      -8.0      2.154      5.872
REMARK  Name = 
REMARK  7 active torsions:
REMARK  status: ('A' for Active; 'I' for Inactive)
REMARK    1  A    between atoms: C_1  and  C_2
REMARK    2  A    between atoms: C_2  and  C_4
REMARK    3  A    between atoms: C_5  and  C_6
REMARK    4  A    between atoms: C_12  and  O_13
REMARK    5  A    between atoms: O_13  and  C_14
REMARK    6  A    between atoms: C_14  and  C_15
REMARK    7  A    between atoms: C_22  and  O_23
REMARK                            x       y       z     vdW  Elec       q    Type
REMARK                         _______ _______ _______ _____ _____    ______ ____
ROOT
ATOM      1  C   UNL     1       2.596   7.068  19.261  0.00  0.00    +0.000 A 
ATOM      2  C   UNL     1       2.502   7.870  18.110  0.00  0.00    +0.000 A 
ATOM      3  C   UNL     1       1.569   9.045  17.981  0.00  0.00    +0.000 C 
ATOM      4  C   UNL     1       3.355   7.604  17.019  0.00  0.00    +0.000 A 
ATOM      5  C   UNL     1       4.302   6.565  17.046  0.00  0.00    +0.000 A 
ATOM      6  C   UNL     1       5.200   6.398  15.975  0.00  0.00    +0.000 A 
ATOM      7  C   UNL     1       6.171   5.400  16.010  0.00  0.00    +0.000 A 
ATOM      8  C   UNL     1       6.189   4.487  17.061  0.00  0.00    +0.000 A 
ATOM      9  C   UNL     1       5.259   4.601  18.100  0.00  0.00    +0.000 A 
ATOM     10  C   UNL     1       4.381   5.721  18.169  0.00  0.00    +0.000 A 
ATOM     11  C   UNL     1       3.594   6.076  19.297  0.00  0.00    +0.000 A 
ENDROOT
BRANCH   1  13
ATOM     12  C   UNL     1       1.430   8.556  21.072  0.00  0.00    +0.000 C 
ATOM     13  C   UNL     1       1.633   7.219  20.407  0.00  0.00    +0.000 C 
ATOM     14  O   UNL     1       1.050   6.224  20.842  0.00  0.00    +0.000 OA
ENDBRANCH   1  13
BRANCH  11  15
ATOM     15  O   UNL     1       3.887   5.485  20.501  0.00  0.00    +0.000 OA
ATOM     16  H   UNL     1       3.046   5.390  20.992  0.00  0.00    +0.000 HD
ENDBRANCH  11  15
BRANCH   9  17
ATOM     17  O   UNL     1       5.314   3.581  19.029  0.00  0.00    +0.000 OA
BRANCH  17  18
ATOM     18  C   UNL     1       4.541   2.410  18.708  0.00  0.00    +0.000 C 
BRANCH  18  19
ATOM     19  C   UNL     1       3.118   2.495  19.189  0.00  0.00    +0.000 A 
ATOM     20  C   UNL     1       2.831   2.540  20.557  0.00  0.00    +0.000 A 
ATOM     21  C   UNL     1       1.523   2.743  20.991  0.00  0.00    +0.000 A 
ATOM     22  C   UNL     1       0.497   2.896  20.059  0.00  0.00    +0.000 A 
ATOM     23  C   UNL     1       0.774   2.841  18.694  0.00  0.00    +0.000 A 
ATOM     24  C   UNL     1       2.083   2.638  18.257  0.00  0.00    +0.000 A 
ENDBRANCH  18  19
ENDBRANCH  17  18
ENDBRANCH   9  17
TORSDOF 5
ENDMDL
MODEL 4
REMARK VINA RESULT:      -8.0      2.346      6.221
REMARK  Name = 
REMARK  7 active torsions:
REMARK  status: ('A' for Active; 'I' for Inactive)
REMARK    1  A    between atoms: C_1  and  C_2
REMARK    2  A    between atoms: C_2  and  C_4
REMARK    3  A    between atoms: C_5  and  C_6
REMARK    4  A    between atoms: C_12  and  O_13
REMARK    5  A    between atoms: O_13  and  C_14
REMARK    6  A    between atoms: C_14  and  C_15
REMARK    7  A    between atoms: C_22  and  O_23
REMARK                            x       y       z     vdW  Elec       q    Type
REMARK                         _______ _______ _______ _____ _____    ______ ____
ROOT
ATOM      1  C   UNL     1       5.891   5.019  17.771  0.00  0.00    +0.000 A 
ATOM      2  C   UNL     1       5.583   4.285  16.613  0.00  0.00    +0.000 A 
ATOM      3  C   UNL     1       6.556   4.041  15.490  0.00  0.00    +0.000 C 
ATOM      4  C   UNL     1       4.308   3.692  16.496  0.00  0.00    +0.000 A 
ATOM      5  C   UNL     1       3.335   3.809  17.504  0.00  0.00    +0.000 A 
ATOM      6  C   UNL     1       2.112   3.121  17.392  0.00  0.00    +0.000 A 
ATOM      7  C   UNL     1       1.158   3.193  18.404  0.00  0.00    +0.000 A 
ATOM      8  C   UNL     1       1.363   4.040  19.490  0.00  0.00    +0.000 A 
ATOM      9  C   UNL     1       2.546   4.782  19.582  0.00  0.00    +0.000 A 
ATOM     10  C   UNL     1       3.605   4.580  18.651  0.00  0.00    +0.000 A 
ATOM     11  C   UNL     1       4.929   5.070  18.798  0.00  0.00    +0.000 A 
ENDROOT
BRANCH   1  13
ATOM     12  C   UNL     1       7.356   7.124  17.244  0.00  0.00    +0.000 C 
ATOM     13  C   UNL     1       7.183   5.778  17.901  0.00  0.00    +0.000 C 
ATOM     14  O   UNL     1       8.128   5.264  18.502  0.00  0.00    +0.000 OA
ENDBRANCH   1  13
BRANCH  11  15
ATOM     15  O   UNL     1       5.315   5.532  20.033  0.00  0.00    +0.000 OA
ATOM     16  H   UNL     1       6.292   5.509  20.061  0.00  0.00    +0.000 HD
ENDBRANCH  11  15
BRANCH   9  17
ATOM     17  O   UNL     1       2.589   5.656  20.650  0.00  0.00    +0.000 OA
BRANCH  17  18
ATOM     18  C   UNL     1       1.464   6.549  20.763  0.00  0.00    +0.000 C 
BRANCH  18  19
ATOM     19  C   UNL     1       1.610   7.786  19.919  0.00  0.00    +0.000 A 
ATOM     20  C   UNL     1       2.284   7.737  18.695  0.00  0.00    +0.000 A 
ATOM     21  C   UNL     1       2.307   8.855  17.864  0.00  0.00    +0.000 A 
ATOM     22  C   UNL     1       1.662  10.027  18.258  0.00  0.00    +0.000 A 
ATOM     23  C   UNL     1       0.998  10.086  19.481  0.00  0.00    +0.000 A 
ATOM     24  C   UNL     1       0.973   8.969  20.314  0.00  0.00    +0.000 A 
ENDBRANCH  18  19
ENDBRANCH  17  18
ENDBRANCH   9  17
TORSDOF 5
ENDMDL
MODEL 5
REMARK VINA RESULT:      -7.8      2.238      3.174
REMARK  Name = 
REMARK  7 active torsions:
REMARK  status: ('A' for Active; 'I' for Inactive)
REMARK    1  A    between atoms: C_1  and  C_2
REMARK    2  A    between atoms: C_2  and  C_4
REMARK    3  A    between atoms: C_5  and  C_6
REMARK    4  A    between atoms: C_12  and  O_13
REMARK    5  A    between atoms: O_13  and  C_14
REMARK    6  A    between atoms: C_14  and  C_15
REMARK    7  A    between atoms: C_22  and  O_23
REMARK                            x       y       z     vdW  Elec       q    Type
REMARK                         _______ _______ _______ _____ _____    ______ ____
ROOT
ATOM      1  C   UNL     1       2.793   4.139  18.468  0.00  0.00    +0.000 A 
ATOM      2  C   UNL     1       3.008   4.993  19.564  0.00  0.00    +0.000 A 
ATOM      3  C   UNL     1       1.945   5.350  20.570  0.00  0.00    +0.000 C 
ATOM      4  C   UNL     1       4.298   5.520  19.779  0.00  0.00    +0.000 A 
ATOM      5  C   UNL     1       5.381   5.216  18.935  0.00  0.00    +0.000 A 
ATOM      6  C   UNL     1       6.672   5.683  19.242  0.00  0.00    +0.000 A 
ATOM      7  C   UNL     1       7.759   5.352  18.437  0.00  0.00    +0.000 A 
ATOM      8  C   UNL     1       7.557   4.642  17.257  0.00  0.00    +0.000 A 
ATOM      9  C   UNL     1       6.267   4.228  16.904  0.00  0.00    +0.000 A 
ATOM     10  C   UNL     1       5.177   4.401  17.805  0.00  0.00    +0.000 A 
ATOM     11  C   UNL     1       3.901   3.792  17.672  0.00  0.00    +0.000 A 
ENDROOT
BRANCH   1  13
ATOM     12  C   UNL     1       0.808   2.474  18.838  0.00  0.00    +0.000 C 
ATOM     13  C   UNL     1       1.418   3.646  18.112  0.00  0.00    +0.000 C 
ATOM     14  O   UNL     1       0.810   4.170  17.177  0.00  0.00    +0.000 OA
ENDBRANCH   1  13
BRANCH  11  15
ATOM     15  O   UNL     1       3.770   2.751  16.787  0.00  0.00    +0.000 OA
ATOM     16  H   UNL     1       2.956   2.265  17.025  0.00  0.00    +0.000 HD
ENDBRANCH  11  15
BRANCH   9  17
ATOM     17  O   UNL     1       6.182   3.622  15.666  0.00  0.00    +0.000 OA
BRANCH  17  18
ATOM     18  C   UNL     1       6.291   4.508  14.536  0.00  0.00    +0.000 C 
BRANCH  18  19
ATOM     19  C   UNL     1       6.013   3.824  13.225  0.00  0.00    +0.000 A 
ATOM     20  C   UNL     1       7.031   3.149  12.545  0.00  0.00    +0.000 A 
ATOM     21  C   UNL     1       6.738   2.416  11.397  0.00  0.00    +0.000 A 
ATOM     22  C   UNL     1       5.428   2.360  10.922  0.00  0.00    +0.000 A 
ATOM     23  C   UNL     1       4.411   3.040  11.589  0.00  0.00    +0.000 A 
ATOM     24  C   UNL     1       4.701   3.774  12.738  0.00  0.00    +0.000 A 
ENDBRANCH  18  19
ENDBRANCH  17  18
ENDBRANCH   9  17
TORSDOF 5
ENDMDL
MODEL 6
REMARK VINA RESULT:      -7.8      2.147      5.822
REMARK  Name = 
REMARK  7 active torsions:
REMARK  status: ('A' for Active; 'I' for Inactive)
REMARK    1  A    between atoms: C_1  and  C_2
REMARK    2  A    between atoms: C_2  and  C_4
REMARK    3  A    between atoms: C_5  and  C_6
REMARK    4  A    between atoms: C_12  and  O_13
REMARK    5  A    between atoms: O_13  and  C_14
REMARK    6  A    between atoms: C_14  and  C_15
REMARK    7  A    between atoms: C_22  and  O_23
REMARK                            x       y       z     vdW  Elec       q    Type
REMARK                         _______ _______ _______ _____ _____    ______ ____
ROOT
ATOM      1  C   UNL     1       2.619   7.058  19.249  0.00  0.00    +0.000 A 
ATOM      2  C   UNL     1       2.508   7.855  18.096  0.00  0.00    +0.000 A 
ATOM      3  C   UNL     1       1.558   9.016  17.968  0.00  0.00    +0.000 C 
ATOM      4  C   UNL     1       3.359   7.598  17.001  0.00  0.00    +0.000 A 
ATOM      5  C   UNL     1       4.321   6.572  17.026  0.00  0.00    +0.000 A 
ATOM      6  C   UNL     1       5.215   6.414  15.951  0.00  0.00    +0.000 A 
ATOM      7  C   UNL     1       6.200   5.430  15.983  0.00  0.00    +0.000 A 
ATOM      8  C   UNL     1       6.237   4.521  17.037  0.00  0.00    +0.000 A 
ATOM      9  C   UNL     1       5.310   4.624  18.080  0.00  0.00    +0.000 A 
ATOM     10  C   UNL     1       4.417   5.732  18.151  0.00  0.00    +0.000 A 
ATOM     11  C   UNL     1       3.631   6.080  19.282  0.00  0.00    +0.000 A 
ENDROOT
BRANCH   1  13
ATOM     12  C   UNL     1       1.448   8.533  21.067  0.00  0.00    +0.000 C 
ATOM     13  C   UNL     1       1.660   7.198  20.399  0.00  0.00    +0.000 C 
ATOM     14  O   UNL     1       1.089   6.198  20.835  0.00  0.00    +0.000 OA
ENDBRANCH   1  13
BRANCH  11  15
ATOM     15  O   UNL     1       3.938   5.496  20.486  0.00  0.00    +0.000 OA
ATOM     16  H   UNL     1       4.423   6.159  21.017  0.00  0.00    +0.000 HD
ENDBRANCH  11  15
BRANCH   9  17
ATOM     17  O   UNL     1       5.385   3.609  19.013  0.00  0.00    +0.000 OA
BRANCH  17  18
ATOM     18  C   UNL     1       4.551   2.465  18.748  0.00  0.00    +0.000 C 
BRANCH  18  19
ATOM     19  C   UNL     1       3.130   2.656  19.203  0.00  0.00    +0.000 A 
ATOM     20  C   UNL     1       2.093   2.766  18.271  0.00  0.00    +0.000 A 
ATOM     21  C   UNL     1       0.769   2.819  18.701  0.00  0.00    +0.000 A 
ATOM     22  C   UNL     1       0.478   2.767  20.064  0.00  0.00    +0.000 A 
ATOM     23  C   UNL     1       1.507   2.669  20.998  0.00  0.00    +0.000 A 
ATOM     24  C   UNL     1       2.833   2.615  20.571  0.00  0.00    +0.000 A 
ENDBRANCH  18  19
ENDBRANCH  17  18
ENDBRANCH   9  17
TORSDOF 5
ENDMDL
MODEL 7
REMARK VINA RESULT:      -7.7      2.675      6.246
REMARK  Name = 
REMARK  7 active torsions:
REMARK  status: ('A' for Active; 'I' for Inactive)
REMARK    1  A    between atoms: C_1  and  C_2
REMARK    2  A    between atoms: C_2  and  C_4
REMARK    3  A    between atoms: C_5  and  C_6
REMARK    4  A    between atoms: C_12  and  O_13
REMARK    5  A    between atoms: O_13  and  C_14
REMARK    6  A    between atoms: C_14  and  C_15
REMARK    7  A    between atoms: C_22  and  O_23
REMARK                            x       y       z     vdW  Elec       q    Type
REMARK                         _______ _______ _______ _____ _____    ______ ____
ROOT
ATOM      1  C   UNL     1       2.710   3.504  19.067  0.00  0.00    +0.000 A 
ATOM      2  C   UNL     1       3.565   2.655  18.342  0.00  0.00    +0.000 A 
ATOM      3  C   UNL     1       3.598   1.159  18.507  0.00  0.00    +0.000 C 
ATOM      4  C   UNL     1       4.417   3.213  17.366  0.00  0.00    +0.000 A 
ATOM      5  C   UNL     1       4.436   4.591  17.090  0.00  0.00    +0.000 A 
ATOM      6  C   UNL     1       5.228   5.092  16.041  0.00  0.00    +0.000 A 
ATOM      7  C   UNL     1       5.222   6.450  15.729  0.00  0.00    +0.000 A 
ATOM      8  C   UNL     1       4.511   7.341  16.528  0.00  0.00    +0.000 A 
ATOM      9  C   UNL     1       3.772   6.865  17.616  0.00  0.00    +0.000 A 
ATOM     10  C   UNL     1       3.622   5.465  17.836  0.00  0.00    +0.000 A 
ATOM     11  C   UNL     1       2.694   4.871  18.731  0.00  0.00    +0.000 A 
ENDROOT
BRANCH   1  13
ATOM     12  C   UNL     1       2.485   2.721  21.555  0.00  0.00    +0.000 C 
ATOM     13  C   UNL     1       1.871   2.991  20.205  0.00  0.00    +0.000 C 
ATOM     14  O   UNL     1       0.682   2.732  20.011  0.00  0.00    +0.000 OA
ENDBRANCH   1  13
BRANCH  11  15
ATOM     15  O   UNL     1       1.676   5.653  19.220  0.00  0.00    +0.000 OA
ATOM     16  H   UNL     1       2.064   6.515  19.469  0.00  0.00    +0.000 HD
ENDBRANCH  11  15
BRANCH   9  17
ATOM     17  O   UNL     1       3.193   7.852  18.388  0.00  0.00    +0.000 OA
BRANCH  17  18
ATOM     18  C   UNL     1       2.231   8.682  17.710  0.00  0.00    +0.000 C 
BRANCH  18  19
ATOM     19  C   UNL     1       1.177   9.233  18.631  0.00  0.00    +0.000 A 
ATOM     20  C   UNL     1       1.262   9.030  20.012  0.00  0.00    +0.000 A 
ATOM     21  C   UNL     1       0.351   9.646  20.867  0.00  0.00    +0.000 A 
ATOM     22  C   UNL     1      -0.651  10.463  20.344  0.00  0.00    +0.000 A 
ATOM     23  C   UNL     1      -0.748  10.661  18.968  0.00  0.00    +0.000 A 
ATOM     24  C   UNL     1       0.162  10.046  18.110  0.00  0.00    +0.000 A 
ENDBRANCH  18  19
ENDBRANCH  17  18
ENDBRANCH   9  17
TORSDOF 5
ENDMDL
MODEL 8
REMARK VINA RESULT:      -7.7      2.635      6.186
REMARK  Name = 
REMARK  7 active torsions:
REMARK  status: ('A' for Active; 'I' for Inactive)
REMARK    1  A    between atoms: C_1  and  C_2
REMARK    2  A    between atoms: C_2  and  C_4
REMARK    3  A    between atoms: C_5  and  C_6
REMARK    4  A    between atoms: C_12  and  O_13
REMARK    5  A    between atoms: O_13  and  C_14
REMARK    6  A    between atoms: C_14  and  C_15
REMARK    7  A    between atoms: C_22  and  O_23
REMARK                            x       y       z     vdW  Elec       q    Type
REMARK                         _______ _______ _______ _____ _____    ______ ____
ROOT
ATOM      1  C   UNL     1       2.714   3.471  19.082  0.00  0.00    +0.000 A 
ATOM      2  C   UNL     1       3.561   2.607  18.367  0.00  0.00    +0.000 A 
ATOM      3  C   UNL     1       3.581   1.112  18.549  0.00  0.00    +0.000 C 
ATOM      4  C   UNL     1       4.417   3.146  17.384  0.00  0.00    +0.000 A 
ATOM      5  C   UNL     1       4.447   4.521  17.092  0.00  0.00    +0.000 A 
ATOM      6  C   UNL     1       5.243   5.003  16.036  0.00  0.00    +0.000 A 
ATOM      7  C   UNL     1       5.248   6.357  15.709  0.00  0.00    +0.000 A 
ATOM      8  C   UNL     1       4.546   7.263  16.498  0.00  0.00    +0.000 A 
ATOM      9  C   UNL     1       3.803   6.806  17.592  0.00  0.00    +0.000 A 
ATOM     10  C   UNL     1       3.642   5.410  17.829  0.00  0.00    +0.000 A 
ATOM     11  C   UNL     1       2.709   4.834  18.731  0.00  0.00    +0.000 A 
ENDROOT
BRANCH   1  13
ATOM     12  C   UNL     1       2.480   2.740  21.585  0.00  0.00    +0.000 C 
ATOM     13  C   UNL     1       1.871   2.978  20.226  0.00  0.00    +0.000 C 
ATOM     14  O   UNL     1       0.684   2.711  20.032  0.00  0.00    +0.000 OA
ENDBRANCH   1  13
BRANCH  11  15
ATOM     15  O   UNL     1       1.699   5.631  19.212  0.00  0.00    +0.000 OA
ATOM     16  H   UNL     1       1.827   6.524  18.836  0.00  0.00    +0.000 HD
ENDBRANCH  11  15
BRANCH   9  17
ATOM     17  O   UNL     1       3.233   7.807  18.353  0.00  0.00    +0.000 OA
BRANCH  17  18
ATOM     18  C   UNL     1       2.260   8.622  17.673  0.00  0.00    +0.000 C 
BRANCH  18  19
ATOM     19  C   UNL     1       1.272   9.262  18.609  0.00  0.00    +0.000 A 
ATOM     20  C   UNL     1       0.211  10.025  18.111  0.00  0.00    +0.000 A 
ATOM     21  C   UNL     1      -0.768  10.510  18.976  0.00  0.00    +0.000 A 
ATOM     22  C   UNL     1      -0.686  10.238  20.341  0.00  0.00    +0.000 A 
ATOM     23  C   UNL     1       0.374   9.488  20.846  0.00  0.00    +0.000 A 
ATOM     24  C   UNL     1       1.355   9.001  19.983  0.00  0.00    +0.000 A 
ENDBRANCH  18  19
ENDBRANCH  17  18
ENDBRANCH   9  17
TORSDOF 5
ENDMDL
MODEL 9
REMARK VINA RESULT:      -7.7      3.170      6.095
REMARK  Name = 
REMARK  7 active torsions:
REMARK  status: ('A' for Active; 'I' for Inactive)
REMARK    1  A    between atoms: C_1  and  C_2
REMARK    2  A    between atoms: C_2  and  C_4
REMARK    3  A    between atoms: C_5  and  C_6
REMARK    4  A    between atoms: C_12  and  O_13
REMARK    5  A    between atoms: O_13  and  C_14
REMARK    6  A    between atoms: C_14  and  C_15
REMARK    7  A    between atoms: C_22  and  O_23
REMARK                            x       y       z     vdW  Elec       q    Type
REMARK                         _______ _______ _______ _____ _____    ______ ____
ROOT
ATOM      1  C   UNL     1       2.911   3.458  19.315  0.00  0.00    +0.000 A 
ATOM      2  C   UNL     1       4.230   3.071  19.609  0.00  0.00    +0.000 A 
ATOM      3  C   UNL     1       4.590   1.797  20.327  0.00  0.00    +0.000 C 
ATOM      4  C   UNL     1       5.296   3.884  19.171  0.00  0.00    +0.000 A 
ATOM      5  C   UNL     1       5.083   5.070  18.447  0.00  0.00    +0.000 A 
ATOM      6  C   UNL     1       6.177   5.800  17.945  0.00  0.00    +0.000 A 
ATOM      7  C   UNL     1       5.977   6.952  17.189  0.00  0.00    +0.000 A 
ATOM      8  C   UNL     1       4.690   7.453  17.015  0.00  0.00    +0.000 A 
ATOM      9  C   UNL     1       3.598   6.774  17.566  0.00  0.00    +0.000 A 
ATOM     10  C   UNL     1       3.769   5.502  18.184  0.00  0.00    +0.000 A 
ATOM     11  C   UNL     1       2.719   4.612  18.533  0.00  0.00    +0.000 A 
ENDROOT
BRANCH   1  13
ATOM     12  C   UNL     1       1.370   2.783  21.321  0.00  0.00    +0.000 C 
ATOM     13  C   UNL     1       1.730   2.703  19.859  0.00  0.00    +0.000 C 
ATOM     14  O   UNL     1       1.086   1.966  19.110  0.00  0.00    +0.000 OA
ENDBRANCH   1  13
BRANCH  11  15
ATOM     15  O   UNL     1       1.473   4.843  18.002  0.00  0.00    +0.000 OA
ATOM     16  H   UNL     1       0.864   5.009  18.749  0.00  0.00    +0.000 HD
ENDBRANCH  11  15
BRANCH   9  17
ATOM     17  O   UNL     1       2.387   7.421  17.411  0.00  0.00    +0.000 OA
BRANCH  17  18
ATOM     18  C   UNL     1       2.351   8.783  17.877  0.00  0.00    +0.000 C 
BRANCH  18  19
ATOM     19  C   UNL     1       1.530   8.956  19.125  0.00  0.00    +0.000 A 
ATOM     20  C   UNL     1       0.486   9.884  19.167  0.00  0.00    +0.000 A 
ATOM     21  C   UNL     1      -0.347   9.951  20.283  0.00  0.00    +0.000 A 
ATOM     22  C   UNL     1      -0.134   9.093  21.362  0.00  0.00    +0.000 A 
ATOM     23  C   UNL     1       0.912   8.173  21.331  0.00  0.00    +0.000 A 
ATOM     24  C   UNL     1       1.746   8.104  20.216  0.00  0.00    +0.000 A 
ENDBRANCH  18  19
ENDBRANCH  17  18
ENDBRANCH   9  17
TORSDOF 5
ENDMDL
