MODEL 1
REMARK VINA RESULT:      -8.5      0.000      0.000
REMARK  Name = 
REMARK  8 active torsions:
REMARK  status: ('A' for Active; 'I' for Inactive)
REMARK    1  A    between atoms: N_1  and  C_2
REMARK    2  A    between atoms: N_10  and  C_11
REMARK    3  A    between atoms: C_13  and  C_14
REMARK    4  A    between atoms: N_16  and  C_17
REMARK    5  A    between atoms: C_17  and  C_18
REMARK    6  A    between atoms: C_18  and  C_19
REMARK    7  A    between atoms: C_25  and  O_26
REMARK    8  A    between atoms: C_27  and  O_28
REMARK                            x       y       z     vdW  Elec       q    Type
REMARK                         _______ _______ _______ _____ _____    ______ ____
ROOT
ATOM      1  C   UNL     1       5.298   4.483  16.862  0.00  0.00    +0.000 C 
ATOM      2  O   UNL     1       6.405   4.234  17.756  0.00  0.00    +0.000 OA
ATOM      3  C   UNL     1       7.493   5.098  17.372  0.00  0.00    +0.000 C 
ATOM      4  C   UNL     1       7.150   5.667  15.992  0.00  0.00    +0.000 C 
ATOM      5  C   UNL     1       5.631   5.695  15.994  0.00  0.00    +0.000 C 
ENDROOT
BRANCH   1  14
ATOM      6  C   UNL     1       1.440   3.405  19.590  0.00  0.00    +0.000 A 
ATOM      7  N   UNL     1       1.598   2.063  19.506  0.00  0.00    +0.000 NA
ATOM      8  C   UNL     1       2.627   1.582  18.774  0.00  0.00    +0.000 A 
ATOM      9  N   UNL     1       3.548   2.271  18.070  0.00  0.00    +0.000 NA
ATOM     10  C   UNL     1       3.332   3.592  18.164  0.00  0.00    +0.000 A 
ATOM     11  C   UNL     1       2.328   4.227  18.876  0.00  0.00    +0.000 A 
ATOM     12  N   UNL     1       2.420   5.598  18.738  0.00  0.00    +0.000 NA
ATOM     13  C   UNL     1       3.482   5.787  17.982  0.00  0.00    +0.000 A 
ATOM     14  N   UNL     1       4.067   4.604  17.614  0.00  0.00    +0.000 N 
BRANCH   6  15
ATOM     15  N   UNL     1       0.427   3.902  20.392  0.00  0.00    +0.000 N 
ATOM     16  H   UNL     1       0.389   4.909  20.454  0.00  0.00    +0.000 HD
ATOM     17  H   UNL     1       0.186   3.337  21.196  0.00  0.00    +0.000 HD
ENDBRANCH   6  15
ENDBRANCH   1  14
BRANCH   3  18
ATOM     18  C   UNL     1       7.763   6.188  18.425  0.00  0.00    +0.000 C 
ATOM     19  O   UNL     1       7.671   5.982  19.634  0.00  0.00    +0.000 OA
ATOM     20  N   UNL     1       8.044   7.439  17.893  0.00  0.00    +0.000 N 
ATOM     21  H   UNL     1       8.309   7.482  16.915  0.00  0.00    +0.000 HD
BRANCH  20  22
ATOM     22  C   UNL     1       8.394   8.539  18.781  0.00  0.00    +0.000 C 
BRANCH  22  23
ATOM     23  C   UNL     1       8.545   9.880  18.059  0.00  0.00    +0.000 C 
BRANCH  23  24
ATOM     24  C   UNL     1       9.597  10.762  18.695  0.00  0.00    +0.000 A 
ATOM     25  C   UNL     1      10.603  11.349  17.906  0.00  0.00    +0.000 A 
ATOM     26  C   UNL     1      11.571  12.166  18.492  0.00  0.00    +0.000 A 
ATOM     27  C   UNL     1      11.553  12.404  19.864  0.00  0.00    +0.000 A 
ATOM     28  C   UNL     1      10.566  11.816  20.658  0.00  0.00    +0.000 A 
ATOM     29  C   UNL     1       9.598  10.995  20.073  0.00  0.00    +0.000 A 
ENDBRANCH  23  24
ENDBRANCH  22  23
ENDBRANCH  20  22
ENDBRANCH   3  18
BRANCH   4  30
ATOM     30  O   UNL     1       7.584   4.793  14.926  0.00  0.00    +0.000 OA
ATOM     31  H   UNL     1       6.963   4.047  14.845  0.00  0.00    +0.000 HD
ENDBRANCH   4  30
BRANCH   5  32
ATOM     32  O   UNL     1       5.088   5.554  14.676  0.00  0.00    +0.000 OA
ATOM     33  H   UNL     1       5.075   4.595  14.478  0.00  0.00    +0.000 HD
ENDBRANCH   5  32
TORSDOF 8
ENDMDL
MODEL 2
REMARK VINA RESULT:      -8.4      1.181      1.336
REMARK  Name = 
REMARK  8 active torsions:
REMARK  status: ('A' for Active; 'I' for Inactive)
REMARK    1  A    between atoms: N_1  and  C_2
REMARK    2  A    between atoms: N_10  and  C_11
REMARK    3  A    between atoms: C_13  and  C_14
REMARK    4  A    between atoms: N_16  and  C_17
REMARK    5  A    between atoms: C_17  and  C_18
REMARK    6  A    between atoms: C_18  and  C_19
REMARK    7  A    between atoms: C_25  and  O_26
REMARK    8  A    between atoms: C_27  and  O_28
REMARK                            x       y       z     vdW  Elec       q    Type
REMARK                         _______ _______ _______ _____ _____    ______ ____
ROOT
ATOM      1  C   UNL     1       5.737   4.567  17.606  0.00  0.00    +0.000 C 
ATOM      2  O   UNL     1       6.814   5.275  18.259  0.00  0.00    +0.000 OA
ATOM      3  C   UNL     1       7.496   6.066  17.267  0.00  0.00    +0.000 C 
ATOM      4  C   UNL     1       7.019   5.577  15.896  0.00  0.00    +0.000 C 
ATOM      5  C   UNL     1       5.610   5.081  16.173  0.00  0.00    +0.000 C 
ENDROOT
BRANCH   1  14
ATOM      6  C   UNL     1       1.431   3.559  19.589  0.00  0.00    +0.000 A 
ATOM      7  N   UNL     1       1.167   2.502  18.784  0.00  0.00    +0.000 NA
ATOM      8  C   UNL     1       2.074   2.173  17.838  0.00  0.00    +0.000 A 
ATOM      9  N   UNL     1       3.245   2.779  17.553  0.00  0.00    +0.000 NA
ATOM     10  C   UNL     1       3.446   3.833  18.359  0.00  0.00    +0.000 A 
ATOM     11  C   UNL     1       2.614   4.286  19.369  0.00  0.00    +0.000 A 
ATOM     12  N   UNL     1       3.149   5.399  19.985  0.00  0.00    +0.000 NA
ATOM     13  C   UNL     1       4.301   5.595  19.377  0.00  0.00    +0.000 A 
ATOM     14  N   UNL     1       4.524   4.672  18.390  0.00  0.00    +0.000 N 
BRANCH   6  15
ATOM     15  N   UNL     1       0.536   3.858  20.601  0.00  0.00    +0.000 N 
ATOM     16  H   UNL     1      -0.176   4.531  20.356  0.00  0.00    +0.000 HD
ATOM     17  H   UNL     1       0.914   3.842  21.540  0.00  0.00    +0.000 HD
ENDBRANCH   6  15
ENDBRANCH   1  14
BRANCH   3  18
ATOM     18  C   UNL     1       7.276   7.575  17.479  0.00  0.00    +0.000 C 
ATOM     19  O   UNL     1       6.222   8.140  17.190  0.00  0.00    +0.000 OA
ATOM     20  N   UNL     1       8.389   8.254  17.952  0.00  0.00    +0.000 N 
ATOM     21  H   UNL     1       9.134   7.702  18.363  0.00  0.00    +0.000 HD
BRANCH  20  22
ATOM     22  C   UNL     1       8.289   9.673  18.268  0.00  0.00    +0.000 C 
BRANCH  22  23
ATOM     23  C   UNL     1       9.193  10.104  19.426  0.00  0.00    +0.000 C 
BRANCH  23  24
ATOM     24  C   UNL     1      10.213  11.140  19.006  0.00  0.00    +0.000 A 
ATOM     25  C   UNL     1      10.166  11.700  17.717  0.00  0.00    +0.000 A 
ATOM     26  C   UNL     1      11.105  12.659  17.331  0.00  0.00    +0.000 A 
ATOM     27  C   UNL     1      12.098  13.066  18.217  0.00  0.00    +0.000 A 
ATOM     28  C   UNL     1      12.162  12.506  19.495  0.00  0.00    +0.000 A 
ATOM     29  C   UNL     1      11.225  11.544  19.882  0.00  0.00    +0.000 A 
ENDBRANCH  23  24
ENDBRANCH  22  23
ENDBRANCH  20  22
ENDBRANCH   3  18
BRANCH   4  30
ATOM     30  O   UNL     1       7.804   4.461  15.419  0.00  0.00    +0.000 OA
ATOM     31  H   UNL     1       8.737   4.731  15.343  0.00  0.00    +0.000 HD
ENDBRANCH   4  30
BRANCH   5  32
ATOM     32  O   UNL     1       5.222   4.033  15.279  0.00  0.00    +0.000 OA
ATOM     33  H   UNL     1       5.161   4.432  14.387  0.00  0.00    +0.000 HD
ENDBRANCH   5  32
TORSDOF 8
ENDMDL
MODEL 3
REMARK VINA RESULT:      -8.3      3.498      6.038
REMARK  Name = 
REMARK  8 active torsions:
REMARK  status: ('A' for Active; 'I' for Inactive)
REMARK    1  A    between atoms: N_1  and  C_2
REMARK    2  A    between atoms: N_10  and  C_11
REMARK    3  A    between atoms: C_13  and  C_14
REMARK    4  A    between atoms: N_16  and  C_17
REMARK    5  A    between atoms: C_17  and  C_18
REMARK    6  A    between atoms: C_18  and  C_19
REMARK    7  A    between atoms: C_25  and  O_26
REMARK    8  A    between atoms: C_27  and  O_28
REMARK                            x       y       z     vdW  Elec       q    Type
REMARK                         _______ _______ _______ _____ _____    ______ ____
ROOT
ATOM      1  C   UNL     1       2.551   5.210  20.119  0.00  0.00    +0.000 C 
ATOM      2  O   UNL     1       3.873   4.659  19.931  0.00  0.00    +0.000 OA
ATOM      3  C   UNL     1       3.740   3.244  19.695  0.00  0.00    +0.000 C 
ATOM      4  C   UNL     1       2.306   2.859  20.069  0.00  0.00    +0.000 C 
ATOM      5  C   UNL     1       1.520   4.130  19.795  0.00  0.00    +0.000 C 
ENDROOT
BRANCH   1  14
ATOM      6  C   UNL     1       1.584   9.799  18.898  0.00  0.00    +0.000 A 
ATOM      7  N   UNL     1       0.930  10.099  20.045  0.00  0.00    +0.000 NA
ATOM      8  C   UNL     1       0.791   9.130  20.977  0.00  0.00    +0.000 A 
ATOM      9  N   UNL     1       1.210   7.849  20.922  0.00  0.00    +0.000 NA
ATOM     10  C   UNL     1       1.826   7.597  19.758  0.00  0.00    +0.000 A 
ATOM     11  C   UNL     1       2.046   8.484  18.717  0.00  0.00    +0.000 A 
ATOM     12  N   UNL     1       2.712   7.867  17.677  0.00  0.00    +0.000 NA
ATOM     13  C   UNL     1       2.920   6.637  18.098  0.00  0.00    +0.000 A 
ATOM     14  N   UNL     1       2.405   6.428  19.350  0.00  0.00    +0.000 N 
BRANCH   6  15
ATOM     15  N   UNL     1       1.786  10.806  17.970  0.00  0.00    +0.000 N 
ATOM     16  H   UNL     1       1.713  11.744  18.336  0.00  0.00    +0.000 HD
ATOM     17  H   UNL     1       1.473  10.605  17.028  0.00  0.00    +0.000 HD
ENDBRANCH   6  15
ENDBRANCH   1  14
BRANCH   3  18
ATOM     18  C   UNL     1       4.110   2.863  18.250  0.00  0.00    +0.000 C 
ATOM     19  O   UNL     1       3.826   1.771  17.757  0.00  0.00    +0.000 OA
ATOM     20  N   UNL     1       4.854   3.821  17.578  0.00  0.00    +0.000 N 
ATOM     21  H   UNL     1       4.864   4.759  17.962  0.00  0.00    +0.000 HD
BRANCH  20  22
ATOM     22  C   UNL     1       5.203   3.615  16.179  0.00  0.00    +0.000 C 
BRANCH  22  23
ATOM     23  C   UNL     1       6.590   4.148  15.812  0.00  0.00    +0.000 C 
BRANCH  23  24
ATOM     24  C   UNL     1       7.107   5.152  16.819  0.00  0.00    +0.000 A 
ATOM     25  C   UNL     1       7.035   6.530  16.549  0.00  0.00    +0.000 A 
ATOM     26  C   UNL     1       7.508   7.457  17.480  0.00  0.00    +0.000 A 
ATOM     27  C   UNL     1       8.060   7.024  18.683  0.00  0.00    +0.000 A 
ATOM     28  C   UNL     1       8.148   5.657  18.956  0.00  0.00    +0.000 A 
ATOM     29  C   UNL     1       7.678   4.728  18.023  0.00  0.00    +0.000 A 
ENDBRANCH  23  24
ENDBRANCH  22  23
ENDBRANCH  20  22
ENDBRANCH   3  18
BRANCH   4  30
ATOM     30  O   UNL     1       2.181   2.547  21.475  0.00  0.00    +0.000 OA
ATOM     31  H   UNL     1       1.719   1.696  21.578  0.00  0.00    +0.000 HD
ENDBRANCH   4  30
BRANCH   5  32
ATOM     32  O   UNL     1       0.368   4.244  20.637  0.00  0.00    +0.000 OA
ATOM     33  H   UNL     1       0.632   3.915  21.521  0.00  0.00    +0.000 HD
ENDBRANCH   5  32
TORSDOF 8
ENDMDL
MODEL 4
REMARK VINA RESULT:      -8.1      4.413      7.570
REMARK  Name = 
REMARK  8 active torsions:
REMARK  status: ('A' for Active; 'I' for Inactive)
REMARK    1  A    between atoms: N_1  and  C_2
REMARK    2  A    between atoms: N_10  and  C_11
REMARK    3  A    between atoms: C_13  and  C_14
REMARK    4  A    between atoms: N_16  and  C_17
REMARK    5  A    between atoms: C_17  and  C_18
REMARK    6  A    between atoms: C_18  and  C_19
REMARK    7  A    between atoms: C_25  and  O_26
REMARK    8  A    between atoms: C_27  and  O_28
REMARK                            x       y       z     vdW  Elec       q    Type
REMARK                         _______ _______ _______ _____ _____    ______ ____
ROOT
ATOM      1  C   UNL     1       4.585   3.875  17.424  0.00  0.00    +0.000 C 
ATOM      2  O   UNL     1       3.365   4.576  17.098  0.00  0.00    +0.000 OA
ATOM      3  C   UNL     1       2.679   4.876  18.329  0.00  0.00    +0.000 C 
ATOM      4  C   UNL     1       3.345   4.045  19.429  0.00  0.00    +0.000 C 
ATOM      5  C   UNL     1       4.776   3.900  18.940  0.00  0.00    +0.000 C 
ENDROOT
BRANCH   1  14
ATOM      6  C   UNL     1       7.519   5.078  13.759  0.00  0.00    +0.000 A 
ATOM      7  N   UNL     1       6.924   4.270  12.851  0.00  0.00    +0.000 NA
ATOM      8  C   UNL     1       5.879   3.512  13.253  0.00  0.00    +0.000 A 
ATOM      9  N   UNL     1       5.332   3.425  14.483  0.00  0.00    +0.000 NA
ATOM     10  C   UNL     1       5.974   4.223  15.349  0.00  0.00    +0.000 A 
ATOM     11  C   UNL     1       7.050   5.055  15.083  0.00  0.00    +0.000 A 
ATOM     12  N   UNL     1       7.446   5.725  16.223  0.00  0.00    +0.000 NA
ATOM     13  C   UNL     1       6.602   5.329  17.153  0.00  0.00    +0.000 A 
ATOM     14  N   UNL     1       5.693   4.424  16.671  0.00  0.00    +0.000 N 
BRANCH   6  15
ATOM     15  N   UNL     1       8.546   5.905  13.335  0.00  0.00    +0.000 N 
ATOM     16  H   UNL     1       8.793   5.812  12.361  0.00  0.00    +0.000 HD
ATOM     17  H   UNL     1       9.263   6.102  14.022  0.00  0.00    +0.000 HD
ENDBRANCH   6  15
ENDBRANCH   1  14
BRANCH   3  18
ATOM     18  C   UNL     1       2.671   6.385  18.634  0.00  0.00    +0.000 C 
ATOM     19  O   UNL     1       3.267   7.206  17.939  0.00  0.00    +0.000 OA
ATOM     20  N   UNL     1       2.000   6.729  19.798  0.00  0.00    +0.000 N 
ATOM     21  H   UNL     1       1.366   6.043  20.192  0.00  0.00    +0.000 HD
BRANCH  20  22
ATOM     22  C   UNL     1       1.853   8.133  20.159  0.00  0.00    +0.000 C 
BRANCH  22  23
ATOM     23  C   UNL     1       1.363   8.345  21.593  0.00  0.00    +0.000 C 
BRANCH  23  24
ATOM     24  C   UNL     1       0.402   9.508  21.708  0.00  0.00    +0.000 A 
ATOM     25  C   UNL     1      -0.207   9.806  22.940  0.00  0.00    +0.000 A 
ATOM     26  C   UNL     1      -1.091  10.882  23.048  0.00  0.00    +0.000 A 
ATOM     27  C   UNL     1      -1.382  11.665  21.934  0.00  0.00    +0.000 A 
ATOM     28  C   UNL     1      -0.794  11.369  20.703  0.00  0.00    +0.000 A 
ATOM     29  C   UNL     1       0.089  10.291  20.593  0.00  0.00    +0.000 A 
ENDBRANCH  23  24
ENDBRANCH  22  23
ENDBRANCH  20  22
ENDBRANCH   3  18
BRANCH   4  30
ATOM     30  O   UNL     1       2.768   2.724  19.531  0.00  0.00    +0.000 OA
ATOM     31  H   UNL     1       2.926   2.369  20.424  0.00  0.00    +0.000 HD
ENDBRANCH   4  30
BRANCH   5  32
ATOM     32  O   UNL     1       5.386   2.692  19.406  0.00  0.00    +0.000 OA
ATOM     33  H   UNL     1       5.354   2.719  20.384  0.00  0.00    +0.000 HD
ENDBRANCH   5  32
TORSDOF 8
ENDMDL
MODEL 5
REMARK VINA RESULT:      -8.1      5.019      7.110
REMARK  Name = 
REMARK  8 active torsions:
REMARK  status: ('A' for Active; 'I' for Inactive)
REMARK    1  A    between atoms: N_1  and  C_2
REMARK    2  A    between atoms: N_10  and  C_11
REMARK    3  A    between atoms: C_13  and  C_14
REMARK    4  A    between atoms: N_16  and  C_17
REMARK    5  A    between atoms: C_17  and  C_18
REMARK    6  A    between atoms: C_18  and  C_19
REMARK    7  A    between atoms: C_25  and  O_26
REMARK    8  A    between atoms: C_27  and  O_28
REMARK                            x       y       z     vdW  Elec       q    Type
REMARK                         _______ _______ _______ _____ _____    ______ ____
ROOT
ATOM      1  C   UNL     1       2.516   5.414  20.151  0.00  0.00    +0.000 C 
ATOM      2  O   UNL     1       3.915   5.057  20.099  0.00  0.00    +0.000 OA
ATOM      3  C   UNL     1       4.007   3.650  19.807  0.00  0.00    +0.000 C 
ATOM      4  C   UNL     1       2.609   3.057  20.003  0.00  0.00    +0.000 C 
ATOM      5  C   UNL     1       1.688   4.220  19.679  0.00  0.00    +0.000 C 
ENDROOT
BRANCH   1  14
ATOM      6  C   UNL     1       1.362   9.992  19.053  0.00  0.00    +0.000 A 
ATOM      7  N   UNL     1       0.793  10.268  20.250  0.00  0.00    +0.000 NA
ATOM      8  C   UNL     1       0.748   9.289  21.181  0.00  0.00    +0.000 A 
ATOM      9  N   UNL     1       1.187   8.018  21.081  0.00  0.00    +0.000 NA
ATOM     10  C   UNL     1       1.715   7.789  19.870  0.00  0.00    +0.000 A 
ATOM     11  C   UNL     1       1.835   8.688  18.824  0.00  0.00    +0.000 A 
ATOM     12  N   UNL     1       2.431   8.094  17.730  0.00  0.00    +0.000 NA
ATOM     13  C   UNL     1       2.696   6.865  18.121  0.00  0.00    +0.000 A 
ATOM     14  N   UNL     1       2.285   6.635  19.408  0.00  0.00    +0.000 N 
BRANCH   6  15
ATOM     15  N   UNL     1       1.470  11.010  18.122  0.00  0.00    +0.000 N 
ATOM     16  H   UNL     1       2.381  11.442  18.066  0.00  0.00    +0.000 HD
ATOM     17  H   UNL     1       0.637  11.568  17.982  0.00  0.00    +0.000 HD
ENDBRANCH   6  15
ENDBRANCH   1  14
BRANCH   3  18
ATOM     18  C   UNL     1       4.582   3.389  18.403  0.00  0.00    +0.000 C 
ATOM     19  O   UNL     1       4.110   2.548  17.637  0.00  0.00    +0.000 OA
ATOM     20  N   UNL     1       5.719   4.124  18.104  0.00  0.00    +0.000 N 
ATOM     21  H   UNL     1       5.919   4.933  18.683  0.00  0.00    +0.000 HD
BRANCH  20  22
ATOM     22  C   UNL     1       6.316   4.026  16.779  0.00  0.00    +0.000 C 
BRANCH  22  23
ATOM     23  C   UNL     1       5.512   4.746  15.694  0.00  0.00    +0.000 C 
BRANCH  23  24
ATOM     24  C   UNL     1       6.055   4.487  14.305  0.00  0.00    +0.000 A 
ATOM     25  C   UNL     1       7.226   5.131  13.870  0.00  0.00    +0.000 A 
ATOM     26  C   UNL     1       7.731   4.890  12.591  0.00  0.00    +0.000 A 
ATOM     27  C   UNL     1       7.075   4.011  11.732  0.00  0.00    +0.000 A 
ATOM     28  C   UNL     1       5.903   3.377  12.149  0.00  0.00    +0.000 A 
ATOM     29  C   UNL     1       5.396   3.620  13.429  0.00  0.00    +0.000 A 
ENDBRANCH  23  24
ENDBRANCH  22  23
ENDBRANCH  20  22
ENDBRANCH   3  18
BRANCH   4  30
ATOM     30  O   UNL     1       2.377   2.667  21.375  0.00  0.00    +0.000 OA
ATOM     31  H   UNL     1       1.504   2.242  21.449  0.00  0.00    +0.000 HD
ENDBRANCH   4  30
BRANCH   5  32
ATOM     32  O   UNL     1       0.446   4.139  20.388  0.00  0.00    +0.000 OA
ATOM     33  H   UNL     1       0.437   3.270  20.840  0.00  0.00    +0.000 HD
ENDBRANCH   5  32
TORSDOF 8
ENDMDL
MODEL 6
REMARK VINA RESULT:      -8.0      0.937      1.306
REMARK  Name = 
REMARK  8 active torsions:
REMARK  status: ('A' for Active; 'I' for Inactive)
REMARK    1  A    between atoms: N_1  and  C_2
REMARK    2  A    between atoms: N_10  and  C_11
REMARK    3  A    between atoms: C_13  and  C_14
REMARK    4  A    between atoms: N_16  and  C_17
REMARK    5  A    between atoms: C_17  and  C_18
REMARK    6  A    between atoms: C_18  and  C_19
REMARK    7  A    between atoms: C_25  and  O_26
REMARK    8  A    between atoms: C_27  and  O_28
REMARK                            x       y       z     vdW  Elec       q    Type
REMARK                         _______ _______ _______ _____ _____    ______ ____
ROOT
ATOM      1  C   UNL     1       5.424   4.057  17.014  0.00  0.00    +0.000 C 
ATOM      2  O   UNL     1       6.567   3.976  17.894  0.00  0.00    +0.000 OA
ATOM      3  C   UNL     1       7.531   4.958  17.467  0.00  0.00    +0.000 C 
ATOM      4  C   UNL     1       7.098   5.439  16.079  0.00  0.00    +0.000 C 
ATOM      5  C   UNL     1       5.588   5.276  16.108  0.00  0.00    +0.000 C 
ENDROOT
BRANCH   1  14
ATOM      6  C   UNL     1       2.230   3.285  20.577  0.00  0.00    +0.000 A 
ATOM      7  N   UNL     1       3.016   2.424  21.265  0.00  0.00    +0.000 NA
ATOM      8  C   UNL     1       4.234   2.123  20.762  0.00  0.00    +0.000 A 
ATOM      9  N   UNL     1       4.797   2.559  19.617  0.00  0.00    +0.000 NA
ATOM     10  C   UNL     1       3.970   3.386  18.961  0.00  0.00    +0.000 A 
ATOM     11  C   UNL     1       2.703   3.788  19.353  0.00  0.00    +0.000 A 
ATOM     12  N   UNL     1       2.150   4.645  18.423  0.00  0.00    +0.000 NA
ATOM     13  C   UNL     1       3.080   4.783  17.502  0.00  0.00    +0.000 A 
ATOM     14  N   UNL     1       4.199   4.044  17.786  0.00  0.00    +0.000 N 
BRANCH   6  15
ATOM     15  N   UNL     1       1.010   3.647  21.123  0.00  0.00    +0.000 N 
ATOM     16  H   UNL     1       0.351   2.890  21.232  0.00  0.00    +0.000 HD
ATOM     17  H   UNL     1       0.681   4.574  20.885  0.00  0.00    +0.000 HD
ENDBRANCH   6  15
ENDBRANCH   1  14
BRANCH   3  18
ATOM     18  C   UNL     1       7.677   6.103  18.485  0.00  0.00    +0.000 C 
ATOM     19  O   UNL     1       7.411   5.970  19.679  0.00  0.00    +0.000 OA
ATOM     20  N   UNL     1       8.061   7.315  17.930  0.00  0.00    +0.000 N 
ATOM     21  H   UNL     1       8.463   7.297  16.999  0.00  0.00    +0.000 HD
BRANCH  20  22
ATOM     22  C   UNL     1       8.310   8.460  18.796  0.00  0.00    +0.000 C 
BRANCH  22  23
ATOM     23  C   UNL     1       8.502   9.772  18.031  0.00  0.00    +0.000 C 
BRANCH  23  24
ATOM     24  C   UNL     1       9.480  10.701  18.717  0.00  0.00    +0.000 A 
ATOM     25  C   UNL     1       9.459  10.846  20.115  0.00  0.00    +0.000 A 
ATOM     26  C   UNL     1      10.364  11.700  20.749  0.00  0.00    +0.000 A 
ATOM     27  C   UNL     1      11.291  12.421  20.001  0.00  0.00    +0.000 A 
ATOM     28  C   UNL     1      11.311  12.295  18.610  0.00  0.00    +0.000 A 
ATOM     29  C   UNL     1      10.404  11.442  17.974  0.00  0.00    +0.000 A 
ENDBRANCH  23  24
ENDBRANCH  22  23
ENDBRANCH  20  22
ENDBRANCH   3  18
BRANCH   4  30
ATOM     30  O   UNL     1       7.623   4.597  15.029  0.00  0.00    +0.000 OA
ATOM     31  H   UNL     1       8.287   5.091  14.518  0.00  0.00    +0.000 HD
ENDBRANCH   4  30
BRANCH   5  32
ATOM     32  O   UNL     1       5.047   5.030  14.806  0.00  0.00    +0.000 OA
ATOM     33  H   UNL     1       5.342   5.769  14.234  0.00  0.00    +0.000 HD
ENDBRANCH   5  32
TORSDOF 8
ENDMDL
MODEL 7
REMARK VINA RESULT:      -8.0      4.565      6.682
REMARK  Name = 
REMARK  8 active torsions:
REMARK  status: ('A' for Active; 'I' for Inactive)
REMARK    1  A    between atoms: N_1  and  C_2
REMARK    2  A    between atoms: N_10  and  C_11
REMARK    3  A    between atoms: C_13  and  C_14
REMARK    4  A    between atoms: N_16  and  C_17
REMARK    5  A    between atoms: C_17  and  C_18
REMARK    6  A    between atoms: C_18  and  C_19
REMARK    7  A    between atoms: C_25  and  O_26
REMARK    8  A    between atoms: C_27  and  O_28
REMARK                            x       y       z     vdW  Elec       q    Type
REMARK                         _______ _______ _______ _____ _____    ______ ____
ROOT
ATOM      1  C   UNL     1       2.529   5.458  19.182  0.00  0.00    +0.000 C 
ATOM      2  O   UNL     1       3.716   5.377  20.002  0.00  0.00    +0.000 OA
ATOM      3  C   UNL     1       4.467   4.219  19.590  0.00  0.00    +0.000 C 
ATOM      4  C   UNL     1       3.546   3.379  18.700  0.00  0.00    +0.000 C 
ATOM      5  C   UNL     1       2.629   4.414  18.071  0.00  0.00    +0.000 C 
ENDROOT
BRANCH   1  14
ATOM      6  C   UNL     1       1.509  10.195  19.076  0.00  0.00    +0.000 A 
ATOM      7  N   UNL     1       0.940  10.228  20.303  0.00  0.00    +0.000 NA
ATOM      8  C   UNL     1       0.860   9.076  21.006  0.00  0.00    +0.000 A 
ATOM      9  N   UNL     1       1.265   7.842  20.640  0.00  0.00    +0.000 NA
ATOM     10  C   UNL     1       1.796   7.859  19.409  0.00  0.00    +0.000 A 
ATOM     11  C   UNL     1       1.948   8.956  18.576  0.00  0.00    +0.000 A 
ATOM     12  N   UNL     1       2.535   8.590  17.382  0.00  0.00    +0.000 NA
ATOM     13  C   UNL     1       2.764   7.299  17.505  0.00  0.00    +0.000 A 
ATOM     14  N   UNL     1       2.337   6.814  18.713  0.00  0.00    +0.000 N 
BRANCH   6  15
ATOM     15  N   UNL     1       1.652  11.384  18.381  0.00  0.00    +0.000 N 
ATOM     16  H   UNL     1       2.538  11.498  17.910  0.00  0.00    +0.000 HD
ATOM     17  H   UNL     1       1.186  12.187  18.784  0.00  0.00    +0.000 HD
ENDBRANCH   6  15
ENDBRANCH   1  14
BRANCH   3  18
ATOM     18  C   UNL     1       5.787   4.603  18.899  0.00  0.00    +0.000 C 
ATOM     19  O   UNL     1       6.660   5.270  19.455  0.00  0.00    +0.000 OA
ATOM     20  N   UNL     1       5.878   4.201  17.574  0.00  0.00    +0.000 N 
ATOM     21  H   UNL     1       5.230   3.487  17.257  0.00  0.00    +0.000 HD
BRANCH  20  22
ATOM     22  C   UNL     1       7.108   4.435  16.830  0.00  0.00    +0.000 C 
BRANCH  22  23
ATOM     23  C   UNL     1       6.959   5.480  15.721  0.00  0.00    +0.000 C 
BRANCH  23  24
ATOM     24  C   UNL     1       6.798   4.851  14.354  0.00  0.00    +0.000 A 
ATOM     25  C   UNL     1       7.712   5.142  13.326  0.00  0.00    +0.000 A 
ATOM     26  C   UNL     1       7.565   4.559  12.066  0.00  0.00    +0.000 A 
ATOM     27  C   UNL     1       6.510   3.686  11.815  0.00  0.00    +0.000 A 
ATOM     28  C   UNL     1       5.588   3.401  12.824  0.00  0.00    +0.000 A 
ATOM     29  C   UNL     1       5.732   3.986  14.086  0.00  0.00    +0.000 A 
ENDBRANCH  23  24
ENDBRANCH  22  23
ENDBRANCH  20  22
ENDBRANCH   3  18
BRANCH   4  30
ATOM     30  O   UNL     1       2.734   2.468  19.475  0.00  0.00    +0.000 OA
ATOM     31  H   UNL     1       3.249   1.667  19.678  0.00  0.00    +0.000 HD
ENDBRANCH   4  30
BRANCH   5  32
ATOM     32  O   UNL     1       1.343   3.871  17.752  0.00  0.00    +0.000 OA
ATOM     33  H   UNL     1       1.465   2.907  17.633  0.00  0.00    +0.000 HD
ENDBRANCH   5  32
TORSDOF 8
ENDMDL
MODEL 8
REMARK VINA RESULT:      -8.0      1.452      1.733
REMARK  Name = 
REMARK  8 active torsions:
REMARK  status: ('A' for Active; 'I' for Inactive)
REMARK    1  A    between atoms: N_1  and  C_2
REMARK    2  A    between atoms: N_10  and  C_11
REMARK    3  A    between atoms: C_13  and  C_14
REMARK    4  A    between atoms: N_16  and  C_17
REMARK    5  A    between atoms: C_17  and  C_18
REMARK    6  A    between atoms: C_18  and  C_19
REMARK    7  A    between atoms: C_25  and  O_26
REMARK    8  A    between atoms: C_27  and  O_28
REMARK                            x       y       z     vdW  Elec       q    Type
REMARK                         _______ _______ _______ _____ _____    ______ ____
ROOT
ATOM      1  C   UNL     1       5.578   4.293  17.147  0.00  0.00    +0.000 C 
ATOM      2  O   UNL     1       6.567   4.964  17.958  0.00  0.00    +0.000 OA
ATOM      3  C   UNL     1       7.277   5.895  17.119  0.00  0.00    +0.000 C 
ATOM      4  C   UNL     1       6.925   5.551  15.668  0.00  0.00    +0.000 C 
ATOM      5  C   UNL     1       5.528   4.966  15.777  0.00  0.00    +0.000 C 
ENDROOT
BRANCH   1  14
ATOM      6  C   UNL     1       2.170   3.375  20.470  0.00  0.00    +0.000 A 
ATOM      7  N   UNL     1       2.909   2.476  21.162  0.00  0.00    +0.000 NA
ATOM      8  C   UNL     1       4.154   2.191  20.720  0.00  0.00    +0.000 A 
ATOM      9  N   UNL     1       4.788   2.677  19.633  0.00  0.00    +0.000 NA
ATOM     10  C   UNL     1       4.005   3.540  18.969  0.00  0.00    +0.000 A 
ATOM     11  C   UNL     1       2.719   3.931  19.302  0.00  0.00    +0.000 A 
ATOM     12  N   UNL     1       2.226   4.835  18.382  0.00  0.00    +0.000 NA
ATOM     13  C   UNL     1       3.212   5.011  17.526  0.00  0.00    +0.000 A 
ATOM     14  N   UNL     1       4.308   4.252  17.842  0.00  0.00    +0.000 N 
BRANCH   6  15
ATOM     15  N   UNL     1       0.921   3.719  20.957  0.00  0.00    +0.000 N 
ATOM     16  H   UNL     1       0.282   4.089  20.268  0.00  0.00    +0.000 HD
ATOM     17  H   UNL     1       0.901   4.071  21.906  0.00  0.00    +0.000 HD
ENDBRANCH   6  15
ENDBRANCH   1  14
BRANCH   3  18
ATOM     18  C   UNL     1       6.964   7.357  17.485  0.00  0.00    +0.000 C 
ATOM     19  O   UNL     1       5.820   7.763  17.683  0.00  0.00    +0.000 OA
ATOM     20  N   UNL     1       8.071   8.193  17.496  0.00  0.00    +0.000 N 
ATOM     21  H   UNL     1       8.986   7.757  17.535  0.00  0.00    +0.000 HD
BRANCH  20  22
ATOM     22  C   UNL     1       7.922   9.584  17.902  0.00  0.00    +0.000 C 
BRANCH  22  23
ATOM     23  C   UNL     1       9.062  10.084  18.794  0.00  0.00    +0.000 C 
BRANCH  23  24
ATOM     24  C   UNL     1       9.640  11.396  18.310  0.00  0.00    +0.000 A 
ATOM     25  C   UNL     1       8.894  12.582  18.415  0.00  0.00    +0.000 A 
ATOM     26  C   UNL     1       9.428  13.794  17.973  0.00  0.00    +0.000 A 
ATOM     27  C   UNL     1      10.705  13.836  17.417  0.00  0.00    +0.000 A 
ATOM     28  C   UNL     1      11.449  12.662  17.295  0.00  0.00    +0.000 A 
ATOM     29  C   UNL     1      10.914  11.447  17.735  0.00  0.00    +0.000 A 
ENDBRANCH  23  24
ENDBRANCH  22  23
ENDBRANCH  20  22
ENDBRANCH   3  18
BRANCH   4  30
ATOM     30  O   UNL     1       7.799   4.534  15.129  0.00  0.00    +0.000 OA
ATOM     31  H   UNL     1       8.375   4.928  14.450  0.00  0.00    +0.000 HD
ENDBRANCH   4  30
BRANCH   5  32
ATOM     32  O   UNL     1       5.259   4.014  14.741  0.00  0.00    +0.000 OA
ATOM     33  H   UNL     1       4.458   4.327  14.273  0.00  0.00    +0.000 HD
ENDBRANCH   5  32
TORSDOF 8
ENDMDL
MODEL 9
REMARK VINA RESULT:      -7.9      4.626      7.209
REMARK  Name = 
REMARK  8 active torsions:
REMARK  status: ('A' for Active; 'I' for Inactive)
REMARK    1  A    between atoms: N_1  and  C_2
REMARK    2  A    between atoms: N_10  and  C_11
REMARK    3  A    between atoms: C_13  and  C_14
REMARK    4  A    between atoms: N_16  and  C_17
REMARK    5  A    between atoms: C_17  and  C_18
REMARK    6  A    between atoms: C_18  and  C_19
REMARK    7  A    between atoms: C_25  and  O_26
REMARK    8  A    between atoms: C_27  and  O_28
REMARK                            x       y       z     vdW  Elec       q    Type
REMARK                         _______ _______ _______ _____ _____    ______ ____
ROOT
ATOM      1  C   UNL     1       4.423   3.589  17.615  0.00  0.00    +0.000 C 
ATOM      2  O   UNL     1       3.229   4.343  17.311  0.00  0.00    +0.000 OA
ATOM      3  C   UNL     1       2.533   4.598  18.546  0.00  0.00    +0.000 C 
ATOM      4  C   UNL     1       3.158   3.691  19.610  0.00  0.00    +0.000 C 
ATOM      5  C   UNL     1       4.591   3.530  19.132  0.00  0.00    +0.000 C 
ENDROOT
BRANCH   1  14
ATOM      6  C   UNL     1       7.385   5.010  14.052  0.00  0.00    +0.000 A 
ATOM      7  N   UNL     1       6.719   4.360  13.069  0.00  0.00    +0.000 NA
ATOM      8  C   UNL     1       5.627   3.636  13.402  0.00  0.00    +0.000 A 
ATOM      9  N   UNL     1       5.093   3.442  14.625  0.00  0.00    +0.000 NA
ATOM     10  C   UNL     1       5.804   4.083  15.564  0.00  0.00    +0.000 A 
ATOM     11  C   UNL     1       6.934   4.862  15.374  0.00  0.00    +0.000 A 
ATOM     12  N   UNL     1       7.394   5.361  16.576  0.00  0.00    +0.000 NA
ATOM     13  C   UNL     1       6.537   4.918  17.472  0.00  0.00    +0.000 A 
ATOM     14  N   UNL     1       5.557   4.145  16.907  0.00  0.00    +0.000 N 
BRANCH   6  15
ATOM     15  N   UNL     1       8.463   5.805  13.706  0.00  0.00    +0.000 N 
ATOM     16  H   UNL     1       8.234   6.766  13.495  0.00  0.00    +0.000 HD
ATOM     17  H   UNL     1       9.208   5.341  13.201  0.00  0.00    +0.000 HD
ENDBRANCH   6  15
ENDBRANCH   1  14
BRANCH   3  18
ATOM     18  C   UNL     1       2.564   6.088  18.930  0.00  0.00    +0.000 C 
ATOM     19  O   UNL     1       2.578   6.474  20.098  0.00  0.00    +0.000 OA
ATOM     20  N   UNL     1       2.497   6.958  17.851  0.00  0.00    +0.000 N 
ATOM     21  H   UNL     1       2.701   6.580  16.932  0.00  0.00    +0.000 HD
BRANCH  20  22
ATOM     22  C   UNL     1       2.596   8.395  18.074  0.00  0.00    +0.000 C 
BRANCH  22  23
ATOM     23  C   UNL     1       1.336   9.162  17.666  0.00  0.00    +0.000 C 
BRANCH  23  24
ATOM     24  C   UNL     1       0.647   9.810  18.847  0.00  0.00    +0.000 A 
ATOM     25  C   UNL     1       1.030   9.482  20.159  0.00  0.00    +0.000 A 
ATOM     26  C   UNL     1       0.398  10.083  21.249  0.00  0.00    +0.000 A 
ATOM     27  C   UNL     1      -0.623  11.008  21.047  0.00  0.00    +0.000 A 
ATOM     28  C   UNL     1      -1.021  11.331  19.748  0.00  0.00    +0.000 A 
ATOM     29  C   UNL     1      -0.390  10.728  18.655  0.00  0.00    +0.000 A 
ENDBRANCH  23  24
ENDBRANCH  22  23
ENDBRANCH  20  22
ENDBRANCH   3  18
BRANCH   4  30
ATOM     30  O   UNL     1       2.541   2.384  19.634  0.00  0.00    +0.000 OA
ATOM     31  H   UNL     1       1.996   2.298  20.436  0.00  0.00    +0.000 HD
ENDBRANCH   4  30
BRANCH   5  32
ATOM     32  O   UNL     1       5.159   2.281  19.542  0.00  0.00    +0.000 OA
ATOM     33  H   UNL     1       4.558   1.579  19.218  0.00  0.00    +0.000 HD
ENDBRANCH   5  32
TORSDOF 8
ENDMDL
