MODEL 1
REMARK VINA RESULT:      -8.7      0.000      0.000
REMARK  Name = 
REMARK  8 active torsions:
REMARK  status: ('A' for Active; 'I' for Inactive)
REMARK    1  A    between atoms: C_1  and  O_2
REMARK    2  A    between atoms: O_2  and  C_3
REMARK    3  A    between atoms: C_6  and  N_7
REMARK    4  A    between atoms: N_7  and  C_8
REMARK    5  A    between atoms: C_8  and  C_9
REMARK    6  A    between atoms: N_17  and  C_18
REMARK    7  A    between atoms: C_18  and  C_19
REMARK    8  A    between atoms: N_21  and  C_22
REMARK                            x       y       z     vdW  Elec       q    Type
REMARK                         _______ _______ _______ _____ _____    ______ ____
ROOT
ATOM      1  C   UNL     1       6.448   4.600  15.602  0.00  0.00    +0.000 A 
ATOM      2  C   UNL     1       5.098   4.561  15.668  0.00  0.00    +0.000 A 
ATOM      3  C   UNL     1       4.439   4.584  16.992  0.00  0.00    +0.000 A 
ATOM      4  C   UNL     1       3.084   4.305  17.190  0.00  0.00    +0.000 A 
ATOM      5  C   UNL     1       2.596   4.399  18.485  0.00  0.00    +0.000 A 
ATOM      6  C   UNL     1       3.401   4.727  19.557  0.00  0.00    +0.000 A 
ATOM      7  C   UNL     1       4.725   5.048  19.400  0.00  0.00    +0.000 A 
ATOM      8  C   UNL     1       5.222   5.017  18.099  0.00  0.00    +0.000 A 
ATOM      9  N   UNL     1       6.562   5.446  17.859  0.00  0.00    +0.000 N 
ATOM     10  C   UNL     1       7.205   4.667  16.893  0.00  0.00    +0.000 A 
ATOM     11  O   UNL     1       8.356   4.274  17.028  0.00  0.00    +0.000 OA
ATOM     12  O   UNL     1       2.727   4.732  20.738  0.00  0.00    +0.000 OA
ATOM     13  C   UNL     1       1.375   4.625  20.256  0.00  0.00    +0.000 C 
ATOM     14  O   UNL     1       1.303   4.208  18.873  0.00  0.00    +0.000 OA
ENDROOT
BRANCH   1  15
ATOM     15  C   UNL     1       7.297   4.924  14.413  0.00  0.00    +0.000 C 
BRANCH  15  16
ATOM     16  N   UNL     1       6.525   4.939  13.183  0.00  0.00    +0.000 N 
ATOM     17  H   UNL     1       6.803   5.688  12.556  0.00  0.00    +0.000 HD
BRANCH  16  21
ATOM     18  C   UNL     1       6.299   1.274  11.065  0.00  0.00    +0.000 A 
ATOM     19  C   UNL     1       5.138   1.862  11.556  0.00  0.00    +0.000 A 
ATOM     20  C   UNL     1       5.196   3.077  12.246  0.00  0.00    +0.000 A 
ATOM     21  C   UNL     1       6.420   3.705  12.513  0.00  0.00    +0.000 A 
ATOM     22  C   UNL     1       7.575   3.122  11.976  0.00  0.00    +0.000 A 
ATOM     23  C   UNL     1       7.521   1.908  11.275  0.00  0.00    +0.000 A 
BRANCH  18  25
ATOM     24  C   UNL     1       5.840  -1.034  11.257  0.00  0.00    +0.000 C 
ATOM     25  O   UNL     1       6.114   0.083  10.422  0.00  0.00    +0.000 OA
ENDBRANCH  18  25
ENDBRANCH  16  21
ENDBRANCH  15  16
ENDBRANCH   1  15
BRANCH   9  26
ATOM     26  C   UNL     1       6.613   6.877  17.471  0.00  0.00    +0.000 C 
BRANCH  26  27
ATOM     27  C   UNL     1       7.724   7.679  18.109  0.00  0.00    +0.000 C 
ATOM     28  O   UNL     1       8.512   7.130  18.878  0.00  0.00    +0.000 OA
ATOM     29  N   UNL     1       7.606   9.034  17.877  0.00  0.00    +0.000 N 
ATOM     30  H   UNL     1       6.762   9.339  17.403  0.00  0.00    +0.000 HD
BRANCH  29  31
ATOM     31  C   UNL     1       8.506  10.020  18.306  0.00  0.00    +0.000 A 
ATOM     32  C   UNL     1       9.288   9.883  19.459  0.00  0.00    +0.000 A 
ATOM     33  C   UNL     1      10.174  10.890  19.840  0.00  0.00    +0.000 A 
ATOM     34  C   UNL     1      10.283  12.039  19.069  0.00  0.00    +0.000 A 
ATOM     35  C   UNL     1       9.512  12.166  17.917  0.00  0.00    +0.000 A 
ATOM     36  F   UNL     1       9.609  13.279  17.178  0.00  0.00    +0.000 F 
ATOM     37  C   UNL     1       8.637  11.164  17.519  0.00  0.00    +0.000 A 
ENDBRANCH  29  31
ENDBRANCH  26  27
ENDBRANCH   9  26
TORSDOF 7
ENDMDL
MODEL 2
REMARK VINA RESULT:      -8.7      0.873      1.124
REMARK  Name = 
REMARK  8 active torsions:
REMARK  status: ('A' for Active; 'I' for Inactive)
REMARK    1  A    between atoms: C_1  and  O_2
REMARK    2  A    between atoms: O_2  and  C_3
REMARK    3  A    between atoms: C_6  and  N_7
REMARK    4  A    between atoms: N_7  and  C_8
REMARK    5  A    between atoms: C_8  and  C_9
REMARK    6  A    between atoms: N_17  and  C_18
REMARK    7  A    between atoms: C_18  and  C_19
REMARK    8  A    between atoms: N_21  and  C_22
REMARK                            x       y       z     vdW  Elec       q    Type
REMARK                         _______ _______ _______ _____ _____    ______ ____
ROOT
ATOM      1  C   UNL     1       6.509   4.680  15.684  0.00  0.00    +0.000 A 
ATOM      2  C   UNL     1       5.159   4.676  15.736  0.00  0.00    +0.000 A 
ATOM      3  C   UNL     1       4.486   4.687  17.054  0.00  0.00    +0.000 A 
ATOM      4  C   UNL     1       3.122   4.441  17.231  0.00  0.00    +0.000 A 
ATOM      5  C   UNL     1       2.622   4.519  18.523  0.00  0.00    +0.000 A 
ATOM      6  C   UNL     1       3.424   4.801  19.610  0.00  0.00    +0.000 A 
ATOM      7  C   UNL     1       4.758   5.090  19.474  0.00  0.00    +0.000 A 
ATOM      8  C   UNL     1       5.268   5.074  18.177  0.00  0.00    +0.000 A 
ATOM      9  N   UNL     1       6.621   5.472  17.962  0.00  0.00    +0.000 N 
ATOM     10  C   UNL     1       7.254   4.698  16.985  0.00  0.00    +0.000 A 
ATOM     11  O   UNL     1       8.392   4.271  17.122  0.00  0.00    +0.000 OA
ATOM     12  O   UNL     1       2.738   4.799  20.784  0.00  0.00    +0.000 OA
ATOM     13  C   UNL     1       1.389   4.739  20.286  0.00  0.00    +0.000 C 
ATOM     14  O   UNL     1       1.320   4.355  18.893  0.00  0.00    +0.000 OA
ENDROOT
BRANCH   1  15
ATOM     15  C   UNL     1       7.380   5.007  14.512  0.00  0.00    +0.000 C 
BRANCH  15  16
ATOM     16  N   UNL     1       6.623   5.060  13.273  0.00  0.00    +0.000 N 
ATOM     17  H   UNL     1       6.926   5.814  12.663  0.00  0.00    +0.000 HD
BRANCH  16  21
ATOM     18  C   UNL     1       6.329   1.443  11.083  0.00  0.00    +0.000 A 
ATOM     19  C   UNL     1       5.195   1.987  11.675  0.00  0.00    +0.000 A 
ATOM     20  C   UNL     1       5.274   3.186  12.390  0.00  0.00    +0.000 A 
ATOM     21  C   UNL     1       6.499   3.841  12.581  0.00  0.00    +0.000 A 
ATOM     22  C   UNL     1       7.624   3.303  11.943  0.00  0.00    +0.000 A 
ATOM     23  C   UNL     1       7.547   2.105  11.216  0.00  0.00    +0.000 A 
BRANCH  18  25
ATOM     24  C   UNL     1       5.875  -0.868  11.247  0.00  0.00    +0.000 C 
ATOM     25  O   UNL     1       6.126   0.264  10.424  0.00  0.00    +0.000 OA
ENDBRANCH  18  25
ENDBRANCH  16  21
ENDBRANCH  15  16
ENDBRANCH   1  15
BRANCH   9  26
ATOM     26  C   UNL     1       6.715   6.909  17.606  0.00  0.00    +0.000 C 
BRANCH  26  27
ATOM     27  C   UNL     1       7.862   7.658  18.244  0.00  0.00    +0.000 C 
ATOM     28  O   UNL     1       8.574   7.095  19.075  0.00  0.00    +0.000 OA
ATOM     29  N   UNL     1       7.863   9.002  17.932  0.00  0.00    +0.000 N 
ATOM     30  H   UNL     1       7.065   9.344  17.407  0.00  0.00    +0.000 HD
BRANCH  29  31
ATOM     31  C   UNL     1       8.824   9.938  18.341  0.00  0.00    +0.000 A 
ATOM     32  C   UNL     1       9.657  10.612  17.440  0.00  0.00    +0.000 A 
ATOM     33  C   UNL     1      10.594  11.539  17.897  0.00  0.00    +0.000 A 
ATOM     34  C   UNL     1      10.700  11.797  19.257  0.00  0.00    +0.000 A 
ATOM     35  C   UNL     1       9.862  11.133  20.148  0.00  0.00    +0.000 A 
ATOM     36  F   UNL     1       9.972  11.373  21.461  0.00  0.00    +0.000 F 
ATOM     37  C   UNL     1       8.916  10.218  19.704  0.00  0.00    +0.000 A 
ENDBRANCH  29  31
ENDBRANCH  26  27
ENDBRANCH   9  26
TORSDOF 7
ENDMDL
MODEL 3
REMARK VINA RESULT:      -8.3      7.244      8.618
REMARK  Name = 
REMARK  8 active torsions:
REMARK  status: ('A' for Active; 'I' for Inactive)
REMARK    1  A    between atoms: C_1  and  O_2
REMARK    2  A    between atoms: O_2  and  C_3
REMARK    3  A    between atoms: C_6  and  N_7
REMARK    4  A    between atoms: N_7  and  C_8
REMARK    5  A    between atoms: C_8  and  C_9
REMARK    6  A    between atoms: N_17  and  C_18
REMARK    7  A    between atoms: C_18  and  C_19
REMARK    8  A    between atoms: N_21  and  C_22
REMARK                            x       y       z     vdW  Elec       q    Type
REMARK                         _______ _______ _______ _____ _____    ______ ____
ROOT
ATOM      1  C   UNL     1       1.180   8.905  18.300  0.00  0.00    +0.000 A 
ATOM      2  C   UNL     1       0.253   9.112  17.339  0.00  0.00    +0.000 A 
ATOM      3  C   UNL     1      -0.965   9.886  17.665  0.00  0.00    +0.000 A 
ATOM      4  C   UNL     1      -2.088   9.953  16.836  0.00  0.00    +0.000 A 
ATOM      5  C   UNL     1      -3.144  10.748  17.256  0.00  0.00    +0.000 A 
ATOM      6  C   UNL     1      -3.124  11.433  18.453  0.00  0.00    +0.000 A 
ATOM      7  C   UNL     1      -2.027  11.427  19.275  0.00  0.00    +0.000 A 
ATOM      8  C   UNL     1      -0.931  10.682  18.844  0.00  0.00    +0.000 A 
ATOM      9  N   UNL     1       0.277  10.725  19.603  0.00  0.00    +0.000 N 
ATOM     10  C   UNL     1       0.915   9.482  19.657  0.00  0.00    +0.000 A 
ATOM     11  O   UNL     1       1.391   9.035  20.691  0.00  0.00    +0.000 OA
ATOM     12  O   UNL     1      -4.272  12.124  18.682  0.00  0.00    +0.000 OA
ATOM     13  C   UNL     1      -4.901  12.003  17.393  0.00  0.00    +0.000 C 
ATOM     14  O   UNL     1      -4.302  10.975  16.571  0.00  0.00    +0.000 OA
ENDROOT
BRANCH   1  15
ATOM     15  C   UNL     1       2.600   8.465  18.123  0.00  0.00    +0.000 C 
BRANCH  15  16
ATOM     16  N   UNL     1       2.827   7.137  18.665  0.00  0.00    +0.000 N 
ATOM     17  H   UNL     1       1.970   6.690  18.977  0.00  0.00    +0.000 HD
BRANCH  16  21
ATOM     18  C   UNL     1       5.155   4.639  16.152  0.00  0.00    +0.000 A 
ATOM     19  C   UNL     1       4.206   4.077  16.999  0.00  0.00    +0.000 A 
ATOM     20  C   UNL     1       3.423   4.889  17.825  0.00  0.00    +0.000 A 
ATOM     21  C   UNL     1       3.608   6.278  17.868  0.00  0.00    +0.000 A 
ATOM     22  C   UNL     1       4.537   6.832  16.979  0.00  0.00    +0.000 A 
ATOM     23  C   UNL     1       5.319   6.022  16.141  0.00  0.00    +0.000 A 
BRANCH  18  25
ATOM     24  C   UNL     1       6.306   4.209  14.137  0.00  0.00    +0.000 C 
ATOM     25  O   UNL     1       5.865   3.743  15.406  0.00  0.00    +0.000 OA
ENDBRANCH  18  25
ENDBRANCH  16  21
ENDBRANCH  15  16
ENDBRANCH   1  15
BRANCH   9  26
ATOM     26  C   UNL     1       1.211  11.750  19.078  0.00  0.00    +0.000 C 
BRANCH  26  27
ATOM     27  C   UNL     1       1.014  13.145  19.629  0.00  0.00    +0.000 C 
ATOM     28  O   UNL     1       0.726  13.299  20.815  0.00  0.00    +0.000 OA
ATOM     29  N   UNL     1       1.009  14.112  18.646  0.00  0.00    +0.000 N 
ATOM     30  H   UNL     1       1.038  13.781  17.687  0.00  0.00    +0.000 HD
BRANCH  29  31
ATOM     31  C   UNL     1       0.889  15.493  18.856  0.00  0.00    +0.000 A 
ATOM     32  C   UNL     1       1.959  16.291  19.279  0.00  0.00    +0.000 A 
ATOM     33  C   UNL     1       1.790  17.663  19.469  0.00  0.00    +0.000 A 
ATOM     34  C   UNL     1       0.551  18.242  19.234  0.00  0.00    +0.000 A 
ATOM     35  C   UNL     1      -0.507  17.447  18.802  0.00  0.00    +0.000 A 
ATOM     36  F   UNL     1      -1.705  18.005  18.585  0.00  0.00    +0.000 F 
ATOM     37  C   UNL     1      -0.347  16.083  18.596  0.00  0.00    +0.000 A 
ENDBRANCH  29  31
ENDBRANCH  26  27
ENDBRANCH   9  26
TORSDOF 7
ENDMDL
MODEL 4
REMARK VINA RESULT:      -8.1      6.938      9.226
REMARK  Name = 
REMARK  8 active torsions:
REMARK  status: ('A' for Active; 'I' for Inactive)
REMARK    1  A    between atoms: C_1  and  O_2
REMARK    2  A    between atoms: O_2  and  C_3
REMARK    3  A    between atoms: C_6  and  N_7
REMARK    4  A    between atoms: N_7  and  C_8
REMARK    5  A    between atoms: C_8  and  C_9
REMARK    6  A    between atoms: N_17  and  C_18
REMARK    7  A    between atoms: C_18  and  C_19
REMARK    8  A    between atoms: N_21  and  C_22
REMARK                            x       y       z     vdW  Elec       q    Type
REMARK                         _______ _______ _______ _____ _____    ______ ____
ROOT
ATOM      1  C   UNL     1      -0.050   9.990  18.341  0.00  0.00    +0.000 A 
ATOM      2  C   UNL     1      -1.209   9.820  17.667  0.00  0.00    +0.000 A 
ATOM      3  C   UNL     1      -2.420  10.541  18.117  0.00  0.00    +0.000 A 
ATOM      4  C   UNL     1      -3.709  10.258  17.657  0.00  0.00    +0.000 A 
ATOM      5  C   UNL     1      -4.746  11.041  18.143  0.00  0.00    +0.000 A 
ATOM      6  C   UNL     1      -4.543  12.047  19.065  0.00  0.00    +0.000 A 
ATOM      7  C   UNL     1      -3.290  12.384  19.510  0.00  0.00    +0.000 A 
ATOM      8  C   UNL     1      -2.227  11.648  18.990  0.00  0.00    +0.000 A 
ATOM      9  N   UNL     1      -0.894  12.023  19.332  0.00  0.00    +0.000 N 
ATOM     10  C   UNL     1      -0.062  10.915  19.520  0.00  0.00    +0.000 A 
ATOM     11  O   UNL     1       0.726  10.838  20.452  0.00  0.00    +0.000 OA
ATOM     12  O   UNL     1      -5.697  12.667  19.428  0.00  0.00    +0.000 OA
ATOM     13  C   UNL     1      -6.598  12.116  18.451  0.00  0.00    +0.000 C 
ATOM     14  O   UNL     1      -6.058  10.950  17.785  0.00  0.00    +0.000 OA
ENDROOT
BRANCH   1  15
ATOM     15  C   UNL     1       1.334   9.649  17.883  0.00  0.00    +0.000 C 
BRANCH  15  16
ATOM     16  N   UNL     1       2.157   9.152  18.972  0.00  0.00    +0.000 N 
ATOM     17  H   UNL     1       1.997   9.650  19.842  0.00  0.00    +0.000 HD
BRANCH  16  21
ATOM     18  C   UNL     1       2.052   4.937  19.404  0.00  0.00    +0.000 A 
ATOM     19  C   UNL     1       1.804   5.751  20.503  0.00  0.00    +0.000 A 
ATOM     20  C   UNL     1       1.824   7.143  20.373  0.00  0.00    +0.000 A 
ATOM     21  C   UNL     1       2.148   7.757  19.155  0.00  0.00    +0.000 A 
ATOM     22  C   UNL     1       2.353   6.923  18.048  0.00  0.00    +0.000 A 
ATOM     23  C   UNL     1       2.325   5.526  18.171  0.00  0.00    +0.000 A 
BRANCH  18  25
ATOM     24  C   UNL     1       1.258   3.204  20.797  0.00  0.00    +0.000 C 
ATOM     25  O   UNL     1       2.017   3.596  19.660  0.00  0.00    +0.000 OA
ENDBRANCH  18  25
ENDBRANCH  16  21
ENDBRANCH  15  16
ENDBRANCH   1  15
BRANCH   9  26
ATOM     26  C   UNL     1      -0.306  12.929  18.315  0.00  0.00    +0.000 C 
BRANCH  26  27
ATOM     27  C   UNL     1       0.713  13.915  18.841  0.00  0.00    +0.000 C 
ATOM     28  O   UNL     1       0.412  15.102  18.959  0.00  0.00    +0.000 OA
ATOM     29  N   UNL     1       1.972  13.366  18.967  0.00  0.00    +0.000 N 
ATOM     30  H   UNL     1       2.091  12.423  18.610  0.00  0.00    +0.000 HD
BRANCH  29  31
ATOM     31  C   UNL     1       3.106  14.022  19.466  0.00  0.00    +0.000 A 
ATOM     32  C   UNL     1       3.410  14.076  20.832  0.00  0.00    +0.000 A 
ATOM     33  C   UNL     1       4.554  14.737  21.279  0.00  0.00    +0.000 A 
ATOM     34  C   UNL     1       5.400  15.345  20.362  0.00  0.00    +0.000 A 
ATOM     35  C   UNL     1       5.100  15.279  19.005  0.00  0.00    +0.000 A 
ATOM     36  F   UNL     1       5.910  15.875  18.121  0.00  0.00    +0.000 F 
ATOM     37  C   UNL     1       3.971  14.612  18.546  0.00  0.00    +0.000 A 
ENDBRANCH  29  31
ENDBRANCH  26  27
ENDBRANCH   9  26
TORSDOF 7
ENDMDL
MODEL 5
REMARK VINA RESULT:      -8.1      8.065     11.355
REMARK  Name = 
REMARK  8 active torsions:
REMARK  status: ('A' for Active; 'I' for Inactive)
REMARK    1  A    between atoms: C_1  and  O_2
REMARK    2  A    between atoms: O_2  and  C_3
REMARK    3  A    between atoms: C_6  and  N_7
REMARK    4  A    between atoms: N_7  and  C_8
REMARK    5  A    between atoms: C_8  and  C_9
REMARK    6  A    between atoms: N_17  and  C_18
REMARK    7  A    between atoms: C_18  and  C_19
REMARK    8  A    between atoms: N_21  and  C_22
REMARK                            x       y       z     vdW  Elec       q    Type
REMARK                         _______ _______ _______ _____ _____    ______ ____
ROOT
ATOM      1  C   UNL     1       0.988  11.315  19.033  0.00  0.00    +0.000 A 
ATOM      2  C   UNL     1       1.012  10.257  18.191  0.00  0.00    +0.000 A 
ATOM      3  C   UNL     1       1.517   8.955  18.681  0.00  0.00    +0.000 A 
ATOM      4  C   UNL     1       1.814   7.874  17.847  0.00  0.00    +0.000 A 
ATOM      5  C   UNL     1       2.246   6.703  18.450  0.00  0.00    +0.000 A 
ATOM      6  C   UNL     1       2.410   6.592  19.816  0.00  0.00    +0.000 A 
ATOM      7  C   UNL     1       2.090   7.614  20.672  0.00  0.00    +0.000 A 
ATOM      8  C   UNL     1       1.598   8.781  20.091  0.00  0.00    +0.000 A 
ATOM      9  N   UNL     1       1.147   9.838  20.936  0.00  0.00    +0.000 N 
ATOM     10  C   UNL     1       1.478  11.099  20.433  0.00  0.00    +0.000 A 
ATOM     11  O   UNL     1       1.924  11.991  21.141  0.00  0.00    +0.000 OA
ATOM     12  O   UNL     1       2.871   5.369  20.192  0.00  0.00    +0.000 OA
ATOM     13  C   UNL     1       2.733   4.655  18.950  0.00  0.00    +0.000 C 
ATOM     14  O   UNL     1       2.543   5.533  17.816  0.00  0.00    +0.000 OA
ENDROOT
BRANCH   1  15
ATOM     15  C   UNL     1       0.228  12.595  18.874  0.00  0.00    +0.000 C 
BRANCH  15  16
ATOM     16  N   UNL     1      -0.585  12.596  17.671  0.00  0.00    +0.000 N 
ATOM     17  H   UNL     1      -0.107  12.185  16.875  0.00  0.00    +0.000 HD
BRANCH  16  21
ATOM     18  C   UNL     1      -4.488  11.046  18.250  0.00  0.00    +0.000 A 
ATOM     19  C   UNL     1      -3.756  10.675  17.127  0.00  0.00    +0.000 A 
ATOM     20  C   UNL     1      -2.463  11.169  16.929  0.00  0.00    +0.000 A 
ATOM     21  C   UNL     1      -1.891  12.091  17.817  0.00  0.00    +0.000 A 
ATOM     22  C   UNL     1      -2.624  12.421  18.964  0.00  0.00    +0.000 A 
ATOM     23  C   UNL     1      -3.919  11.921  19.172  0.00  0.00    +0.000 A 
BRANCH  18  25
ATOM     24  C   UNL     1      -6.817  11.426  18.161  0.00  0.00    +0.000 C 
ATOM     25  O   UNL     1      -5.742  10.509  18.325  0.00  0.00    +0.000 OA
ENDBRANCH  18  25
ENDBRANCH  16  21
ENDBRANCH  15  16
ENDBRANCH   1  15
BRANCH   9  26
ATOM     26  C   UNL     1      -0.315   9.757  21.173  0.00  0.00    +0.000 C 
BRANCH  26  27
ATOM     27  C   UNL     1      -0.814  10.510  22.386  0.00  0.00    +0.000 C 
ATOM     28  O   UNL     1      -0.670  10.026  23.508  0.00  0.00    +0.000 OA
ATOM     29  N   UNL     1      -1.564  11.619  22.055  0.00  0.00    +0.000 N 
ATOM     30  H   UNL     1      -1.772  11.746  21.069  0.00  0.00    +0.000 HD
BRANCH  29  31
ATOM     31  C   UNL     1      -2.121  12.532  22.962  0.00  0.00    +0.000 A 
ATOM     32  C   UNL     1      -1.449  13.684  23.388  0.00  0.00    +0.000 A 
ATOM     33  C   UNL     1      -2.049  14.564  24.288  0.00  0.00    +0.000 A 
ATOM     34  C   UNL     1      -3.325  14.297  24.765  0.00  0.00    +0.000 A 
ATOM     35  C   UNL     1      -3.994  13.157  24.329  0.00  0.00    +0.000 A 
ATOM     36  F   UNL     1      -5.222  12.894  24.797  0.00  0.00    +0.000 F 
ATOM     37  C   UNL     1      -3.413  12.280  23.423  0.00  0.00    +0.000 A 
ENDBRANCH  29  31
ENDBRANCH  26  27
ENDBRANCH   9  26
TORSDOF 7
ENDMDL
MODEL 6
REMARK VINA RESULT:      -8.1      7.735     10.375
REMARK  Name = 
REMARK  8 active torsions:
REMARK  status: ('A' for Active; 'I' for Inactive)
REMARK    1  A    between atoms: C_1  and  O_2
REMARK    2  A    between atoms: O_2  and  C_3
REMARK    3  A    between atoms: C_6  and  N_7
REMARK    4  A    between atoms: N_7  and  C_8
REMARK    5  A    between atoms: C_8  and  C_9
REMARK    6  A    between atoms: N_17  and  C_18
REMARK    7  A    between atoms: C_18  and  C_19
REMARK    8  A    between atoms: N_21  and  C_22
REMARK                            x       y       z     vdW  Elec       q    Type
REMARK                         _______ _______ _______ _____ _____    ______ ____
ROOT
ATOM      1  C   UNL     1       1.412  10.273  18.173  0.00  0.00    +0.000 A 
ATOM      2  C   UNL     1       2.376  11.212  18.039  0.00  0.00    +0.000 A 
ATOM      3  C   UNL     1       2.065  12.619  18.375  0.00  0.00    +0.000 A 
ATOM      4  C   UNL     1       2.893  13.696  18.047  0.00  0.00    +0.000 A 
ATOM      5  C   UNL     1       2.489  14.958  18.458  0.00  0.00    +0.000 A 
ATOM      6  C   UNL     1       1.309  15.171  19.140  0.00  0.00    +0.000 A 
ATOM      7  C   UNL     1       0.490  14.138  19.517  0.00  0.00    +0.000 A 
ATOM      8  C   UNL     1       0.906  12.855  19.165  0.00  0.00    +0.000 A 
ATOM      9  N   UNL     1       0.152  11.734  19.623  0.00  0.00    +0.000 N 
ATOM     10  C   UNL     1       0.069  10.721  18.663  0.00  0.00    +0.000 A 
ATOM     11  O   UNL     1      -0.974  10.129  18.424  0.00  0.00    +0.000 OA
ATOM     12  O   UNL     1       1.093  16.485  19.418  0.00  0.00    +0.000 OA
ATOM     13  C   UNL     1       2.377  17.031  19.065  0.00  0.00    +0.000 C 
ATOM     14  O   UNL     1       3.175  16.122  18.273  0.00  0.00    +0.000 OA
ENDROOT
BRANCH   1  15
ATOM     15  C   UNL     1       1.583   8.787  18.223  0.00  0.00    +0.000 C 
BRANCH  15  16
ATOM     16  N   UNL     1       2.907   8.378  17.788  0.00  0.00    +0.000 N 
ATOM     17  H   UNL     1       3.642   8.962  18.175  0.00  0.00    +0.000 HD
BRANCH  16  21
ATOM     18  C   UNL     1       3.759   4.263  18.342  0.00  0.00    +0.000 A 
ATOM     19  C   UNL     1       4.595   5.042  17.550  0.00  0.00    +0.000 A 
ATOM     20  C   UNL     1       4.333   6.403  17.368  0.00  0.00    +0.000 A 
ATOM     21  C   UNL     1       3.198   7.008  17.925  0.00  0.00    +0.000 A 
ATOM     22  C   UNL     1       2.390   6.220  18.755  0.00  0.00    +0.000 A 
ATOM     23  C   UNL     1       2.653   4.855  18.948  0.00  0.00    +0.000 A 
BRANCH  18  25
ATOM     24  C   UNL     1       4.293   2.445  19.751  0.00  0.00    +0.000 C 
ATOM     25  O   UNL     1       4.111   2.946  18.432  0.00  0.00    +0.000 OA
ENDBRANCH  18  25
ENDBRANCH  16  21
ENDBRANCH  15  16
ENDBRANCH   1  15
BRANCH   9  26
ATOM     26  C   UNL     1       0.705  11.188  20.887  0.00  0.00    +0.000 C 
BRANCH  26  27
ATOM     27  C   UNL     1      -0.149  11.414  22.115  0.00  0.00    +0.000 C 
ATOM     28  O   UNL     1      -0.088  10.624  23.056  0.00  0.00    +0.000 OA
ATOM     29  N   UNL     1      -1.065  12.432  21.949  0.00  0.00    +0.000 N 
ATOM     30  H   UNL     1      -1.128  12.835  21.019  0.00  0.00    +0.000 HD
BRANCH  29  31
ATOM     31  C   UNL     1      -1.960  12.896  22.924  0.00  0.00    +0.000 A 
ATOM     32  C   UNL     1      -3.143  12.222  23.248  0.00  0.00    +0.000 A 
ATOM     33  C   UNL     1      -3.998  12.722  24.230  0.00  0.00    +0.000 A 
ATOM     34  C   UNL     1      -3.673  13.897  24.893  0.00  0.00    +0.000 A 
ATOM     35  C   UNL     1      -2.490  14.557  24.575  0.00  0.00    +0.000 A 
ATOM     36  F   UNL     1      -2.180  15.697  25.207  0.00  0.00    +0.000 F 
ATOM     37  C   UNL     1      -1.623  14.062  23.609  0.00  0.00    +0.000 A 
ENDBRANCH  29  31
ENDBRANCH  26  27
ENDBRANCH   9  26
TORSDOF 7
ENDMDL
MODEL 7
REMARK VINA RESULT:      -8.1      7.820     10.637
REMARK  Name = 
REMARK  8 active torsions:
REMARK  status: ('A' for Active; 'I' for Inactive)
REMARK    1  A    between atoms: C_1  and  O_2
REMARK    2  A    between atoms: O_2  and  C_3
REMARK    3  A    between atoms: C_6  and  N_7
REMARK    4  A    between atoms: N_7  and  C_8
REMARK    5  A    between atoms: C_8  and  C_9
REMARK    6  A    between atoms: N_17  and  C_18
REMARK    7  A    between atoms: C_18  and  C_19
REMARK    8  A    between atoms: N_21  and  C_22
REMARK                            x       y       z     vdW  Elec       q    Type
REMARK                         _______ _______ _______ _____ _____    ______ ____
ROOT
ATOM      1  C   UNL     1       1.187  10.197  18.296  0.00  0.00    +0.000 A 
ATOM      2  C   UNL     1       2.238  11.030  18.128  0.00  0.00    +0.000 A 
ATOM      3  C   UNL     1       2.081  12.466  18.449  0.00  0.00    +0.000 A 
ATOM      4  C   UNL     1       3.007  13.448  18.089  0.00  0.00    +0.000 A 
ATOM      5  C   UNL     1       2.745  14.750  18.489  0.00  0.00    +0.000 A 
ATOM      6  C   UNL     1       1.609  15.092  19.193  0.00  0.00    +0.000 A 
ATOM      7  C   UNL     1       0.697  14.153  19.603  0.00  0.00    +0.000 A 
ATOM      8  C   UNL     1       0.971  12.830  19.261  0.00  0.00    +0.000 A 
ATOM      9  N   UNL     1       0.117  11.798  19.751  0.00  0.00    +0.000 N 
ATOM     10  C   UNL     1      -0.092  10.788  18.808  0.00  0.00    +0.000 A 
ATOM     11  O   UNL     1      -1.195  10.303  18.600  0.00  0.00    +0.000 OA
ATOM     12  O   UNL     1       1.535  16.424  19.457  0.00  0.00    +0.000 OA
ATOM     13  C   UNL     1       2.860  16.831  19.069  0.00  0.00    +0.000 C 
ATOM     14  O   UNL     1       3.543  15.834  18.273  0.00  0.00    +0.000 OA
ENDROOT
BRANCH   1  15
ATOM     15  C   UNL     1       1.205   8.702  18.363  0.00  0.00    +0.000 C 
BRANCH  15  16
ATOM     16  N   UNL     1       2.554   8.171  18.268  0.00  0.00    +0.000 N 
ATOM     17  H   UNL     1       3.247   8.790  18.678  0.00  0.00    +0.000 HD
BRANCH  16  21
ATOM     18  C   UNL     1       2.998   4.120  19.432  0.00  0.00    +0.000 A 
ATOM     19  C   UNL     1       2.409   5.030  20.304  0.00  0.00    +0.000 A 
ATOM     20  C   UNL     1       2.245   6.366  19.929  0.00  0.00    +0.000 A 
ATOM     21  C   UNL     1       2.717   6.841  18.697  0.00  0.00    +0.000 A 
ATOM     22  C   UNL     1       3.269   5.904  17.814  0.00  0.00    +0.000 A 
ATOM     23  C   UNL     1       3.427   4.559  18.182  0.00  0.00    +0.000 A 
BRANCH  18  25
ATOM     24  C   UNL     1       4.432   2.315  19.942  0.00  0.00    +0.000 C 
ATOM     25  O   UNL     1       3.114   2.848  19.918  0.00  0.00    +0.000 OA
ENDBRANCH  18  25
ENDBRANCH  16  21
ENDBRANCH  15  16
ENDBRANCH   1  15
BRANCH   9  26
ATOM     26  C   UNL     1       0.639  11.213  21.011  0.00  0.00    +0.000 C 
BRANCH  26  27
ATOM     27  C   UNL     1      -0.201  11.476  22.240  0.00  0.00    +0.000 C 
ATOM     28  O   UNL     1      -0.193  10.670  23.170  0.00  0.00    +0.000 OA
ATOM     29  N   UNL     1      -1.050  12.552  22.088  0.00  0.00    +0.000 N 
ATOM     30  H   UNL     1      -1.086  12.971  21.164  0.00  0.00    +0.000 HD
BRANCH  29  31
ATOM     31  C   UNL     1      -1.916  13.058  23.068  0.00  0.00    +0.000 A 
ATOM     32  C   UNL     1      -1.686  14.272  23.727  0.00  0.00    +0.000 A 
ATOM     33  C   UNL     1      -2.581  14.736  24.692  0.00  0.00    +0.000 A 
ATOM     34  C   UNL     1      -3.709  13.989  25.000  0.00  0.00    +0.000 A 
ATOM     35  C   UNL     1      -3.939  12.789  24.333  0.00  0.00    +0.000 A 
ATOM     36  F   UNL     1      -5.023  12.062  24.638  0.00  0.00    +0.000 F 
ATOM     37  C   UNL     1      -3.063  12.323  23.361  0.00  0.00    +0.000 A 
ENDBRANCH  29  31
ENDBRANCH  26  27
ENDBRANCH   9  26
TORSDOF 7
ENDMDL
MODEL 8
REMARK VINA RESULT:      -8.0      7.897     10.438
REMARK  Name = 
REMARK  8 active torsions:
REMARK  status: ('A' for Active; 'I' for Inactive)
REMARK    1  A    between atoms: C_1  and  O_2
REMARK    2  A    between atoms: O_2  and  C_3
REMARK    3  A    between atoms: C_6  and  N_7
REMARK    4  A    between atoms: N_7  and  C_8
REMARK    5  A    between atoms: C_8  and  C_9
REMARK    6  A    between atoms: N_17  and  C_18
REMARK    7  A    between atoms: C_18  and  C_19
REMARK    8  A    between atoms: N_21  and  C_22
REMARK                            x       y       z     vdW  Elec       q    Type
REMARK                         _______ _______ _______ _____ _____    ______ ____
ROOT
ATOM      1  C   UNL     1       1.478  10.240  18.235  0.00  0.00    +0.000 A 
ATOM      2  C   UNL     1       2.431  11.193  18.132  0.00  0.00    +0.000 A 
ATOM      3  C   UNL     1       2.070  12.606  18.377  0.00  0.00    +0.000 A 
ATOM      4  C   UNL     1       2.901  13.685  18.064  0.00  0.00    +0.000 A 
ATOM      5  C   UNL     1       2.444  14.956  18.383  0.00  0.00    +0.000 A 
ATOM      6  C   UNL     1       1.210  15.174  18.961  0.00  0.00    +0.000 A 
ATOM      7  C   UNL     1       0.383  14.141  19.321  0.00  0.00    +0.000 A 
ATOM      8  C   UNL     1       0.849  12.853  19.063  0.00  0.00    +0.000 A 
ATOM      9  N   UNL     1       0.082  11.737  19.513  0.00  0.00    +0.000 N 
ATOM     10  C   UNL     1       0.093  10.681  18.598  0.00  0.00    +0.000 A 
ATOM     11  O   UNL     1      -0.918  10.056  18.307  0.00  0.00    +0.000 OA
ATOM     12  O   UNL     1       0.950  16.494  19.160  0.00  0.00    +0.000 OA
ATOM     13  C   UNL     1       2.247  17.051  18.882  0.00  0.00    +0.000 C 
ATOM     14  O   UNL     1       3.121  16.124  18.198  0.00  0.00    +0.000 OA
ENDROOT
BRANCH   1  15
ATOM     15  C   UNL     1       1.671   8.762  18.367  0.00  0.00    +0.000 C 
BRANCH  15  16
ATOM     16  N   UNL     1       2.988   8.345  17.920  0.00  0.00    +0.000 N 
ATOM     17  H   UNL     1       3.737   8.800  18.433  0.00  0.00    +0.000 HD
BRANCH  16  21
ATOM     18  C   UNL     1       3.637   4.178  17.492  0.00  0.00    +0.000 A 
ATOM     19  C   UNL     1       2.451   4.639  18.051  0.00  0.00    +0.000 A 
ATOM     20  C   UNL     1       2.217   6.011  18.188  0.00  0.00    +0.000 A 
ATOM     21  C   UNL     1       3.188   6.955  17.823  0.00  0.00    +0.000 A 
ATOM     22  C   UNL     1       4.360   6.476  17.223  0.00  0.00    +0.000 A 
ATOM     23  C   UNL     1       4.594   5.100  17.075  0.00  0.00    +0.000 A 
BRANCH  18  25
ATOM     24  C   UNL     1       2.985   2.086  18.372  0.00  0.00    +0.000 C 
ATOM     25  O   UNL     1       3.753   2.818  17.425  0.00  0.00    +0.000 OA
ENDBRANCH  18  25
ENDBRANCH  16  21
ENDBRANCH  15  16
ENDBRANCH   1  15
BRANCH   9  26
ATOM     26  C   UNL     1       0.544  11.261  20.840  0.00  0.00    +0.000 C 
BRANCH  26  27
ATOM     27  C   UNL     1      -0.390  11.557  21.992  0.00  0.00    +0.000 C 
ATOM     28  O   UNL     1      -0.287  10.924  23.042  0.00  0.00    +0.000 OA
ATOM     29  N   UNL     1      -1.407  12.423  21.648  0.00  0.00    +0.000 N 
ATOM     30  H   UNL     1      -1.469  12.678  20.667  0.00  0.00    +0.000 HD
BRANCH  29  31
ATOM     31  C   UNL     1      -2.396  12.912  22.513  0.00  0.00    +0.000 A 
ATOM     32  C   UNL     1      -2.108  13.754  23.594  0.00  0.00    +0.000 A 
ATOM     33  C   UNL     1      -3.129  14.218  24.424  0.00  0.00    +0.000 A 
ATOM     34  C   UNL     1      -4.442  13.844  24.174  0.00  0.00    +0.000 A 
ATOM     35  C   UNL     1      -4.725  13.015  23.092  0.00  0.00    +0.000 A 
ATOM     36  F   UNL     1      -5.990  12.645  22.858  0.00  0.00    +0.000 F 
ATOM     37  C   UNL     1      -3.718  12.558  22.251  0.00  0.00    +0.000 A 
ENDBRANCH  29  31
ENDBRANCH  26  27
ENDBRANCH   9  26
TORSDOF 7
ENDMDL
MODEL 9
REMARK VINA RESULT:      -8.0      7.472      9.520
REMARK  Name = 
REMARK  8 active torsions:
REMARK  status: ('A' for Active; 'I' for Inactive)
REMARK    1  A    between atoms: C_1  and  O_2
REMARK    2  A    between atoms: O_2  and  C_3
REMARK    3  A    between atoms: C_6  and  N_7
REMARK    4  A    between atoms: N_7  and  C_8
REMARK    5  A    between atoms: C_8  and  C_9
REMARK    6  A    between atoms: N_17  and  C_18
REMARK    7  A    between atoms: C_18  and  C_19
REMARK    8  A    between atoms: N_21  and  C_22
REMARK                            x       y       z     vdW  Elec       q    Type
REMARK                         _______ _______ _______ _____ _____    ______ ____
ROOT
ATOM      1  C   UNL     1       0.583   9.195  18.959  0.00  0.00    +0.000 A 
ATOM      2  C   UNL     1      -0.222   9.285  17.876  0.00  0.00    +0.000 A 
ATOM      3  C   UNL     1      -1.463  10.085  17.962  0.00  0.00    +0.000 A 
ATOM      4  C   UNL     1      -2.478  10.050  17.002  0.00  0.00    +0.000 A 
ATOM      5  C   UNL     1      -3.570  10.882  17.198  0.00  0.00    +0.000 A 
ATOM      6  C   UNL     1      -3.686  11.702  18.301  0.00  0.00    +0.000 A 
ATOM      7  C   UNL     1      -2.695  11.798  19.244  0.00  0.00    +0.000 A 
ATOM      8  C   UNL     1      -1.562  11.013  19.037  0.00  0.00    +0.000 A 
ATOM      9  N   UNL     1      -0.454  11.150  19.924  0.00  0.00    +0.000 N 
ATOM     10  C   UNL     1       0.162   9.925  20.198  0.00  0.00    +0.000 A 
ATOM     11  O   UNL     1       0.508   9.604  21.327  0.00  0.00    +0.000 OA
ATOM     12  O   UNL     1      -4.848  12.409  18.310  0.00  0.00    +0.000 OA
ATOM     13  C   UNL     1      -5.319  12.136  16.978  0.00  0.00    +0.000 C 
ATOM     14  O   UNL     1      -4.635  11.023  16.358  0.00  0.00    +0.000 OA
ENDROOT
BRANCH   1  15
ATOM     15  C   UNL     1       2.009   8.745  19.005  0.00  0.00    +0.000 C 
BRANCH  15  16
ATOM     16  N   UNL     1       2.246   7.804  20.086  0.00  0.00    +0.000 N 
ATOM     17  H   UNL     1       1.675   7.997  20.904  0.00  0.00    +0.000 HD
BRANCH  16  21
ATOM     18  C   UNL     1       2.077   3.743  18.883  0.00  0.00    +0.000 A 
ATOM     19  C   UNL     1       1.649   4.106  20.155  0.00  0.00    +0.000 A 
ATOM     20  C   UNL     1       1.687   5.443  20.562  0.00  0.00    +0.000 A 
ATOM     21  C   UNL     1       2.208   6.443  19.729  0.00  0.00    +0.000 A 
ATOM     22  C   UNL     1       2.596   6.068  18.436  0.00  0.00    +0.000 A 
ATOM     23  C   UNL     1       2.550   4.728  18.020  0.00  0.00    +0.000 A 
BRANCH  18  25
ATOM     24  C   UNL     1       3.135   1.847  17.955  0.00  0.00    +0.000 C 
ATOM     25  O   UNL     1       2.002   2.407  18.609  0.00  0.00    +0.000 OA
ENDBRANCH  18  25
ENDBRANCH  16  21
ENDBRANCH  15  16
ENDBRANCH   1  15
BRANCH   9  26
ATOM     26  C   UNL     1       0.546  12.112  19.399  0.00  0.00    +0.000 C 
BRANCH  26  27
ATOM     27  C   UNL     1       0.332  13.552  19.810  0.00  0.00    +0.000 C 
ATOM     28  O   UNL     1      -0.235  13.808  20.871  0.00  0.00    +0.000 OA
ATOM     29  N   UNL     1       0.659  14.446  18.812  0.00  0.00    +0.000 N 
ATOM     30  H   UNL     1       0.904  14.047  17.911  0.00  0.00    +0.000 HD
BRANCH  29  31
ATOM     31  C   UNL     1       0.606  15.844  18.914  0.00  0.00    +0.000 A 
ATOM     32  C   UNL     1      -0.465  16.599  18.420  0.00  0.00    +0.000 A 
ATOM     33  C   UNL     1      -0.474  17.987  18.551  0.00  0.00    +0.000 A 
ATOM     34  C   UNL     1       0.586  18.626  19.178  0.00  0.00    +0.000 A 
ATOM     35  C   UNL     1       1.643  17.871  19.677  0.00  0.00    +0.000 A 
ATOM     36  F   UNL     1       2.672  18.488  20.272  0.00  0.00    +0.000 F 
ATOM     37  C   UNL     1       1.657  16.486  19.565  0.00  0.00    +0.000 A 
ENDBRANCH  29  31
ENDBRANCH  26  27
ENDBRANCH   9  26
TORSDOF 7
ENDMDL
