MODEL 1
REMARK VINA RESULT:      -7.8      0.000      0.000
REMARK  Name = 
REMARK  12 active torsions:
REMARK  status: ('A' for Active; 'I' for Inactive)
REMARK    1  A    between atoms: C_1  and  O_2
REMARK    2  A    between atoms: O_2  and  C_3
REMARK    3  A    between atoms: C_6  and  C_7
REMARK    4  A    between atoms: C_7  and  C_8
REMARK    5  A    between atoms: C_8  and  N_9
REMARK    6  A    between atoms: N_9  and  C_10
REMARK    7  A    between atoms: C_10  and  C_11
REMARK    8  A    between atoms: C_11  and  C_12
REMARK    9  A    between atoms: C_12  and  N_13
REMARK   10  A    between atoms: N_13  and  C_14
REMARK   11  A    between atoms: C_30  and  O_31
REMARK   12  A    between atoms: O_31  and  C_32
REMARK                            x       y       z     vdW  Elec       q    Type
REMARK                         _______ _______ _______ _____ _____    ______ ____
ROOT
ATOM      1  C   UNL     1       1.858   7.717  17.650  0.00  0.00    +0.000 C 
ENDROOT
BRANCH   1   2
ATOM      2  N   UNL     1       2.825   6.944  18.442  0.00  0.00    +0.000 NA
ATOM      3  H   UNL     1       3.485   7.576  18.888  0.00  0.00    +0.000 HD
BRANCH   2   4
ATOM      4  C   UNL     1       3.619   5.872  17.779  0.00  0.00    +0.000 C 
ATOM      5  C   UNL     1       2.864   4.388  18.303  0.00  0.00    +0.000 A 
ATOM      6  C   UNL     1       1.484   4.297  17.984  0.00  0.00    +0.000 A 
ATOM      7  C   UNL     1       0.691   3.189  18.368  0.00  0.00    +0.000 A 
ATOM      8  C   UNL     1       1.221   2.124  19.093  0.00  0.00    +0.000 A 
ATOM      9  C   UNL     1       2.553   2.146  19.444  0.00  0.00    +0.000 A 
ATOM     10  C   UNL     1       3.374   3.238  19.095  0.00  0.00    +0.000 A 
ATOM     11  C   UNL     1       4.814   3.057  19.650  0.00  0.00    +0.000 C 
ATOM     12  C   UNL     1       5.328   4.330  19.191  0.00  0.00    +0.000 C 
ATOM     13  C   UNL     1       6.082   5.438  18.710  0.00  0.00    +0.000 A 
ATOM     14  C   UNL     1       7.413   5.691  18.978  0.00  0.00    +0.000 A 
ATOM     15  C   UNL     1       7.987   6.789  18.365  0.00  0.00    +0.000 A 
ATOM     16  C   UNL     1       7.224   7.558  17.476  0.00  0.00    +0.000 A 
ATOM     17  C   UNL     1       5.866   7.265  17.207  0.00  0.00    +0.000 A 
ATOM     18  C   UNL     1       5.226   6.214  17.875  0.00  0.00    +0.000 A 
ENDBRANCH   2   4
ENDBRANCH   1   2
BRANCH   1  19
ATOM     19  C   UNL     1       2.199   9.214  17.739  0.00  0.00    +0.000 C 
BRANCH  19  20
ATOM     20  C   UNL     1       1.857   9.904  19.070  0.00  0.00    +0.000 C 
BRANCH  20  21
ATOM     21  N   UNL     1       0.988   9.128  19.966  0.00  0.00    +0.000 NA
ATOM     22  H   UNL     1       0.618   8.317  19.471  0.00  0.00    +0.000 HD
BRANCH  21  23
ATOM     23  C   UNL     1      -0.132   9.976  20.410  0.00  0.00    +0.000 C 
BRANCH  23  24
ATOM     24  C   UNL     1      -0.352  11.217  19.526  0.00  0.00    +0.000 C 
BRANCH  24  28
ATOM     25  C   UNL     1      -4.207  11.376  17.597  0.00  0.00    +0.000 A 
ATOM     26  C   UNL     1      -3.991  12.073  18.790  0.00  0.00    +0.000 A 
ATOM     27  C   UNL     1      -2.763  11.988  19.454  0.00  0.00    +0.000 A 
ATOM     28  C   UNL     1      -1.751  11.171  18.949  0.00  0.00    +0.000 A 
ATOM     29  C   UNL     1      -2.018  10.392  17.818  0.00  0.00    +0.000 A 
ATOM     30  C   UNL     1      -3.240  10.479  17.131  0.00  0.00    +0.000 A 
BRANCH  25  32
ATOM     31  C   UNL     1      -6.165  12.673  17.277  0.00  0.00    +0.000 C 
ATOM     32  O   UNL     1      -5.367  11.558  16.873  0.00  0.00    +0.000 OA
ENDBRANCH  25  32
BRANCH  30  33
ATOM     33  O   UNL     1      -3.259   9.663  16.033  0.00  0.00    +0.000 OA
ATOM     34  C   UNL     1      -2.929  10.195  14.762  0.00  0.00    +0.000 C 
ENDBRANCH  30  33
ENDBRANCH  24  28
ENDBRANCH  23  24
ENDBRANCH  21  23
ENDBRANCH  20  21
ENDBRANCH  19  20
ENDBRANCH   1  19
TORSDOF 10
ENDMDL
MODEL 2
REMARK VINA RESULT:      -7.8      5.149      9.385
REMARK  Name = 
REMARK  12 active torsions:
REMARK  status: ('A' for Active; 'I' for Inactive)
REMARK    1  A    between atoms: C_1  and  O_2
REMARK    2  A    between atoms: O_2  and  C_3
REMARK    3  A    between atoms: C_6  and  C_7
REMARK    4  A    between atoms: C_7  and  C_8
REMARK    5  A    between atoms: C_8  and  N_9
REMARK    6  A    between atoms: N_9  and  C_10
REMARK    7  A    between atoms: C_10  and  C_11
REMARK    8  A    between atoms: C_11  and  C_12
REMARK    9  A    between atoms: C_12  and  N_13
REMARK   10  A    between atoms: N_13  and  C_14
REMARK   11  A    between atoms: C_30  and  O_31
REMARK   12  A    between atoms: O_31  and  C_32
REMARK                            x       y       z     vdW  Elec       q    Type
REMARK                         _______ _______ _______ _____ _____    ______ ____
ROOT
ATOM      1  C   UNL     1       5.032   5.799  17.519  0.00  0.00    +0.000 C 
ENDROOT
BRANCH   1   2
ATOM      2  N   UNL     1       4.119   6.907  17.832  0.00  0.00    +0.000 NA
ATOM      3  H   UNL     1       4.471   7.425  18.633  0.00  0.00    +0.000 HD
BRANCH   2   4
ATOM      4  C   UNL     1       2.681   6.616  18.091  0.00  0.00    +0.000 C 
ATOM      5  C   UNL     1       2.025   8.137  18.642  0.00  0.00    +0.000 A 
ATOM      6  C   UNL     1       2.191   9.206  17.724  0.00  0.00    +0.000 A 
ATOM      7  C   UNL     1       1.765  10.524  18.014  0.00  0.00    +0.000 A 
ATOM      8  C   UNL     1       1.164  10.851  19.228  0.00  0.00    +0.000 A 
ATOM      9  C   UNL     1       0.975   9.865  20.172  0.00  0.00    +0.000 A 
ATOM     10  C   UNL     1       1.399   8.542  19.929  0.00  0.00    +0.000 A 
ATOM     11  C   UNL     1       1.131   7.632  21.159  0.00  0.00    +0.000 C 
ATOM     12  C   UNL     1       1.728   6.433  20.611  0.00  0.00    +0.000 C 
ATOM     13  C   UNL     1       2.113   5.117  20.224  0.00  0.00    +0.000 A 
ATOM     14  C   UNL     1       2.061   3.991  21.021  0.00  0.00    +0.000 A 
ATOM     15  C   UNL     1       2.420   2.787  20.443  0.00  0.00    +0.000 A 
ATOM     16  C   UNL     1       2.769   2.752  19.086  0.00  0.00    +0.000 A 
ATOM     17  C   UNL     1       2.797   3.921  18.289  0.00  0.00    +0.000 A 
ATOM     18  C   UNL     1       2.524   5.170  18.860  0.00  0.00    +0.000 A 
ENDBRANCH   2   4
ENDBRANCH   1   2
BRANCH   1  19
ATOM     19  C   UNL     1       6.450   6.149  18.002  0.00  0.00    +0.000 C 
BRANCH  19  20
ATOM     20  C   UNL     1       7.000   7.510  17.543  0.00  0.00    +0.000 C 
BRANCH  20  21
ATOM     21  N   UNL     1       8.234   7.938  18.216  0.00  0.00    +0.000 NA
ATOM     22  H   UNL     1       8.197   7.681  19.202  0.00  0.00    +0.000 HD
BRANCH  21  23
ATOM     23  C   UNL     1       8.367   9.401  18.102  0.00  0.00    +0.000 C 
BRANCH  23  24
ATOM     24  C   UNL     1       9.252  10.024  19.198  0.00  0.00    +0.000 C 
BRANCH  24  28
ATOM     25  C   UNL     1      10.578  13.725  17.424  0.00  0.00    +0.000 A 
ATOM     26  C   UNL     1      11.392  12.589  17.367  0.00  0.00    +0.000 A 
ATOM     27  C   UNL     1      10.999  11.398  17.983  0.00  0.00    +0.000 A 
ATOM     28  C   UNL     1       9.802  11.342  18.699  0.00  0.00    +0.000 A 
ATOM     29  C   UNL     1       9.052  12.515  18.843  0.00  0.00    +0.000 A 
ATOM     30  C   UNL     1       9.425  13.715  18.216  0.00  0.00    +0.000 A 
BRANCH  25  32
ATOM     31  C   UNL     1      11.957  15.647  17.267  0.00  0.00    +0.000 C 
ATOM     32  O   UNL     1      10.900  14.861  16.711  0.00  0.00    +0.000 OA
ENDBRANCH  25  32
BRANCH  30  33
ATOM     33  O   UNL     1       8.521  14.713  18.460  0.00  0.00    +0.000 OA
ATOM     34  C   UNL     1       7.326  14.773  17.702  0.00  0.00    +0.000 C 
ENDBRANCH  30  33
ENDBRANCH  24  28
ENDBRANCH  23  24
ENDBRANCH  21  23
ENDBRANCH  20  21
ENDBRANCH  19  20
ENDBRANCH   1  19
TORSDOF 10
ENDMDL
MODEL 3
REMARK VINA RESULT:      -7.7      5.021      9.364
REMARK  Name = 
REMARK  12 active torsions:
REMARK  status: ('A' for Active; 'I' for Inactive)
REMARK    1  A    between atoms: C_1  and  O_2
REMARK    2  A    between atoms: O_2  and  C_3
REMARK    3  A    between atoms: C_6  and  C_7
REMARK    4  A    between atoms: C_7  and  C_8
REMARK    5  A    between atoms: C_8  and  N_9
REMARK    6  A    between atoms: N_9  and  C_10
REMARK    7  A    between atoms: C_10  and  C_11
REMARK    8  A    between atoms: C_11  and  C_12
REMARK    9  A    between atoms: C_12  and  N_13
REMARK   10  A    between atoms: N_13  and  C_14
REMARK   11  A    between atoms: C_30  and  O_31
REMARK   12  A    between atoms: O_31  and  C_32
REMARK                            x       y       z     vdW  Elec       q    Type
REMARK                         _______ _______ _______ _____ _____    ______ ____
ROOT
ATOM      1  C   UNL     1       5.462   5.669  17.510  0.00  0.00    +0.000 C 
ENDROOT
BRANCH   1   2
ATOM      2  N   UNL     1       4.567   6.475  18.351  0.00  0.00    +0.000 NA
ATOM      3  H   UNL     1       4.922   6.501  19.303  0.00  0.00    +0.000 HD
BRANCH   2   4
ATOM      4  C   UNL     1       3.122   6.121  18.428  0.00  0.00    +0.000 C 
ATOM      5  C   UNL     1       2.316   7.646  18.695  0.00  0.00    +0.000 A 
ATOM      6  C   UNL     1       2.568   8.617  17.691  0.00  0.00    +0.000 A 
ATOM      7  C   UNL     1       2.039   9.928  17.758  0.00  0.00    +0.000 A 
ATOM      8  C   UNL     1       1.244  10.345  18.823  0.00  0.00    +0.000 A 
ATOM      9  C   UNL     1       0.962   9.457  19.839  0.00  0.00    +0.000 A 
ATOM     10  C   UNL     1       1.482   8.147  19.819  0.00  0.00    +0.000 A 
ATOM     11  C   UNL     1       1.073   7.361  21.095  0.00  0.00    +0.000 C 
ATOM     12  C   UNL     1       1.804   6.152  20.785  0.00  0.00    +0.000 C 
ATOM     13  C   UNL     1       2.308   4.830  20.617  0.00  0.00    +0.000 A 
ATOM     14  C   UNL     1       2.189   3.796  21.524  0.00  0.00    +0.000 A 
ATOM     15  C   UNL     1       2.691   2.563  21.151  0.00  0.00    +0.000 A 
ATOM     16  C   UNL     1       3.245   2.402  19.874  0.00  0.00    +0.000 A 
ATOM     17  C   UNL     1       3.337   3.477  18.958  0.00  0.00    +0.000 A 
ATOM     18  C   UNL     1       2.920   4.760  19.331  0.00  0.00    +0.000 A 
ENDBRANCH   2   4
ENDBRANCH   1   2
BRANCH   1  19
ATOM     19  C   UNL     1       6.844   5.568  18.177  0.00  0.00    +0.000 C 
BRANCH  19  20
ATOM     20  C   UNL     1       7.780   6.771  17.971  0.00  0.00    +0.000 C 
BRANCH  20  21
ATOM     21  N   UNL     1       7.141   7.964  17.399  0.00  0.00    +0.000 NA
ATOM     22  H   UNL     1       6.909   7.795  16.421  0.00  0.00    +0.000 HD
BRANCH  21  23
ATOM     23  C   UNL     1       8.071   9.103  17.487  0.00  0.00    +0.000 C 
BRANCH  23  24
ATOM     24  C   UNL     1       8.815   9.186  18.832  0.00  0.00    +0.000 C 
BRANCH  24  28
ATOM     25  C   UNL     1      10.139  13.282  19.111  0.00  0.00    +0.000 A 
ATOM     26  C   UNL     1      10.546  12.484  18.036  0.00  0.00    +0.000 A 
ATOM     27  C   UNL     1      10.168  11.141  17.961  0.00  0.00    +0.000 A 
ATOM     28  C   UNL     1       9.410  10.569  18.983  0.00  0.00    +0.000 A 
ATOM     29  C   UNL     1       9.104  11.346  20.106  0.00  0.00    +0.000 A 
ATOM     30  C   UNL     1       9.462  12.701  20.189  0.00  0.00    +0.000 A 
BRANCH  25  32
ATOM     31  C   UNL     1      11.701  14.998  19.594  0.00  0.00    +0.000 C 
ATOM     32  O   UNL     1      10.400  14.636  19.125  0.00  0.00    +0.000 OA
ENDBRANCH  25  32
BRANCH  30  33
ATOM     33  O   UNL     1       9.021  13.268  21.354  0.00  0.00    +0.000 OA
ATOM     34  C   UNL     1       9.024  12.505  22.547  0.00  0.00    +0.000 C 
ENDBRANCH  30  33
ENDBRANCH  24  28
ENDBRANCH  23  24
ENDBRANCH  21  23
ENDBRANCH  20  21
ENDBRANCH  19  20
ENDBRANCH   1  19
TORSDOF 10
ENDMDL
MODEL 4
REMARK VINA RESULT:      -7.7      5.168      9.218
REMARK  Name = 
REMARK  12 active torsions:
REMARK  status: ('A' for Active; 'I' for Inactive)
REMARK    1  A    between atoms: C_1  and  O_2
REMARK    2  A    between atoms: O_2  and  C_3
REMARK    3  A    between atoms: C_6  and  C_7
REMARK    4  A    between atoms: C_7  and  C_8
REMARK    5  A    between atoms: C_8  and  N_9
REMARK    6  A    between atoms: N_9  and  C_10
REMARK    7  A    between atoms: C_10  and  C_11
REMARK    8  A    between atoms: C_11  and  C_12
REMARK    9  A    between atoms: C_12  and  N_13
REMARK   10  A    between atoms: N_13  and  C_14
REMARK   11  A    between atoms: C_30  and  O_31
REMARK   12  A    between atoms: O_31  and  C_32
REMARK                            x       y       z     vdW  Elec       q    Type
REMARK                         _______ _______ _______ _____ _____    ______ ____
ROOT
ATOM      1  C   UNL     1       5.690   5.819  18.363  0.00  0.00    +0.000 C 
ENDROOT
BRANCH   1   2
ATOM      2  N   UNL     1       4.654   6.307  17.443  0.00  0.00    +0.000 NA
ATOM      3  H   UNL     1       4.652   7.323  17.436  0.00  0.00    +0.000 HD
BRANCH   2   4
ATOM      4  C   UNL     1       3.244   5.864  17.630  0.00  0.00    +0.000 C 
ATOM      5  C   UNL     1       2.463   7.221  18.401  0.00  0.00    +0.000 A 
ATOM      6  C   UNL     1       2.543   8.430  17.662  0.00  0.00    +0.000 A 
ATOM      7  C   UNL     1       2.009   9.648  18.147  0.00  0.00    +0.000 A 
ATOM      8  C   UNL     1       1.379   9.732  19.387  0.00  0.00    +0.000 A 
ATOM      9  C   UNL     1       1.269   8.598  20.163  0.00  0.00    +0.000 A 
ATOM     10  C   UNL     1       1.801   7.368  19.724  0.00  0.00    +0.000 A 
ATOM     11  C   UNL     1       1.605   6.258  20.794  0.00  0.00    +0.000 C 
ATOM     12  C   UNL     1       2.301   5.212  20.075  0.00  0.00    +0.000 C 
ATOM     13  C   UNL     1       2.795   4.009  19.494  0.00  0.00    +0.000 A 
ATOM     14  C   UNL     1       2.833   2.771  20.105  0.00  0.00    +0.000 A 
ATOM     15  C   UNL     1       3.292   1.706  19.353  0.00  0.00    +0.000 A 
ATOM     16  C   UNL     1       3.647   1.911  18.013  0.00  0.00    +0.000 A 
ATOM     17  C   UNL     1       3.581   3.189  17.408  0.00  0.00    +0.000 A 
ATOM     18  C   UNL     1       3.204   4.308  18.162  0.00  0.00    +0.000 A 
ENDBRANCH   2   4
ENDBRANCH   1   2
BRANCH   1  19
ATOM     19  C   UNL     1       7.075   5.997  17.720  0.00  0.00    +0.000 C 
BRANCH  19  20
ATOM     20  C   UNL     1       7.873   7.232  18.172  0.00  0.00    +0.000 C 
BRANCH  20  21
ATOM     21  N   UNL     1       7.930   8.325  17.193  0.00  0.00    +0.000 NA
ATOM     22  H   UNL     1       8.734   8.198  16.579  0.00  0.00    +0.000 HD
BRANCH  21  23
ATOM     23  C   UNL     1       8.063   9.608  17.904  0.00  0.00    +0.000 C 
BRANCH  23  24
ATOM     24  C   UNL     1       9.142   9.591  19.004  0.00  0.00    +0.000 C 
BRANCH  24  28
ATOM     25  C   UNL     1      10.833  13.554  19.202  0.00  0.00    +0.000 A 
ATOM     26  C   UNL     1      11.406  12.509  19.935  0.00  0.00    +0.000 A 
ATOM     27  C   UNL     1      10.838  11.233  19.922  0.00  0.00    +0.000 A 
ATOM     28  C   UNL     1       9.664  10.997  19.205  0.00  0.00    +0.000 A 
ATOM     29  C   UNL     1       9.039  12.076  18.568  0.00  0.00    +0.000 A 
ATOM     30  C   UNL     1       9.606  13.360  18.559  0.00  0.00    +0.000 A 
BRANCH  25  32
ATOM     31  C   UNL     1      11.004  15.767  20.036  0.00  0.00    +0.000 C 
ATOM     32  O   UNL     1      11.461  14.779  19.109  0.00  0.00    +0.000 OA
ENDBRANCH  25  32
BRANCH  30  33
ATOM     33  O   UNL     1       8.846  14.241  17.840  0.00  0.00    +0.000 OA
ATOM     34  C   UNL     1       7.449  14.032  17.732  0.00  0.00    +0.000 C 
ENDBRANCH  30  33
ENDBRANCH  24  28
ENDBRANCH  23  24
ENDBRANCH  21  23
ENDBRANCH  20  21
ENDBRANCH  19  20
ENDBRANCH   1  19
TORSDOF 10
ENDMDL
MODEL 5
REMARK VINA RESULT:      -7.7      1.520      4.000
REMARK  Name = 
REMARK  12 active torsions:
REMARK  status: ('A' for Active; 'I' for Inactive)
REMARK    1  A    between atoms: C_1  and  O_2
REMARK    2  A    between atoms: O_2  and  C_3
REMARK    3  A    between atoms: C_6  and  C_7
REMARK    4  A    between atoms: C_7  and  C_8
REMARK    5  A    between atoms: C_8  and  N_9
REMARK    6  A    between atoms: N_9  and  C_10
REMARK    7  A    between atoms: C_10  and  C_11
REMARK    8  A    between atoms: C_11  and  C_12
REMARK    9  A    between atoms: C_12  and  N_13
REMARK   10  A    between atoms: N_13  and  C_14
REMARK   11  A    between atoms: C_30  and  O_31
REMARK   12  A    between atoms: O_31  and  C_32
REMARK                            x       y       z     vdW  Elec       q    Type
REMARK                         _______ _______ _______ _____ _____    ______ ____
ROOT
ATOM      1  C   UNL     1       2.489   6.808  19.472  0.00  0.00    +0.000 C 
ENDROOT
BRANCH   1   2
ATOM      2  N   UNL     1       3.865   6.388  19.768  0.00  0.00    +0.000 NA
ATOM      3  H   UNL     1       4.519   6.966  19.248  0.00  0.00    +0.000 HD
BRANCH   2   4
ATOM      4  C   UNL     1       4.258   4.968  19.546  0.00  0.00    +0.000 C 
ATOM      5  C   UNL     1       5.273   5.017  18.126  0.00  0.00    +0.000 A 
ATOM      6  C   UNL     1       6.404   5.864  18.253  0.00  0.00    +0.000 A 
ATOM      7  C   UNL     1       7.317   6.069  17.191  0.00  0.00    +0.000 A 
ATOM      8  C   UNL     1       7.151   5.454  15.952  0.00  0.00    +0.000 A 
ATOM      9  C   UNL     1       6.072   4.621  15.753  0.00  0.00    +0.000 A 
ATOM     10  C   UNL     1       5.130   4.403  16.780  0.00  0.00    +0.000 A 
ATOM     11  C   UNL     1       3.979   3.477  16.298  0.00  0.00    +0.000 C 
ATOM     12  C   UNL     1       3.203   3.531  17.518  0.00  0.00    +0.000 C 
ATOM     13  C   UNL     1       2.366   3.314  18.650  0.00  0.00    +0.000 A 
ATOM     14  C   UNL     1       1.208   2.561  18.670  0.00  0.00    +0.000 A 
ATOM     15  C   UNL     1       0.566   2.416  19.886  0.00  0.00    +0.000 A 
ATOM     16  C   UNL     1       1.130   2.986  21.035  0.00  0.00    +0.000 A 
ATOM     17  C   UNL     1       2.328   3.738  20.987  0.00  0.00    +0.000 A 
ATOM     18  C   UNL     1       2.961   3.980  19.762  0.00  0.00    +0.000 A 
ENDBRANCH   2   4
ENDBRANCH   1   2
BRANCH   1  19
ATOM     19  C   UNL     1       2.434   7.444  18.073  0.00  0.00    +0.000 C 
BRANCH  19  20
ATOM     20  C   UNL     1       2.698   8.958  18.011  0.00  0.00    +0.000 C 
BRANCH  20  21
ATOM     21  N   UNL     1       1.587   9.759  17.479  0.00  0.00    +0.000 NA
ATOM     22  H   UNL     1       1.939  10.652  17.135  0.00  0.00    +0.000 HD
BRANCH  21  23
ATOM     23  C   UNL     1       0.609  10.007  18.553  0.00  0.00    +0.000 C 
BRANCH  23  24
ATOM     24  C   UNL     1       0.089  11.457  18.587  0.00  0.00    +0.000 C 
BRANCH  24  28
ATOM     25  C   UNL     1      -4.203  11.770  18.294  0.00  0.00    +0.000 A 
ATOM     26  C   UNL     1      -3.549  12.159  19.469  0.00  0.00    +0.000 A 
ATOM     27  C   UNL     1      -2.165  12.013  19.597  0.00  0.00    +0.000 A 
ATOM     28  C   UNL     1      -1.424  11.439  18.564  0.00  0.00    +0.000 A 
ATOM     29  C   UNL     1      -2.103  10.952  17.442  0.00  0.00    +0.000 A 
ATOM     30  C   UNL     1      -3.490  11.106  17.291  0.00  0.00    +0.000 A 
BRANCH  25  32
ATOM     31  C   UNL     1      -6.247  12.440  19.290  0.00  0.00    +0.000 C 
ATOM     32  O   UNL     1      -5.545  12.030  18.114  0.00  0.00    +0.000 OA
ENDBRANCH  25  32
BRANCH  30  33
ATOM     33  O   UNL     1      -3.927  10.594  16.099  0.00  0.00    +0.000 OA
ATOM     34  C   UNL     1      -2.982  10.206  15.118  0.00  0.00    +0.000 C 
ENDBRANCH  30  33
ENDBRANCH  24  28
ENDBRANCH  23  24
ENDBRANCH  21  23
ENDBRANCH  20  21
ENDBRANCH  19  20
ENDBRANCH   1  19
TORSDOF 10
ENDMDL
MODEL 6
REMARK VINA RESULT:      -7.7      1.713      4.459
REMARK  Name = 
REMARK  12 active torsions:
REMARK  status: ('A' for Active; 'I' for Inactive)
REMARK    1  A    between atoms: C_1  and  O_2
REMARK    2  A    between atoms: O_2  and  C_3
REMARK    3  A    between atoms: C_6  and  C_7
REMARK    4  A    between atoms: C_7  and  C_8
REMARK    5  A    between atoms: C_8  and  N_9
REMARK    6  A    between atoms: N_9  and  C_10
REMARK    7  A    between atoms: C_10  and  C_11
REMARK    8  A    between atoms: C_11  and  C_12
REMARK    9  A    between atoms: C_12  and  N_13
REMARK   10  A    between atoms: N_13  and  C_14
REMARK   11  A    between atoms: C_30  and  O_31
REMARK   12  A    between atoms: O_31  and  C_32
REMARK                            x       y       z     vdW  Elec       q    Type
REMARK                         _______ _______ _______ _____ _____    ______ ____
ROOT
ATOM      1  C   UNL     1       2.405   6.816  19.448  0.00  0.00    +0.000 C 
ENDROOT
BRANCH   1   2
ATOM      2  N   UNL     1       3.723   6.389  19.937  0.00  0.00    +0.000 NA
ATOM      3  H   UNL     1       4.441   7.009  19.573  0.00  0.00    +0.000 HD
BRANCH   2   4
ATOM      4  C   UNL     1       4.178   4.992  19.685  0.00  0.00    +0.000 C 
ATOM      5  C   UNL     1       5.282   5.133  18.340  0.00  0.00    +0.000 A 
ATOM      6  C   UNL     1       6.373   6.009  18.576  0.00  0.00    +0.000 A 
ATOM      7  C   UNL     1       7.347   6.286  17.587  0.00  0.00    +0.000 A 
ATOM      8  C   UNL     1       7.284   5.719  16.316  0.00  0.00    +0.000 A 
ATOM      9  C   UNL     1       6.248   4.862  16.012  0.00  0.00    +0.000 A 
ATOM     10  C   UNL     1       5.249   4.572  16.964  0.00  0.00    +0.000 A 
ATOM     11  C   UNL     1       4.164   3.632  16.368  0.00  0.00    +0.000 C 
ATOM     12  C   UNL     1       3.307   3.610  17.535  0.00  0.00    +0.000 C 
ATOM     13  C   UNL     1       2.406   3.319  18.598  0.00  0.00    +0.000 A 
ATOM     14  C   UNL     1       1.275   2.531  18.510  0.00  0.00    +0.000 A 
ATOM     15  C   UNL     1       0.559   2.315  19.673  0.00  0.00    +0.000 A 
ATOM     16  C   UNL     1       1.027   2.853  20.879  0.00  0.00    +0.000 A 
ATOM     17  C   UNL     1       2.199   3.643  20.943  0.00  0.00    +0.000 A 
ATOM     18  C   UNL     1       2.903   3.956  19.773  0.00  0.00    +0.000 A 
ENDBRANCH   2   4
ENDBRANCH   1   2
BRANCH   1  19
ATOM     19  C   UNL     1       2.520   7.268  17.983  0.00  0.00    +0.000 C 
BRANCH  19  20
ATOM     20  C   UNL     1       2.699   8.779  17.757  0.00  0.00    +0.000 C 
BRANCH  20  21
ATOM     21  N   UNL     1       1.456   9.520  17.508  0.00  0.00    +0.000 NA
ATOM     22  H   UNL     1       1.526  10.024  16.624  0.00  0.00    +0.000 HD
BRANCH  21  23
ATOM     23  C   UNL     1       1.238  10.486  18.599  0.00  0.00    +0.000 C 
BRANCH  23  24
ATOM     24  C   UNL     1       0.128  10.065  19.579  0.00  0.00    +0.000 C 
BRANCH  24  28
ATOM     25  C   UNL     1      -3.753  11.749  18.736  0.00  0.00    +0.000 A 
ATOM     26  C   UNL     1      -3.215  10.769  17.894  0.00  0.00    +0.000 A 
ATOM     27  C   UNL     1      -1.937  10.253  18.126  0.00  0.00    +0.000 A 
ATOM     28  C   UNL     1      -1.165  10.742  19.180  0.00  0.00    +0.000 A 
ATOM     29  C   UNL     1      -1.669  11.800  19.946  0.00  0.00    +0.000 A 
ATOM     30  C   UNL     1      -2.957  12.318  19.737  0.00  0.00    +0.000 A 
BRANCH  25  32
ATOM     31  C   UNL     1      -5.851  11.378  17.699  0.00  0.00    +0.000 C 
ATOM     32  O   UNL     1      -5.059  12.167  18.589  0.00  0.00    +0.000 OA
ENDBRANCH  25  32
BRANCH  30  33
ATOM     33  O   UNL     1      -3.251  13.313  20.629  0.00  0.00    +0.000 OA
ATOM     34  C   UNL     1      -3.964  13.001  21.812  0.00  0.00    +0.000 C 
ENDBRANCH  30  33
ENDBRANCH  24  28
ENDBRANCH  23  24
ENDBRANCH  21  23
ENDBRANCH  20  21
ENDBRANCH  19  20
ENDBRANCH   1  19
TORSDOF 10
ENDMDL
MODEL 7
REMARK VINA RESULT:      -7.6      1.296      2.064
REMARK  Name = 
REMARK  12 active torsions:
REMARK  status: ('A' for Active; 'I' for Inactive)
REMARK    1  A    between atoms: C_1  and  O_2
REMARK    2  A    between atoms: O_2  and  C_3
REMARK    3  A    between atoms: C_6  and  C_7
REMARK    4  A    between atoms: C_7  and  C_8
REMARK    5  A    between atoms: C_8  and  N_9
REMARK    6  A    between atoms: N_9  and  C_10
REMARK    7  A    between atoms: C_10  and  C_11
REMARK    8  A    between atoms: C_11  and  C_12
REMARK    9  A    between atoms: C_12  and  N_13
REMARK   10  A    between atoms: N_13  and  C_14
REMARK   11  A    between atoms: C_30  and  O_31
REMARK   12  A    between atoms: O_31  and  C_32
REMARK                            x       y       z     vdW  Elec       q    Type
REMARK                         _______ _______ _______ _____ _____    ______ ____
ROOT
ATOM      1  C   UNL     1       2.983   7.444  18.979  0.00  0.00    +0.000 C 
ENDROOT
BRANCH   1   2
ATOM      2  N   UNL     1       2.734   6.625  17.785  0.00  0.00    +0.000 NA
ATOM      3  H   UNL     1       1.778   6.281  17.799  0.00  0.00    +0.000 HD
BRANCH   2   4
ATOM      4  C   UNL     1       3.618   5.460  17.502  0.00  0.00    +0.000 C 
ATOM      5  C   UNL     1       2.813   4.110  18.262  0.00  0.00    +0.000 A 
ATOM      6  C   UNL     1       1.489   3.892  17.800  0.00  0.00    +0.000 A 
ATOM      7  C   UNL     1       0.661   2.874  18.331  0.00  0.00    +0.000 A 
ATOM      8  C   UNL     1       1.099   2.029  19.349  0.00  0.00    +0.000 A 
ATOM      9  C   UNL     1       2.373   2.186  19.852  0.00  0.00    +0.000 A 
ATOM     10  C   UNL     1       3.224   3.198  19.361  0.00  0.00    +0.000 A 
ATOM     11  C   UNL     1       4.578   3.210  20.122  0.00  0.00    +0.000 C 
ATOM     12  C   UNL     1       5.137   4.359  19.444  0.00  0.00    +0.000 C 
ATOM     13  C   UNL     1       5.939   5.354  18.814  0.00  0.00    +0.000 A 
ATOM     14  C   UNL     1       7.220   5.715  19.182  0.00  0.00    +0.000 A 
ATOM     15  C   UNL     1       7.861   6.662  18.405  0.00  0.00    +0.000 A 
ATOM     16  C   UNL     1       7.216   7.172  17.270  0.00  0.00    +0.000 A 
ATOM     17  C   UNL     1       5.909   6.770  16.907  0.00  0.00    +0.000 A 
ATOM     18  C   UNL     1       5.194   5.879  17.717  0.00  0.00    +0.000 A 
ENDBRANCH   2   4
ENDBRANCH   1   2
BRANCH   1  19
ATOM     19  C   UNL     1       1.934   7.118  20.055  0.00  0.00    +0.000 C 
BRANCH  19  20
ATOM     20  C   UNL     1       1.573   8.266  21.013  0.00  0.00    +0.000 C 
BRANCH  20  21
ATOM     21  N   UNL     1       0.315   8.960  20.704  0.00  0.00    +0.000 NA
ATOM     22  H   UNL     1      -0.323   8.322  20.230  0.00  0.00    +0.000 HD
BRANCH  21  23
ATOM     23  C   UNL     1       0.596  10.107  19.823  0.00  0.00    +0.000 C 
BRANCH  23  24
ATOM     24  C   UNL     1       0.107   9.904  18.377  0.00  0.00    +0.000 C 
BRANCH  24  28
ATOM     25  C   UNL     1      -3.895  11.505  18.212  0.00  0.00    +0.000 A 
ATOM     26  C   UNL     1      -3.450  10.624  17.220  0.00  0.00    +0.000 A 
ATOM     27  C   UNL     1      -2.139  10.139  17.232  0.00  0.00    +0.000 A 
ATOM     28  C   UNL     1      -1.245  10.563  18.216  0.00  0.00    +0.000 A 
ATOM     29  C   UNL     1      -1.669  11.530  19.135  0.00  0.00    +0.000 A 
ATOM     30  C   UNL     1      -2.987  12.014  19.147  0.00  0.00    +0.000 A 
BRANCH  25  32
ATOM     31  C   UNL     1      -6.160  10.808  18.237  0.00  0.00    +0.000 C 
ATOM     32  O   UNL     1      -5.220  11.883  18.278  0.00  0.00    +0.000 OA
ENDBRANCH  25  32
BRANCH  30  33
ATOM     33  O   UNL     1      -3.184  12.915  20.158  0.00  0.00    +0.000 OA
ATOM     34  C   UNL     1      -2.224  13.022  21.194  0.00  0.00    +0.000 C 
ENDBRANCH  30  33
ENDBRANCH  24  28
ENDBRANCH  23  24
ENDBRANCH  21  23
ENDBRANCH  20  21
ENDBRANCH  19  20
ENDBRANCH   1  19
TORSDOF 10
ENDMDL
MODEL 8
REMARK VINA RESULT:      -7.5      1.416      3.986
REMARK  Name = 
REMARK  12 active torsions:
REMARK  status: ('A' for Active; 'I' for Inactive)
REMARK    1  A    between atoms: C_1  and  O_2
REMARK    2  A    between atoms: O_2  and  C_3
REMARK    3  A    between atoms: C_6  and  C_7
REMARK    4  A    between atoms: C_7  and  C_8
REMARK    5  A    between atoms: C_8  and  N_9
REMARK    6  A    between atoms: N_9  and  C_10
REMARK    7  A    between atoms: C_10  and  C_11
REMARK    8  A    between atoms: C_11  and  C_12
REMARK    9  A    between atoms: C_12  and  N_13
REMARK   10  A    between atoms: N_13  and  C_14
REMARK   11  A    between atoms: C_30  and  O_31
REMARK   12  A    between atoms: O_31  and  C_32
REMARK                            x       y       z     vdW  Elec       q    Type
REMARK                         _______ _______ _______ _____ _____    ______ ____
ROOT
ATOM      1  C   UNL     1       2.110   6.694  19.559  0.00  0.00    +0.000 C 
ENDROOT
BRANCH   1   2
ATOM      2  N   UNL     1       3.548   6.461  19.753  0.00  0.00    +0.000 NA
ATOM      3  H   UNL     1       4.080   7.066  19.134  0.00  0.00    +0.000 HD
BRANCH   2   4
ATOM      4  C   UNL     1       4.091   5.083  19.597  0.00  0.00    +0.000 C 
ATOM      5  C   UNL     1       5.229   5.213  18.279  0.00  0.00    +0.000 A 
ATOM      6  C   UNL     1       6.259   6.165  18.496  0.00  0.00    +0.000 A 
ATOM      7  C   UNL     1       7.247   6.445  17.522  0.00  0.00    +0.000 A 
ATOM      8  C   UNL     1       7.260   5.804  16.285  0.00  0.00    +0.000 A 
ATOM      9  C   UNL     1       6.286   4.870  16.001  0.00  0.00    +0.000 A 
ATOM     10  C   UNL     1       5.275   4.574  16.938  0.00  0.00    +0.000 A 
ATOM     11  C   UNL     1       4.267   3.539  16.366  0.00  0.00    +0.000 C 
ATOM     12  C   UNL     1       3.375   3.531  17.506  0.00  0.00    +0.000 C 
ATOM     13  C   UNL     1       2.457   3.247  18.558  0.00  0.00    +0.000 A 
ATOM     14  C   UNL     1       1.378   2.389  18.482  0.00  0.00    +0.000 A 
ATOM     15  C   UNL     1       0.638   2.196  19.634  0.00  0.00    +0.000 A 
ATOM     16  C   UNL     1       1.033   2.828  20.820  0.00  0.00    +0.000 A 
ATOM     17  C   UNL     1       2.155   3.690  20.872  0.00  0.00    +0.000 A 
ATOM     18  C   UNL     1       2.877   3.978  19.707  0.00  0.00    +0.000 A 
ENDBRANCH   2   4
ENDBRANCH   1   2
BRANCH   1  19
ATOM     19  C   UNL     1       1.521   7.353  20.818  0.00  0.00    +0.000 C 
BRANCH  19  20
ATOM     20  C   UNL     1       1.363   8.882  20.765  0.00  0.00    +0.000 C 
BRANCH  20  21
ATOM     21  N   UNL     1       0.069   9.388  21.242  0.00  0.00    +0.000 NA
ATOM     22  H   UNL     1      -0.683   8.792  20.898  0.00  0.00    +0.000 HD
BRANCH  21  23
ATOM     23  C   UNL     1      -0.132  10.759  20.739  0.00  0.00    +0.000 C 
BRANCH  23  24
ATOM     24  C   UNL     1      -0.099  10.860  19.203  0.00  0.00    +0.000 C 
BRANCH  24  28
ATOM     25  C   UNL     1      -4.000  11.333  17.424  0.00  0.00    +0.000 A 
ATOM     26  C   UNL     1      -3.682  12.009  18.608  0.00  0.00    +0.000 A 
ATOM     27  C   UNL     1      -2.441  11.824  19.223  0.00  0.00    +0.000 A 
ATOM     28  C   UNL     1      -1.518  10.928  18.682  0.00  0.00    +0.000 A 
ATOM     29  C   UNL     1      -1.891  10.176  17.562  0.00  0.00    +0.000 A 
ATOM     30  C   UNL     1      -3.127  10.362  16.923  0.00  0.00    +0.000 A 
BRANCH  25  32
ATOM     31  C   UNL     1      -6.044  12.533  17.397  0.00  0.00    +0.000 C 
ATOM     32  O   UNL     1      -5.169  11.610  16.746  0.00  0.00    +0.000 OA
ENDBRANCH  25  32
BRANCH  30  33
ATOM     33  O   UNL     1      -3.255   9.552  15.828  0.00  0.00    +0.000 OA
ATOM     34  C   UNL     1      -2.889  10.042  14.550  0.00  0.00    +0.000 C 
ENDBRANCH  30  33
ENDBRANCH  24  28
ENDBRANCH  23  24
ENDBRANCH  21  23
ENDBRANCH  20  21
ENDBRANCH  19  20
ENDBRANCH   1  19
TORSDOF 10
ENDMDL
MODEL 9
REMARK VINA RESULT:      -7.4      1.568      2.369
REMARK  Name = 
REMARK  12 active torsions:
REMARK  status: ('A' for Active; 'I' for Inactive)
REMARK    1  A    between atoms: C_1  and  O_2
REMARK    2  A    between atoms: O_2  and  C_3
REMARK    3  A    between atoms: C_6  and  C_7
REMARK    4  A    between atoms: C_7  and  C_8
REMARK    5  A    between atoms: C_8  and  N_9
REMARK    6  A    between atoms: N_9  and  C_10
REMARK    7  A    between atoms: C_10  and  C_11
REMARK    8  A    between atoms: C_11  and  C_12
REMARK    9  A    between atoms: C_12  and  N_13
REMARK   10  A    between atoms: N_13  and  C_14
REMARK   11  A    between atoms: C_30  and  O_31
REMARK   12  A    between atoms: O_31  and  C_32
REMARK                            x       y       z     vdW  Elec       q    Type
REMARK                         _______ _______ _______ _____ _____    ______ ____
ROOT
ATOM      1  C   UNL     1       2.718   8.240  17.599  0.00  0.00    +0.000 C 
ENDROOT
BRANCH   1   2
ATOM      2  N   UNL     1       2.843   6.958  18.305  0.00  0.00    +0.000 NA
ATOM      3  H   UNL     1       3.212   7.114  19.238  0.00  0.00    +0.000 HD
BRANCH   2   4
ATOM      4  C   UNL     1       3.645   5.862  17.691  0.00  0.00    +0.000 C 
ATOM      5  C   UNL     1       2.855   4.398  18.220  0.00  0.00    +0.000 A 
ATOM      6  C   UNL     1       1.485   4.317  17.858  0.00  0.00    +0.000 A 
ATOM      7  C   UNL     1       0.667   3.227  18.238  0.00  0.00    +0.000 A 
ATOM      8  C   UNL     1       1.160   2.170  19.002  0.00  0.00    +0.000 A 
ATOM      9  C   UNL     1       2.480   2.184  19.396  0.00  0.00    +0.000 A 
ATOM     10  C   UNL     1       3.325   3.259  19.052  0.00  0.00    +0.000 A 
ATOM     11  C   UNL     1       4.744   3.074  19.658  0.00  0.00    +0.000 C 
ATOM     12  C   UNL     1       5.288   4.330  19.190  0.00  0.00    +0.000 C 
ATOM     13  C   UNL     1       6.071   5.420  18.711  0.00  0.00    +0.000 A 
ATOM     14  C   UNL     1       7.395   5.663  19.017  0.00  0.00    +0.000 A 
ATOM     15  C   UNL     1       8.002   6.741  18.400  0.00  0.00    +0.000 A 
ATOM     16  C   UNL     1       7.278   7.500  17.472  0.00  0.00    +0.000 A 
ATOM     17  C   UNL     1       5.926   7.217  17.164  0.00  0.00    +0.000 A 
ATOM     18  C   UNL     1       5.252   6.188  17.832  0.00  0.00    +0.000 A 
ENDBRANCH   2   4
ENDBRANCH   1   2
BRANCH   1  19
ATOM     19  C   UNL     1       1.426   8.948  18.042  0.00  0.00    +0.000 C 
BRANCH  19  20
ATOM     20  C   UNL     1       1.432   9.531  19.465  0.00  0.00    +0.000 C 
BRANCH  20  21
ATOM     21  N   UNL     1       0.347  10.478  19.751  0.00  0.00    +0.000 NA
ATOM     22  H   UNL     1       0.140  10.475  20.749  0.00  0.00    +0.000 HD
BRANCH  21  23
ATOM     23  C   UNL     1      -0.859  10.076  19.006  0.00  0.00    +0.000 C 
BRANCH  23  24
ATOM     24  C   UNL     1      -1.355  11.147  18.017  0.00  0.00    +0.000 C 
BRANCH  24  28
ATOM     25  C   UNL     1      -5.179  12.319  19.632  0.00  0.00    +0.000 A 
ATOM     26  C   UNL     1      -5.108  11.692  18.383  0.00  0.00    +0.000 A 
ATOM     27  C   UNL     1      -3.872  11.355  17.824  0.00  0.00    +0.000 A 
ATOM     28  C   UNL     1      -2.690  11.677  18.492  0.00  0.00    +0.000 A 
ATOM     29  C   UNL     1      -2.772  12.404  19.686  0.00  0.00    +0.000 A 
ATOM     30  C   UNL     1      -4.006  12.735  20.268  0.00  0.00    +0.000 A 
BRANCH  25  32
ATOM     31  C   UNL     1      -7.480  12.814  19.355  0.00  0.00    +0.000 C 
ATOM     32  O   UNL     1      -6.396  12.536  20.244  0.00  0.00    +0.000 OA
ENDBRANCH  25  32
BRANCH  30  33
ATOM     33  O   UNL     1      -3.841  13.404  21.451  0.00  0.00    +0.000 OA
ATOM     34  C   UNL     1      -3.747  12.671  22.660  0.00  0.00    +0.000 C 
ENDBRANCH  30  33
ENDBRANCH  24  28
ENDBRANCH  23  24
ENDBRANCH  21  23
ENDBRANCH  20  21
ENDBRANCH  19  20
ENDBRANCH   1  19
TORSDOF 10
ENDMDL
