MODEL 1
REMARK VINA RESULT:      -5.6      0.000      0.000
REMARK  Name = 
REMARK  5 active torsions:
REMARK  status: ('A' for Active; 'I' for Inactive)
REMARK    1  A    between atoms: C_1  and  C_2
REMARK    2  A    between atoms: N_4  and  C_5
REMARK    3  A    between atoms: C_5  and  C_6
REMARK    4  A    between atoms: C_10  and  C_11
REMARK    5  A    between atoms: C_12  and  N_13
REMARK                            x       y       z     vdW  Elec       q    Type
REMARK                         _______ _______ _______ _____ _____    ______ ____
ROOT
ATOM      1  C   UNL     1       4.814   6.520  16.727  0.00  0.00    +0.000 C 
ATOM      2  C   UNL     1       4.139   5.320  17.274  0.00  0.00    +0.000 A 
ATOM      3  N   UNL     1       2.988   5.432  17.948  0.00  0.00    +0.000 NA
ATOM      4  N   UNL     1       2.676   4.164  18.288  0.00  0.00    +0.000 N 
ATOM      5  C   UNL     1       3.584   3.236  17.834  0.00  0.00    +0.000 A 
ATOM      6  C   UNL     1       3.493   1.769  18.041  0.00  0.00    +0.000 C 
ATOM      7  C   UNL     1       4.541   3.971  17.176  0.00  0.00    +0.000 A 
ENDROOT
BRANCH   7   8
ATOM      8  N   UNL     1       5.621   3.471  16.562  0.00  0.00    +0.000 N 
ATOM      9  H   UNL     1       5.766   3.541  15.560  0.00  0.00    +0.000 HD
ATOM     10  H   UNL     1       6.327   2.925  17.049  0.00  0.00    +0.000 HD
ENDBRANCH   7   8
BRANCH   4  11
ATOM     11  C   UNL     1       1.412   3.941  18.951  0.00  0.00    +0.000 C 
BRANCH  11  12
ATOM     12  C   UNL     1       1.488   4.115  20.447  0.00  0.00    +0.000 C 
ATOM     13  F   UNL     1       0.832   3.177  21.159  0.00  0.00    +0.000 F 
ATOM     14  F   UNL     1       2.774   4.130  20.874  0.00  0.00    +0.000 F 
ATOM     15  F   UNL     1       0.954   5.315  20.797  0.00  0.00    +0.000 F 
ENDBRANCH  11  12
ENDBRANCH   4  11
TORSDOF 3
ENDMDL
MODEL 2
REMARK VINA RESULT:      -5.6      2.051      2.896
REMARK  Name = 
REMARK  5 active torsions:
REMARK  status: ('A' for Active; 'I' for Inactive)
REMARK    1  A    between atoms: C_1  and  C_2
REMARK    2  A    between atoms: N_4  and  C_5
REMARK    3  A    between atoms: C_5  and  C_6
REMARK    4  A    between atoms: C_10  and  C_11
REMARK    5  A    between atoms: C_12  and  N_13
REMARK                            x       y       z     vdW  Elec       q    Type
REMARK                         _______ _______ _______ _____ _____    ______ ____
ROOT
ATOM      1  C   UNL     1       6.128   3.774  15.314  0.00  0.00    +0.000 C 
ATOM      2  C   UNL     1       5.175   4.380  16.272  0.00  0.00    +0.000 A 
ATOM      3  N   UNL     1       4.481   3.612  17.122  0.00  0.00    +0.000 NA
ATOM      4  N   UNL     1       3.731   4.488  17.823  0.00  0.00    +0.000 N 
ATOM      5  C   UNL     1       3.937   5.799  17.463  0.00  0.00    +0.000 A 
ATOM      6  C   UNL     1       3.266   6.975  18.071  0.00  0.00    +0.000 C 
ATOM      7  C   UNL     1       4.870   5.745  16.455  0.00  0.00    +0.000 A 
ENDROOT
BRANCH   7   8
ATOM      8  N   UNL     1       5.377   6.801  15.807  0.00  0.00    +0.000 N 
ATOM      9  H   UNL     1       5.181   6.993  14.830  0.00  0.00    +0.000 HD
ATOM     10  H   UNL     1       6.048   7.436  16.231  0.00  0.00    +0.000 HD
ENDBRANCH   7   8
BRANCH   4  11
ATOM     11  C   UNL     1       2.931   3.964  18.907  0.00  0.00    +0.000 C 
BRANCH  11  12
ATOM     12  C   UNL     1       1.515   3.645  18.500  0.00  0.00    +0.000 C 
ATOM     13  F   UNL     1       1.036   4.393  17.486  0.00  0.00    +0.000 F 
ATOM     14  F   UNL     1       1.390   2.343  18.145  0.00  0.00    +0.000 F 
ATOM     15  F   UNL     1       0.679   3.837  19.555  0.00  0.00    +0.000 F 
ENDBRANCH  11  12
ENDBRANCH   4  11
TORSDOF 3
ENDMDL
MODEL 3
REMARK VINA RESULT:      -5.5      1.124      1.560
REMARK  Name = 
REMARK  5 active torsions:
REMARK  status: ('A' for Active; 'I' for Inactive)
REMARK    1  A    between atoms: C_1  and  C_2
REMARK    2  A    between atoms: N_4  and  C_5
REMARK    3  A    between atoms: C_5  and  C_6
REMARK    4  A    between atoms: C_10  and  C_11
REMARK    5  A    between atoms: C_12  and  N_13
REMARK                            x       y       z     vdW  Elec       q    Type
REMARK                         _______ _______ _______ _____ _____    ______ ____
ROOT
ATOM      1  C   UNL     1       5.199   6.683  17.187  0.00  0.00    +0.000 C 
ATOM      2  C   UNL     1       4.623   5.542  17.935  0.00  0.00    +0.000 A 
ATOM      3  N   UNL     1       3.309   5.483  18.183  0.00  0.00    +0.000 NA
ATOM      4  N   UNL     1       3.151   4.331  18.869  0.00  0.00    +0.000 N 
ATOM      5  C   UNL     1       4.325   3.638  19.053  0.00  0.00    +0.000 A 
ATOM      6  C   UNL     1       4.455   2.336  19.755  0.00  0.00    +0.000 C 
ATOM      7  C   UNL     1       5.290   4.412  18.454  0.00  0.00    +0.000 A 
ENDROOT
BRANCH   7   8
ATOM      8  N   UNL     1       6.593   4.115  18.384  0.00  0.00    +0.000 N 
ATOM      9  H   UNL     1       7.135   4.215  17.533  0.00  0.00    +0.000 HD
ATOM     10  H   UNL     1       7.105   3.700  19.159  0.00  0.00    +0.000 HD
ENDBRANCH   7   8
BRANCH   4  11
ATOM     11  C   UNL     1       1.804   3.930  19.201  0.00  0.00    +0.000 C 
BRANCH  11  12
ATOM     12  C   UNL     1       1.430   4.228  20.630  0.00  0.00    +0.000 C 
ATOM     13  F   UNL     1       2.460   4.588  21.420  0.00  0.00    +0.000 F 
ATOM     14  F   UNL     1       0.498   5.210  20.698  0.00  0.00    +0.000 F 
ATOM     15  F   UNL     1       0.869   3.128  21.198  0.00  0.00    +0.000 F 
ENDBRANCH  11  12
ENDBRANCH   4  11
TORSDOF 3
ENDMDL
MODEL 4
REMARK VINA RESULT:      -5.5      2.058      2.865
REMARK  Name = 
REMARK  5 active torsions:
REMARK  status: ('A' for Active; 'I' for Inactive)
REMARK    1  A    between atoms: C_1  and  C_2
REMARK    2  A    between atoms: N_4  and  C_5
REMARK    3  A    between atoms: C_5  and  C_6
REMARK    4  A    between atoms: C_10  and  C_11
REMARK    5  A    between atoms: C_12  and  N_13
REMARK                            x       y       z     vdW  Elec       q    Type
REMARK                         _______ _______ _______ _____ _____    ______ ____
ROOT
ATOM      1  C   UNL     1       6.099   3.752  15.364  0.00  0.00    +0.000 C 
ATOM      2  C   UNL     1       5.145   4.385  16.304  0.00  0.00    +0.000 A 
ATOM      3  N   UNL     1       4.455   3.642  17.179  0.00  0.00    +0.000 NA
ATOM      4  N   UNL     1       3.703   4.537  17.854  0.00  0.00    +0.000 N 
ATOM      5  C   UNL     1       3.903   5.837  17.452  0.00  0.00    +0.000 A 
ATOM      6  C   UNL     1       3.229   7.029  18.023  0.00  0.00    +0.000 C 
ATOM      7  C   UNL     1       4.835   5.754  16.444  0.00  0.00    +0.000 A 
ENDROOT
BRANCH   7   8
ATOM      8  N   UNL     1       5.337   6.791  15.761  0.00  0.00    +0.000 N 
ATOM      9  H   UNL     1       4.769   7.574  15.455  0.00  0.00    +0.000 HD
ATOM     10  H   UNL     1       6.302   6.825  15.444  0.00  0.00    +0.000 HD
ENDBRANCH   7   8
BRANCH   4  11
ATOM     11  C   UNL     1       2.908   4.045  18.956  0.00  0.00    +0.000 C 
BRANCH  11  12
ATOM     12  C   UNL     1       1.543   3.563  18.534  0.00  0.00    +0.000 C 
ATOM     13  F   UNL     1       1.503   2.286  18.104  0.00  0.00    +0.000 F 
ATOM     14  F   UNL     1       0.647   3.685  19.543  0.00  0.00    +0.000 F 
ATOM     15  F   UNL     1       1.079   4.332  17.513  0.00  0.00    +0.000 F 
ENDBRANCH  11  12
ENDBRANCH   4  11
TORSDOF 3
ENDMDL
MODEL 5
REMARK VINA RESULT:      -5.5      2.583      3.334
REMARK  Name = 
REMARK  5 active torsions:
REMARK  status: ('A' for Active; 'I' for Inactive)
REMARK    1  A    between atoms: C_1  and  C_2
REMARK    2  A    between atoms: N_4  and  C_5
REMARK    3  A    between atoms: C_5  and  C_6
REMARK    4  A    between atoms: C_10  and  C_11
REMARK    5  A    between atoms: C_12  and  N_13
REMARK                            x       y       z     vdW  Elec       q    Type
REMARK                         _______ _______ _______ _____ _____    ______ ____
ROOT
ATOM      1  C   UNL     1       7.900   5.862  19.307  0.00  0.00    +0.000 C 
ATOM      2  C   UNL     1       6.914   5.243  18.391  0.00  0.00    +0.000 A 
ATOM      3  N   UNL     1       5.957   4.435  18.863  0.00  0.00    +0.000 NA
ATOM      4  N   UNL     1       5.262   4.067  17.767  0.00  0.00    +0.000 N 
ATOM      5  C   UNL     1       5.733   4.630  16.604  0.00  0.00    +0.000 A 
ATOM      6  C   UNL     1       5.159   4.420  15.252  0.00  0.00    +0.000 C 
ATOM      7  C   UNL     1       6.807   5.395  16.993  0.00  0.00    +0.000 A 
ENDROOT
BRANCH   7   8
ATOM      8  N   UNL     1       7.570   6.135  16.179  0.00  0.00    +0.000 N 
ATOM      9  H   UNL     1       7.201   6.613  15.363  0.00  0.00    +0.000 HD
ATOM     10  H   UNL     1       8.578   6.206  16.283  0.00  0.00    +0.000 HD
ENDBRANCH   7   8
BRANCH   4  11
ATOM     11  C   UNL     1       4.081   3.257  17.965  0.00  0.00    +0.000 C 
BRANCH  11  12
ATOM     12  C   UNL     1       2.812   4.067  18.044  0.00  0.00    +0.000 C 
ATOM     13  F   UNL     1       2.995   5.402  18.071  0.00  0.00    +0.000 F 
ATOM     14  F   UNL     1       1.987   3.787  17.006  0.00  0.00    +0.000 F 
ATOM     15  F   UNL     1       2.130   3.744  19.174  0.00  0.00    +0.000 F 
ENDBRANCH  11  12
ENDBRANCH   4  11
TORSDOF 3
ENDMDL
MODEL 6
REMARK VINA RESULT:      -5.5      3.925      5.334
REMARK  Name = 
REMARK  5 active torsions:
REMARK  status: ('A' for Active; 'I' for Inactive)
REMARK    1  A    between atoms: C_1  and  C_2
REMARK    2  A    between atoms: N_4  and  C_5
REMARK    3  A    between atoms: C_5  and  C_6
REMARK    4  A    between atoms: C_10  and  C_11
REMARK    5  A    between atoms: C_12  and  N_13
REMARK                            x       y       z     vdW  Elec       q    Type
REMARK                         _______ _______ _______ _____ _____    ______ ____
ROOT
ATOM      1  C   UNL     1       1.756   4.017  17.932  0.00  0.00    +0.000 C 
ATOM      2  C   UNL     1       3.209   4.283  17.829  0.00  0.00    +0.000 A 
ATOM      3  N   UNL     1       3.911   3.839  16.779  0.00  0.00    +0.000 NA
ATOM      4  N   UNL     1       5.171   4.258  17.020  0.00  0.00    +0.000 N 
ATOM      5  C   UNL     1       5.297   4.977  18.186  0.00  0.00    +0.000 A 
ATOM      6  C   UNL     1       6.555   5.574  18.697  0.00  0.00    +0.000 C 
ATOM      7  C   UNL     1       4.032   5.000  18.724  0.00  0.00    +0.000 A 
ENDROOT
BRANCH   7   8
ATOM      8  N   UNL     1       3.683   5.604  19.866  0.00  0.00    +0.000 N 
ATOM      9  H   UNL     1       4.355   5.848  20.587  0.00  0.00    +0.000 HD
ATOM     10  H   UNL     1       2.716   5.791  20.117  0.00  0.00    +0.000 HD
ENDBRANCH   7   8
BRANCH   4  11
ATOM     11  C   UNL     1       6.163   4.014  15.998  0.00  0.00    +0.000 C 
BRANCH  11  12
ATOM     12  C   UNL     1       5.931   4.813  14.741  0.00  0.00    +0.000 C 
ATOM     13  F   UNL     1       5.150   4.207  13.824  0.00  0.00    +0.000 F 
ATOM     14  F   UNL     1       5.377   6.017  15.021  0.00  0.00    +0.000 F 
ATOM     15  F   UNL     1       7.119   5.069  14.133  0.00  0.00    +0.000 F 
ENDBRANCH  11  12
ENDBRANCH   4  11
TORSDOF 3
ENDMDL
MODEL 7
REMARK VINA RESULT:      -5.4      2.554      3.203
REMARK  Name = 
REMARK  5 active torsions:
REMARK  status: ('A' for Active; 'I' for Inactive)
REMARK    1  A    between atoms: C_1  and  C_2
REMARK    2  A    between atoms: N_4  and  C_5
REMARK    3  A    between atoms: C_5  and  C_6
REMARK    4  A    between atoms: C_10  and  C_11
REMARK    5  A    between atoms: C_12  and  N_13
REMARK                            x       y       z     vdW  Elec       q    Type
REMARK                         _______ _______ _______ _____ _____    ______ ____
ROOT
ATOM      1  C   UNL     1       7.875   5.830  19.286  0.00  0.00    +0.000 C 
ATOM      2  C   UNL     1       6.884   5.227  18.365  0.00  0.00    +0.000 A 
ATOM      3  N   UNL     1       5.920   4.424  18.831  0.00  0.00    +0.000 NA
ATOM      4  N   UNL     1       5.222   4.070  17.731  0.00  0.00    +0.000 N 
ATOM      5  C   UNL     1       5.698   4.638  16.572  0.00  0.00    +0.000 A 
ATOM      6  C   UNL     1       5.124   4.443  15.218  0.00  0.00    +0.000 C 
ATOM      7  C   UNL     1       6.779   5.391  16.968  0.00  0.00    +0.000 A 
ENDROOT
BRANCH   7   8
ATOM      8  N   UNL     1       7.549   6.131  16.160  0.00  0.00    +0.000 N 
ATOM      9  H   UNL     1       8.411   5.785  15.753  0.00  0.00    +0.000 HD
ATOM     10  H   UNL     1       7.357   7.109  15.962  0.00  0.00    +0.000 HD
ENDBRANCH   7   8
BRANCH   4  11
ATOM     11  C   UNL     1       4.034   3.270  17.922  0.00  0.00    +0.000 C 
BRANCH  11  12
ATOM     12  C   UNL     1       2.788   4.095  18.124  0.00  0.00    +0.000 C 
ATOM     13  F   UNL     1       2.121   3.839  19.267  0.00  0.00    +0.000 F 
ATOM     14  F   UNL     1       3.069   5.420  18.099  0.00  0.00    +0.000 F 
ATOM     15  F   UNL     1       1.918   3.868  17.105  0.00  0.00    +0.000 F 
ENDBRANCH  11  12
ENDBRANCH   4  11
TORSDOF 3
ENDMDL
MODEL 8
REMARK VINA RESULT:      -5.4      3.644      4.746
REMARK  Name = 
REMARK  5 active torsions:
REMARK  status: ('A' for Active; 'I' for Inactive)
REMARK    1  A    between atoms: C_1  and  C_2
REMARK    2  A    between atoms: N_4  and  C_5
REMARK    3  A    between atoms: C_5  and  C_6
REMARK    4  A    between atoms: C_10  and  C_11
REMARK    5  A    between atoms: C_12  and  N_13
REMARK                            x       y       z     vdW  Elec       q    Type
REMARK                         _______ _______ _______ _____ _____    ______ ____
ROOT
ATOM      1  C   UNL     1       2.323   2.033  18.284  0.00  0.00    +0.000 C 
ATOM      2  C   UNL     1       3.299   3.146  18.309  0.00  0.00    +0.000 A 
ATOM      3  N   UNL     1       3.118   4.229  17.542  0.00  0.00    +0.000 NA
ATOM      4  N   UNL     1       4.180   5.014  17.819  0.00  0.00    +0.000 N 
ATOM      5  C   UNL     1       5.030   4.476  18.758  0.00  0.00    +0.000 A 
ATOM      6  C   UNL     1       6.266   5.119  19.269  0.00  0.00    +0.000 C 
ATOM      7  C   UNL     1       4.472   3.262  19.084  0.00  0.00    +0.000 A 
ENDROOT
BRANCH   7   8
ATOM      8  N   UNL     1       4.966   2.394  19.975  0.00  0.00    +0.000 N 
ATOM      9  H   UNL     1       4.850   2.509  20.976  0.00  0.00    +0.000 HD
ATOM     10  H   UNL     1       5.550   1.606  19.710  0.00  0.00    +0.000 HD
ENDBRANCH   7   8
BRANCH   4  11
ATOM     11  C   UNL     1       4.220   6.324  17.210  0.00  0.00    +0.000 C 
BRANCH  11  12
ATOM     12  C   UNL     1       5.164   6.405  16.038  0.00  0.00    +0.000 C 
ATOM     13  F   UNL     1       5.431   5.224  15.445  0.00  0.00    +0.000 F 
ATOM     14  F   UNL     1       4.692   7.245  15.086  0.00  0.00    +0.000 F 
ATOM     15  F   UNL     1       6.357   6.916  16.443  0.00  0.00    +0.000 F 
ENDBRANCH  11  12
ENDBRANCH   4  11
TORSDOF 3
ENDMDL
MODEL 9
REMARK VINA RESULT:      -5.4      3.513      5.107
REMARK  Name = 
REMARK  5 active torsions:
REMARK  status: ('A' for Active; 'I' for Inactive)
REMARK    1  A    between atoms: C_1  and  C_2
REMARK    2  A    between atoms: N_4  and  C_5
REMARK    3  A    between atoms: C_5  and  C_6
REMARK    4  A    between atoms: C_10  and  C_11
REMARK    5  A    between atoms: C_12  and  N_13
REMARK                            x       y       z     vdW  Elec       q    Type
REMARK                         _______ _______ _______ _____ _____    ______ ____
ROOT
ATOM      1  C   UNL     1       3.764   2.767  20.190  0.00  0.00    +0.000 C 
ATOM      2  C   UNL     1       4.485   3.383  19.053  0.00  0.00    +0.000 A 
ATOM      3  N   UNL     1       5.709   3.900  19.220  0.00  0.00    +0.000 NA
ATOM      4  N   UNL     1       6.044   4.362  17.998  0.00  0.00    +0.000 N 
ATOM      5  C   UNL     1       5.079   4.141  17.043  0.00  0.00    +0.000 A 
ATOM      6  C   UNL     1       5.178   4.525  15.613  0.00  0.00    +0.000 C 
ATOM      7  C   UNL     1       4.059   3.508  17.713  0.00  0.00    +0.000 A 
ENDROOT
BRANCH   7   8
ATOM      8  N   UNL     1       2.909   3.093  17.167  0.00  0.00    +0.000 N 
ATOM      9  H   UNL     1       2.548   2.154  17.293  0.00  0.00    +0.000 HD
ATOM     10  H   UNL     1       2.363   3.669  16.533  0.00  0.00    +0.000 HD
ENDBRANCH   7   8
BRANCH   4  11
ATOM     11  C   UNL     1       7.375   4.899  17.828  0.00  0.00    +0.000 C 
BRANCH  11  12
ATOM     12  C   UNL     1       7.425   6.403  17.916  0.00  0.00    +0.000 C 
ATOM     13  F   UNL     1       7.906   7.017  16.817  0.00  0.00    +0.000 F 
ATOM     14  F   UNL     1       6.199   6.919  18.172  0.00  0.00    +0.000 F 
ATOM     15  F   UNL     1       8.223   6.776  18.952  0.00  0.00    +0.000 F 
ENDBRANCH  11  12
ENDBRANCH   4  11
TORSDOF 3
ENDMDL
