MODEL 1
REMARK VINA RESULT:      -7.4      0.000      0.000
REMARK  Name = 
REMARK  8 active torsions:
REMARK  status: ('A' for Active; 'I' for Inactive)
REMARK    1  A    between atoms: C_1  and  O_2
REMARK    2  A    between atoms: O_2  and  C_3
REMARK    3  A    between atoms: C_3  and  C_5
REMARK    4  A    between atoms: C_14  and  N_15
REMARK    5  A    between atoms: C_16  and  C_18
REMARK    6  A    between atoms: C_18  and  C_19
REMARK    7  A    between atoms: C_18  and  N_20
REMARK    8  A    between atoms: N_23  and  C_24
REMARK                            x       y       z     vdW  Elec       q    Type
REMARK                         _______ _______ _______ _____ _____    ______ ____
ROOT
ATOM      1  N   UNL     1       4.394   5.602  16.659  0.00  0.00    +0.000 N 
ATOM      2  C   UNL     1       4.092   4.923  17.822  0.00  0.00    +0.000 C 
ATOM      3  O   UNL     1       4.814   4.112  18.384  0.00  0.00    +0.000 OA
ATOM      4  H   UNL     1       3.625   6.113  16.217  0.00  0.00    +0.000 HD
ENDROOT
BRANCH   1  14
ATOM      5  C   UNL     1       6.761   5.973  16.323  0.00  0.00    +0.000 A 
ATOM      6  N   UNL     1       7.654   5.744  15.301  0.00  0.00    +0.000 N 
ATOM      7  C   UNL     1       7.081   5.011  14.283  0.00  0.00    +0.000 A 
ATOM      8  C   UNL     1       7.626   4.544  13.098  0.00  0.00    +0.000 A 
ATOM      9  C   UNL     1       6.809   3.832  12.217  0.00  0.00    +0.000 A 
ATOM     10  C   UNL     1       5.483   3.575  12.550  0.00  0.00    +0.000 A 
ATOM     11 CL   UNL     1       4.476   2.715  11.453  0.00  0.00    +0.000 Cl
ATOM     12  C   UNL     1       4.962   4.017  13.761  0.00  0.00    +0.000 A 
ATOM     13  C   UNL     1       5.738   4.784  14.649  0.00  0.00    +0.000 A 
ATOM     14  C   UNL     1       5.547   5.445  15.918  0.00  0.00    +0.000 A 
ATOM     15  H   UNL     1       8.606   6.067  15.308  0.00  0.00    +0.000 HD
BRANCH   5  16
ATOM     16  C   UNL     1       7.176   6.685  17.502  0.00  0.00    +0.000 C 
ATOM     17  O   UNL     1       7.406   6.142  18.577  0.00  0.00    +0.000 OA
BRANCH  16  19
ATOM     18  C   UNL     1       8.223   8.692  18.103  0.00  0.00    +0.000 C 
ATOM     19  O   UNL     1       7.270   8.022  17.269  0.00  0.00    +0.000 OA
ENDBRANCH  16  19
ENDBRANCH   5  16
ENDBRANCH   1  14
BRANCH   2  20
ATOM     20  C   UNL     1       2.722   5.282  18.415  0.00  0.00    +0.000 C 
ATOM     21  C   UNL     1       2.183   4.024  19.091  0.00  0.00    +0.000 C 
BRANCH  20  22
ATOM     22  N   UNL     1       2.845   6.473  19.276  0.00  0.00    +0.000 NA
ATOM     23  C   UNL     1       2.715   7.752  18.548  0.00  0.00    +0.000 C 
ATOM     24  C   UNL     1       1.335   8.475  18.653  0.00  0.00    +0.000 C 
ATOM     25  N   UNL     1       0.667   8.493  19.994  0.00  0.00    +0.000 NA
ATOM     26  C   UNL     1       0.628   7.070  20.397  0.00  0.00    +0.000 C 
ATOM     27  C   UNL     1       2.019   6.418  20.506  0.00  0.00    +0.000 C 
BRANCH  25  28
ATOM     28  C   UNL     1       1.356   9.427  20.948  0.00  0.00    +0.000 C 
ATOM     29  C   UNL     1       0.858  10.880  20.785  0.00  0.00    +0.000 C 
ATOM     30  C   UNL     1      -0.482  11.197  21.443  0.00  0.00    +0.000 C 
ATOM     31  C   UNL     1      -0.642  10.707  22.883  0.00  0.00    +0.000 C 
ATOM     32  C   UNL     1       0.152   9.465  23.302  0.00  0.00    +0.000 C 
ATOM     33  C   UNL     1       1.404   9.185  22.487  0.00  0.00    +0.000 C 
ENDBRANCH  25  28
ENDBRANCH  20  22
ENDBRANCH   2  20
TORSDOF 6
ENDMDL
MODEL 2
REMARK VINA RESULT:      -7.3      1.153      1.500
REMARK  Name = 
REMARK  8 active torsions:
REMARK  status: ('A' for Active; 'I' for Inactive)
REMARK    1  A    between atoms: C_1  and  O_2
REMARK    2  A    between atoms: O_2  and  C_3
REMARK    3  A    between atoms: C_3  and  C_5
REMARK    4  A    between atoms: C_14  and  N_15
REMARK    5  A    between atoms: C_16  and  C_18
REMARK    6  A    between atoms: C_18  and  C_19
REMARK    7  A    between atoms: C_18  and  N_20
REMARK    8  A    between atoms: N_23  and  C_24
REMARK                            x       y       z     vdW  Elec       q    Type
REMARK                         _______ _______ _______ _____ _____    ______ ____
ROOT
ATOM      1  N   UNL     1       4.347   6.119  16.649  0.00  0.00    +0.000 N 
ATOM      2  C   UNL     1       3.875   5.514  17.796  0.00  0.00    +0.000 C 
ATOM      3  O   UNL     1       4.429   4.612  18.408  0.00  0.00    +0.000 OA
ATOM      4  H   UNL     1       3.694   6.734  16.156  0.00  0.00    +0.000 HD
ENDROOT
BRANCH   1  14
ATOM      5  C   UNL     1       6.756   6.164  16.430  0.00  0.00    +0.000 A 
ATOM      6  N   UNL     1       7.661   5.767  15.473  0.00  0.00    +0.000 N 
ATOM      7  C   UNL     1       7.049   5.061  14.459  0.00  0.00    +0.000 A 
ATOM      8  C   UNL     1       7.586   4.464  13.330  0.00  0.00    +0.000 A 
ATOM      9  C   UNL     1       6.728   3.817  12.439  0.00  0.00    +0.000 A 
ATOM     10  C   UNL     1       5.364   3.751  12.707  0.00  0.00    +0.000 A 
ATOM     11 CL   UNL     1       4.309   2.970  11.597  0.00  0.00    +0.000 Cl
ATOM     12  C   UNL     1       4.847   4.321  13.865  0.00  0.00    +0.000 A 
ATOM     13  C   UNL     1       5.671   5.029  14.759  0.00  0.00    +0.000 A 
ATOM     14  C   UNL     1       5.505   5.776  15.982  0.00  0.00    +0.000 A 
ATOM     15  H   UNL     1       8.646   5.965  15.518  0.00  0.00    +0.000 HD
BRANCH   5  16
ATOM     16  C   UNL     1       7.201   6.880  17.597  0.00  0.00    +0.000 C 
ATOM     17  O   UNL     1       7.478   6.337  18.661  0.00  0.00    +0.000 OA
BRANCH  16  19
ATOM     18  C   UNL     1       8.314   8.882  18.082  0.00  0.00    +0.000 C 
ATOM     19  O   UNL     1       7.267   8.218  17.364  0.00  0.00    +0.000 OA
ENDBRANCH  16  19
ENDBRANCH   5  16
ENDBRANCH   1  14
BRANCH   2  20
ATOM     20  C   UNL     1       2.542   6.089  18.300  0.00  0.00    +0.000 C 
ATOM     21  C   UNL     1       1.996   5.108  19.335  0.00  0.00    +0.000 C 
BRANCH  20  22
ATOM     22  N   UNL     1       2.738   7.474  18.765  0.00  0.00    +0.000 NA
ATOM     23  C   UNL     1       2.465   8.494  17.732  0.00  0.00    +0.000 C 
ATOM     24  C   UNL     1       1.087   9.223  17.821  0.00  0.00    +0.000 C 
ATOM     25  N   UNL     1       0.606   9.623  19.183  0.00  0.00    +0.000 NA
ATOM     26  C   UNL     1       0.673   8.372  19.971  0.00  0.00    +0.000 C 
ATOM     27  C   UNL     1       2.088   7.773  20.064  0.00  0.00    +0.000 C 
BRANCH  25  28
ATOM     28  C   UNL     1       1.384  10.786  19.730  0.00  0.00    +0.000 C 
ATOM     29  C   UNL     1       1.466  11.947  18.714  0.00  0.00    +0.000 C 
ATOM     30  C   UNL     1       0.222  12.826  18.613  0.00  0.00    +0.000 C 
ATOM     31  C   UNL     1      -0.370  13.288  19.946  0.00  0.00    +0.000 C 
ATOM     32  C   UNL     1      -0.155  12.387  21.167  0.00  0.00    +0.000 C 
ATOM     33  C   UNL     1       1.051  11.463  21.094  0.00  0.00    +0.000 C 
ENDBRANCH  25  28
ENDBRANCH  20  22
ENDBRANCH   2  20
TORSDOF 6
ENDMDL
MODEL 3
REMARK VINA RESULT:      -7.3      3.154      5.108
REMARK  Name = 
REMARK  8 active torsions:
REMARK  status: ('A' for Active; 'I' for Inactive)
REMARK    1  A    between atoms: C_1  and  O_2
REMARK    2  A    between atoms: O_2  and  C_3
REMARK    3  A    between atoms: C_3  and  C_5
REMARK    4  A    between atoms: C_14  and  N_15
REMARK    5  A    between atoms: C_16  and  C_18
REMARK    6  A    between atoms: C_18  and  C_19
REMARK    7  A    between atoms: C_18  and  N_20
REMARK    8  A    between atoms: N_23  and  C_24
REMARK                            x       y       z     vdW  Elec       q    Type
REMARK                         _______ _______ _______ _____ _____    ______ ____
ROOT
ATOM      1  N   UNL     1       2.813   7.361  18.196  0.00  0.00    +0.000 N 
ATOM      2  C   UNL     1       2.170   7.960  19.260  0.00  0.00    +0.000 C 
ATOM      3  O   UNL     1       2.140   7.538  20.407  0.00  0.00    +0.000 OA
ATOM      4  H   UNL     1       2.605   7.736  17.267  0.00  0.00    +0.000 HD
ENDROOT
BRANCH   1  14
ATOM      5  C   UNL     1       4.623   5.924  17.479  0.00  0.00    +0.000 A 
ATOM      6  N   UNL     1       4.965   4.606  17.677  0.00  0.00    +0.000 N 
ATOM      7  C   UNL     1       4.148   4.005  18.609  0.00  0.00    +0.000 A 
ATOM      8  C   UNL     1       4.162   2.715  19.117  0.00  0.00    +0.000 A 
ATOM      9  C   UNL     1       3.193   2.351  20.054  0.00  0.00    +0.000 A 
ATOM     10  C   UNL     1       2.255   3.283  20.486  0.00  0.00    +0.000 A 
ATOM     11 CL   UNL     1       1.052   2.824  21.625  0.00  0.00    +0.000 Cl
ATOM     12  C   UNL     1       2.279   4.585  19.996  0.00  0.00    +0.000 A 
ATOM     13  C   UNL     1       3.205   4.974  19.011  0.00  0.00    +0.000 A 
ATOM     14  C   UNL     1       3.495   6.162  18.246  0.00  0.00    +0.000 A 
ATOM     15  H   UNL     1       5.724   4.148  17.202  0.00  0.00    +0.000 HD
BRANCH   5  16
ATOM     16  C   UNL     1       5.384   6.744  16.574  0.00  0.00    +0.000 C 
ATOM     17  O   UNL     1       5.341   6.628  15.354  0.00  0.00    +0.000 OA
BRANCH  16  19
ATOM     18  C   UNL     1       7.479   7.188  17.522  0.00  0.00    +0.000 C 
ATOM     19  O   UNL     1       6.150   7.646  17.244  0.00  0.00    +0.000 OA
ENDBRANCH  16  19
ENDBRANCH   5  16
ENDBRANCH   1  14
BRANCH   2  20
ATOM     20  C   UNL     1       1.469   9.279  18.901  0.00  0.00    +0.000 C 
ATOM     21  C   UNL     1       0.937   9.129  17.478  0.00  0.00    +0.000 C 
BRANCH  20  22
ATOM     22  N   UNL     1       0.466   9.610  19.931  0.00  0.00    +0.000 NA
ATOM     23  C   UNL     1       0.996  10.439  21.033  0.00  0.00    +0.000 C 
ATOM     24  C   UNL     1       0.663  11.963  20.978  0.00  0.00    +0.000 C 
ATOM     25  N   UNL     1      -0.725  12.351  20.566  0.00  0.00    +0.000 NA
ATOM     26  C   UNL     1      -0.928  11.648  19.280  0.00  0.00    +0.000 C 
ATOM     27  C   UNL     1      -0.816  10.116  19.386  0.00  0.00    +0.000 C 
BRANCH  25  28
ATOM     28  C   UNL     1      -1.730  12.055  21.643  0.00  0.00    +0.000 C 
ATOM     29  C   UNL     1      -1.203  12.451  23.041  0.00  0.00    +0.000 C 
ATOM     30  C   UNL     1      -1.279  13.938  23.378  0.00  0.00    +0.000 C 
ATOM     31  C   UNL     1      -2.614  14.618  23.068  0.00  0.00    +0.000 C 
ATOM     32  C   UNL     1      -3.455  14.039  21.925  0.00  0.00    +0.000 C 
ATOM     33  C   UNL     1      -3.198  12.576  21.600  0.00  0.00    +0.000 C 
ENDBRANCH  25  28
ENDBRANCH  20  22
ENDBRANCH   2  20
TORSDOF 6
ENDMDL
MODEL 4
REMARK VINA RESULT:      -7.2      2.952      4.922
REMARK  Name = 
REMARK  8 active torsions:
REMARK  status: ('A' for Active; 'I' for Inactive)
REMARK    1  A    between atoms: C_1  and  O_2
REMARK    2  A    between atoms: O_2  and  C_3
REMARK    3  A    between atoms: C_3  and  C_5
REMARK    4  A    between atoms: C_14  and  N_15
REMARK    5  A    between atoms: C_16  and  C_18
REMARK    6  A    between atoms: C_18  and  C_19
REMARK    7  A    between atoms: C_18  and  N_20
REMARK    8  A    between atoms: N_23  and  C_24
REMARK                            x       y       z     vdW  Elec       q    Type
REMARK                         _______ _______ _______ _____ _____    ______ ____
ROOT
ATOM      1  N   UNL     1       2.608   6.464  18.825  0.00  0.00    +0.000 N 
ATOM      2  C   UNL     1       2.183   7.754  18.581  0.00  0.00    +0.000 C 
ATOM      3  O   UNL     1       2.525   8.453  17.638  0.00  0.00    +0.000 OA
ATOM      4  H   UNL     1       2.374   6.072  19.741  0.00  0.00    +0.000 HD
ENDROOT
BRANCH   1  14
ATOM      5  C   UNL     1       3.235   4.523  17.523  0.00  0.00    +0.000 A 
ATOM      6  N   UNL     1       4.394   4.066  16.941  0.00  0.00    +0.000 N 
ATOM      7  C   UNL     1       5.401   5.004  17.013  0.00  0.00    +0.000 A 
ATOM      8  C   UNL     1       6.702   4.964  16.535  0.00  0.00    +0.000 A 
ATOM      9  C   UNL     1       7.536   6.060  16.763  0.00  0.00    +0.000 A 
ATOM     10  C   UNL     1       7.050   7.179  17.432  0.00  0.00    +0.000 A 
ATOM     11 CL   UNL     1       8.087   8.518  17.728  0.00  0.00    +0.000 Cl
ATOM     12  C   UNL     1       5.731   7.219  17.871  0.00  0.00    +0.000 A 
ATOM     13  C   UNL     1       4.876   6.114  17.708  0.00  0.00    +0.000 A 
ATOM     14  C   UNL     1       3.522   5.765  18.063  0.00  0.00    +0.000 A 
ATOM     15  H   UNL     1       4.486   3.161  16.512  0.00  0.00    +0.000 HD
BRANCH   5  16
ATOM     16  C   UNL     1       2.048   3.709  17.514  0.00  0.00    +0.000 C 
ATOM     17  O   UNL     1       0.919   4.156  17.346  0.00  0.00    +0.000 OA
BRANCH  16  19
ATOM     18  C   UNL     1       2.282   1.996  19.093  0.00  0.00    +0.000 C 
ATOM     19  O   UNL     1       2.345   2.397  17.719  0.00  0.00    +0.000 OA
ENDBRANCH  16  19
ENDBRANCH   5  16
ENDBRANCH   1  14
BRANCH   2  20
ATOM     20  C   UNL     1       1.180   8.285  19.616  0.00  0.00    +0.000 C 
ATOM     21  C   UNL     1       1.492   7.590  20.939  0.00  0.00    +0.000 C 
BRANCH  20  22
ATOM     22  N   UNL     1       1.218   9.759  19.639  0.00  0.00    +0.000 NA
ATOM     23  C   UNL     1       0.223  10.395  18.751  0.00  0.00    +0.000 C 
ATOM     24  C   UNL     1      -1.067  10.947  19.435  0.00  0.00    +0.000 C 
ATOM     25  N   UNL     1      -0.902  11.665  20.740  0.00  0.00    +0.000 NA
ATOM     26  C   UNL     1      -0.140  10.714  21.580  0.00  0.00    +0.000 C 
ATOM     27  C   UNL     1       1.237  10.342  21.002  0.00  0.00    +0.000 C 
BRANCH  25  28
ATOM     28  C   UNL     1      -0.282  13.021  20.556  0.00  0.00    +0.000 C 
ATOM     29  C   UNL     1      -1.267  14.015  19.899  0.00  0.00    +0.000 C 
ATOM     30  C   UNL     1      -2.315  14.619  20.830  0.00  0.00    +0.000 C 
ATOM     31  C   UNL     1      -1.785  15.152  22.163  0.00  0.00    +0.000 C 
ATOM     32  C   UNL     1      -0.525  14.497  22.738  0.00  0.00    +0.000 C 
ATOM     33  C   UNL     1       0.379  13.817  21.722  0.00  0.00    +0.000 C 
ENDBRANCH  25  28
ENDBRANCH  20  22
ENDBRANCH   2  20
TORSDOF 6
ENDMDL
MODEL 5
REMARK VINA RESULT:      -7.2      7.405     11.130
REMARK  Name = 
REMARK  8 active torsions:
REMARK  status: ('A' for Active; 'I' for Inactive)
REMARK    1  A    between atoms: C_1  and  O_2
REMARK    2  A    between atoms: O_2  and  C_3
REMARK    3  A    between atoms: C_3  and  C_5
REMARK    4  A    between atoms: C_14  and  N_15
REMARK    5  A    between atoms: C_16  and  C_18
REMARK    6  A    between atoms: C_18  and  C_19
REMARK    7  A    between atoms: C_18  and  N_20
REMARK    8  A    between atoms: N_23  and  C_24
REMARK                            x       y       z     vdW  Elec       q    Type
REMARK                         _______ _______ _______ _____ _____    ______ ____
ROOT
ATOM      1  N   UNL     1       2.775  15.108  19.108  0.00  0.00    +0.000 N 
ATOM      2  C   UNL     1       3.641  15.621  18.163  0.00  0.00    +0.000 C 
ATOM      3  O   UNL     1       3.393  15.774  16.976  0.00  0.00    +0.000 OA
ATOM      4  H   UNL     1       3.178  14.878  20.020  0.00  0.00    +0.000 HD
ENDROOT
BRANCH   1  14
ATOM      5  C   UNL     1       0.425  15.506  18.687  0.00  0.00    +0.000 A 
ATOM      6  N   UNL     1      -0.699  14.719  18.585  0.00  0.00    +0.000 N 
ATOM      7  C   UNL     1      -0.382  13.378  18.599  0.00  0.00    +0.000 A 
ATOM      8  C   UNL     1      -1.196  12.262  18.493  0.00  0.00    +0.000 A 
ATOM      9  C   UNL     1      -0.613  10.995  18.556  0.00  0.00    +0.000 A 
ATOM     10  C   UNL     1       0.766  10.868  18.693  0.00  0.00    +0.000 A 
ATOM     11 CL   UNL     1       1.478   9.306  18.791  0.00  0.00    +0.000 Cl
ATOM     12  C   UNL     1       1.574  11.999  18.759  0.00  0.00    +0.000 A 
ATOM     13  C   UNL     1       1.018  13.291  18.752  0.00  0.00    +0.000 A 
ATOM     14  C   UNL     1       1.498  14.648  18.857  0.00  0.00    +0.000 A 
ATOM     15  H   UNL     1      -1.632  15.085  18.503  0.00  0.00    +0.000 HD
BRANCH   5  16
ATOM     16  C   UNL     1       0.313  16.940  18.648  0.00  0.00    +0.000 C 
ATOM     17  O   UNL     1       1.064  17.696  19.255  0.00  0.00    +0.000 OA
BRANCH  16  19
ATOM     18  C   UNL     1      -0.478  18.548  17.141  0.00  0.00    +0.000 C 
ATOM     19  O   UNL     1      -0.725  17.336  17.864  0.00  0.00    +0.000 OA
ENDBRANCH  16  19
ENDBRANCH   5  16
ENDBRANCH   1  14
BRANCH   2  20
ATOM     20  C   UNL     1       5.009  16.029  18.729  0.00  0.00    +0.000 C 
ATOM     21  C   UNL     1       4.747  17.017  19.864  0.00  0.00    +0.000 C 
BRANCH  20  22
ATOM     22  N   UNL     1       5.782  14.826  19.089  0.00  0.00    +0.000 NA
ATOM     23  C   UNL     1       6.384  14.135  17.930  0.00  0.00    +0.000 C 
ATOM     24  C   UNL     1       7.904  14.389  17.682  0.00  0.00    +0.000 C 
ATOM     25  N   UNL     1       8.802  14.414  18.882  0.00  0.00    +0.000 NA
ATOM     26  C   UNL     1       8.171  15.403  19.784  0.00  0.00    +0.000 C 
ATOM     27  C   UNL     1       6.737  15.032  20.204  0.00  0.00    +0.000 C 
BRANCH  25  28
ATOM     28  C   UNL     1       9.009  13.041  19.454  0.00  0.00    +0.000 C 
ATOM     29  C   UNL     1       9.203  11.983  18.345  0.00  0.00    +0.000 C 
ATOM     30  C   UNL     1      10.594  11.931  17.718  0.00  0.00    +0.000 C 
ATOM     31  C   UNL     1      11.763  11.931  18.704  0.00  0.00    +0.000 C 
ATOM     32  C   UNL     1      11.549  12.618  20.058  0.00  0.00    +0.000 C 
ATOM     33  C   UNL     1      10.103  12.720  20.517  0.00  0.00    +0.000 C 
ENDBRANCH  25  28
ENDBRANCH  20  22
ENDBRANCH   2  20
TORSDOF 6
ENDMDL
MODEL 6
REMARK VINA RESULT:      -7.2      4.394      9.023
REMARK  Name = 
REMARK  8 active torsions:
REMARK  status: ('A' for Active; 'I' for Inactive)
REMARK    1  A    between atoms: C_1  and  O_2
REMARK    2  A    between atoms: O_2  and  C_3
REMARK    3  A    between atoms: C_3  and  C_5
REMARK    4  A    between atoms: C_14  and  N_15
REMARK    5  A    between atoms: C_16  and  C_18
REMARK    6  A    between atoms: C_18  and  C_19
REMARK    7  A    between atoms: C_18  and  N_20
REMARK    8  A    between atoms: N_23  and  C_24
REMARK                            x       y       z     vdW  Elec       q    Type
REMARK                         _______ _______ _______ _____ _____    ______ ____
ROOT
ATOM      1  N   UNL     1      -0.249   9.756  19.650  0.00  0.00    +0.000 N 
ATOM      2  C   UNL     1       1.017   9.828  19.106  0.00  0.00    +0.000 C 
ATOM      3  O   UNL     1       1.402  10.657  18.294  0.00  0.00    +0.000 OA
ATOM      4  H   UNL     1      -0.472   8.909  20.179  0.00  0.00    +0.000 HD
ENDROOT
BRANCH   1  14
ATOM      5  C   UNL     1      -1.793  11.529  20.223  0.00  0.00    +0.000 A 
ATOM      6  N   UNL     1      -2.908  12.085  19.639  0.00  0.00    +0.000 N 
ATOM      7  C   UNL     1      -3.109  11.597  18.366  0.00  0.00    +0.000 A 
ATOM      8  C   UNL     1      -4.084  11.905  17.430  0.00  0.00    +0.000 A 
ATOM      9  C   UNL     1      -4.072  11.240  16.203  0.00  0.00    +0.000 A 
ATOM     10  C   UNL     1      -3.076  10.310  15.923  0.00  0.00    +0.000 A 
ATOM     11 CL   UNL     1      -3.077   9.479  14.418  0.00  0.00    +0.000 Cl
ATOM     12  C   UNL     1      -2.082  10.041  16.858  0.00  0.00    +0.000 A 
ATOM     13  C   UNL     1      -2.092  10.650  18.126  0.00  0.00    +0.000 A 
ATOM     14  C   UNL     1      -1.303  10.589  19.333  0.00  0.00    +0.000 A 
ATOM     15  H   UNL     1      -3.493  12.768  20.089  0.00  0.00    +0.000 HD
BRANCH   5  16
ATOM     16  C   UNL     1      -1.383  11.940  21.540  0.00  0.00    +0.000 C 
ATOM     17  O   UNL     1      -1.818  12.935  22.107  0.00  0.00    +0.000 OA
BRANCH  16  19
ATOM     18  C   UNL     1      -0.908  10.374  23.215  0.00  0.00    +0.000 C 
ATOM     19  O   UNL     1      -0.456  11.090  22.059  0.00  0.00    +0.000 OA
ENDBRANCH  16  19
ENDBRANCH   5  16
ENDBRANCH   1  14
BRANCH   2  20
ATOM     20  C   UNL     1       1.980   8.750  19.628  0.00  0.00    +0.000 C 
ATOM     21  C   UNL     1       1.627   8.507  21.094  0.00  0.00    +0.000 C 
BRANCH  20  22
ATOM     22  N   UNL     1       1.932   7.567  18.750  0.00  0.00    +0.000 NA
ATOM     23  C   UNL     1       2.986   7.550  17.715  0.00  0.00    +0.000 C 
ATOM     24  C   UNL     1       4.219   6.633  17.993  0.00  0.00    +0.000 C 
ATOM     25  N   UNL     1       3.952   5.281  18.582  0.00  0.00    +0.000 NA
ATOM     26  C   UNL     1       3.136   5.566  19.783  0.00  0.00    +0.000 C 
ATOM     27  C   UNL     1       1.808   6.280  19.475  0.00  0.00    +0.000 C 
BRANCH  25  28
ATOM     28  C   UNL     1       3.340   4.346  17.579  0.00  0.00    +0.000 C 
ATOM     29  C   UNL     1       4.065   2.981  17.553  0.00  0.00    +0.000 C 
ATOM     30  C   UNL     1       3.698   2.016  18.677  0.00  0.00    +0.000 C 
ATOM     31  C   UNL     1       2.200   1.851  18.942  0.00  0.00    +0.000 C 
ATOM     32  C   UNL     1       1.286   3.035  18.608  0.00  0.00    +0.000 C 
ATOM     33  C   UNL     1       1.821   3.998  17.560  0.00  0.00    +0.000 C 
ENDBRANCH  25  28
ENDBRANCH  20  22
ENDBRANCH   2  20
TORSDOF 6
ENDMDL
MODEL 7
REMARK VINA RESULT:      -7.1      3.009      4.974
REMARK  Name = 
REMARK  8 active torsions:
REMARK  status: ('A' for Active; 'I' for Inactive)
REMARK    1  A    between atoms: C_1  and  O_2
REMARK    2  A    between atoms: O_2  and  C_3
REMARK    3  A    between atoms: C_3  and  C_5
REMARK    4  A    between atoms: C_14  and  N_15
REMARK    5  A    between atoms: C_16  and  C_18
REMARK    6  A    between atoms: C_18  and  C_19
REMARK    7  A    between atoms: C_18  and  N_20
REMARK    8  A    between atoms: N_23  and  C_24
REMARK                            x       y       z     vdW  Elec       q    Type
REMARK                         _______ _______ _______ _____ _____    ______ ____
ROOT
ATOM      1  N   UNL     1       3.394   7.373  18.520  0.00  0.00    +0.000 N 
ATOM      2  C   UNL     1       2.226   8.037  18.204  0.00  0.00    +0.000 C 
ATOM      3  O   UNL     1       1.278   7.564  17.593  0.00  0.00    +0.000 OA
ATOM      4  H   UNL     1       4.162   7.946  18.878  0.00  0.00    +0.000 HD
ENDROOT
BRANCH   1  14
ATOM      5  C   UNL     1       4.537   5.783  17.099  0.00  0.00    +0.000 A 
ATOM      6  N   UNL     1       4.518   4.416  16.944  0.00  0.00    +0.000 N 
ATOM      7  C   UNL     1       3.761   3.806  17.921  0.00  0.00    +0.000 A 
ATOM      8  C   UNL     1       3.503   2.464  18.150  0.00  0.00    +0.000 A 
ATOM      9  C   UNL     1       2.675   2.110  19.216  0.00  0.00    +0.000 A 
ATOM     10  C   UNL     1       2.148   3.095  20.047  0.00  0.00    +0.000 A 
ATOM     11 CL   UNL     1       1.112   2.656  21.346  0.00  0.00    +0.000 Cl
ATOM     12  C   UNL     1       2.449   4.435  19.827  0.00  0.00    +0.000 A 
ATOM     13  C   UNL     1       3.235   4.834  18.731  0.00  0.00    +0.000 A 
ATOM     14  C   UNL     1       3.699   6.076  18.161  0.00  0.00    +0.000 A 
ATOM     15  H   UNL     1       5.004   3.929  16.210  0.00  0.00    +0.000 HD
BRANCH   5  16
ATOM     16  C   UNL     1       5.308   6.604  16.203  0.00  0.00    +0.000 C 
ATOM     17  O   UNL     1       5.173   6.592  14.985  0.00  0.00    +0.000 OA
BRANCH  16  19
ATOM     18  C   UNL     1       7.294   6.647  17.445  0.00  0.00    +0.000 C 
ATOM     19  O   UNL     1       6.198   7.378  16.881  0.00  0.00    +0.000 OA
ENDBRANCH  16  19
ENDBRANCH   5  16
ENDBRANCH   1  14
BRANCH   2  20
ATOM     20  C   UNL     1       2.176   9.485  18.713  0.00  0.00    +0.000 C 
ATOM     21  C   UNL     1       2.622  10.380  17.559  0.00  0.00    +0.000 C 
BRANCH  20  22
ATOM     22  N   UNL     1       0.843   9.773  19.274  0.00  0.00    +0.000 NA
ATOM     23  C   UNL     1       0.644   9.246  20.639  0.00  0.00    +0.000 C 
ATOM     24  C   UNL     1       0.771  10.273  21.807  0.00  0.00    +0.000 C 
ATOM     25  N   UNL     1       0.157  11.626  21.605  0.00  0.00    +0.000 NA
ATOM     26  C   UNL     1       0.738  12.097  20.328  0.00  0.00    +0.000 C 
ATOM     27  C   UNL     1       0.419  11.187  19.129  0.00  0.00    +0.000 C 
BRANCH  25  28
ATOM     28  C   UNL     1      -1.343  11.573  21.665  0.00  0.00    +0.000 C 
ATOM     29  C   UNL     1      -1.868  11.855  23.091  0.00  0.00    +0.000 C 
ATOM     30  C   UNL     1      -1.903  13.324  23.503  0.00  0.00    +0.000 C 
ATOM     31  C   UNL     1      -2.515  14.282  22.479  0.00  0.00    +0.000 C 
ATOM     32  C   UNL     1      -2.419  13.895  20.999  0.00  0.00    +0.000 C 
ATOM     33  C   UNL     1      -2.260  12.408  20.722  0.00  0.00    +0.000 C 
ENDBRANCH  25  28
ENDBRANCH  20  22
ENDBRANCH   2  20
TORSDOF 6
ENDMDL
MODEL 8
REMARK VINA RESULT:      -7.1      3.155      5.317
REMARK  Name = 
REMARK  8 active torsions:
REMARK  status: ('A' for Active; 'I' for Inactive)
REMARK    1  A    between atoms: C_1  and  O_2
REMARK    2  A    between atoms: O_2  and  C_3
REMARK    3  A    between atoms: C_3  and  C_5
REMARK    4  A    between atoms: C_14  and  N_15
REMARK    5  A    between atoms: C_16  and  C_18
REMARK    6  A    between atoms: C_18  and  C_19
REMARK    7  A    between atoms: C_18  and  N_20
REMARK    8  A    between atoms: N_23  and  C_24
REMARK                            x       y       z     vdW  Elec       q    Type
REMARK                         _______ _______ _______ _____ _____    ______ ____
ROOT
ATOM      1  N   UNL     1       2.329   6.754  19.293  0.00  0.00    +0.000 N 
ATOM      2  C   UNL     1       1.912   7.974  18.800  0.00  0.00    +0.000 C 
ATOM      3  O   UNL     1       2.160   8.417  17.688  0.00  0.00    +0.000 OA
ATOM      4  H   UNL     1       2.193   6.596  20.295  0.00  0.00    +0.000 HD
ENDROOT
BRANCH   1  14
ATOM      5  C   UNL     1       2.726   4.551  18.374  0.00  0.00    +0.000 A 
ATOM      6  N   UNL     1       3.801   3.902  17.812  0.00  0.00    +0.000 N 
ATOM      7  C   UNL     1       4.861   4.760  17.610  0.00  0.00    +0.000 A 
ATOM      8  C   UNL     1       6.108   4.530  17.052  0.00  0.00    +0.000 A 
ATOM      9  C   UNL     1       7.019   5.585  16.983  0.00  0.00    +0.000 A 
ATOM     10  C   UNL     1       6.659   6.849  17.442  0.00  0.00    +0.000 A 
ATOM     11 CL   UNL     1       7.792   8.140  17.375  0.00  0.00    +0.000 Cl
ATOM     12  C   UNL     1       5.390   7.072  17.964  0.00  0.00    +0.000 A 
ATOM     13  C   UNL     1       4.463   6.022  18.100  0.00  0.00    +0.000 A 
ATOM     14  C   UNL     1       3.130   5.852  18.623  0.00  0.00    +0.000 A 
ATOM     15  H   UNL     1       3.802   2.926  17.573  0.00  0.00    +0.000 HD
BRANCH   5  16
ATOM     16  C   UNL     1       1.500   3.840  18.626  0.00  0.00    +0.000 C 
ATOM     17  O   UNL     1       1.004   3.042  17.839  0.00  0.00    +0.000 OA
BRANCH  16  19
ATOM     18  C   UNL     1       1.360   3.300  20.900  0.00  0.00    +0.000 C 
ATOM     19  O   UNL     1       0.971   4.174  19.834  0.00  0.00    +0.000 OA
ENDBRANCH  16  19
ENDBRANCH   5  16
ENDBRANCH   1  14
BRANCH   2  20
ATOM     20  C   UNL     1       1.051   8.781  19.783  0.00  0.00    +0.000 C 
ATOM     21  C   UNL     1       1.294   8.199  21.173  0.00  0.00    +0.000 C 
BRANCH  20  22
ATOM     22  N   UNL     1       1.332  10.220  19.629  0.00  0.00    +0.000 NA
ATOM     23  C   UNL     1       0.484  10.889  18.621  0.00  0.00    +0.000 C 
ATOM     24  C   UNL     1      -0.717  11.724  19.165  0.00  0.00    +0.000 C 
ATOM     25  N   UNL     1      -0.476  12.567  20.381  0.00  0.00    +0.000 NA
ATOM     26  C   UNL     1       0.091  11.621  21.368  0.00  0.00    +0.000 C 
ATOM     27  C   UNL     1       1.405  10.962  20.911  0.00  0.00    +0.000 C 
BRANCH  25  28
ATOM     28  C   UNL     1       0.366  13.771  20.067  0.00  0.00    +0.000 C 
ATOM     29  C   UNL     1      -0.444  14.854  19.319  0.00  0.00    +0.000 C 
ATOM     30  C   UNL     1      -1.355  15.717  20.189  0.00  0.00    +0.000 C 
ATOM     31  C   UNL     1      -0.717  16.273  21.463  0.00  0.00    +0.000 C 
ATOM     32  C   UNL     1       0.422  15.465  22.097  0.00  0.00    +0.000 C 
ATOM     33  C   UNL     1       1.176  14.546  21.149  0.00  0.00    +0.000 C 
ENDBRANCH  25  28
ENDBRANCH  20  22
ENDBRANCH   2  20
TORSDOF 6
ENDMDL
MODEL 9
REMARK VINA RESULT:      -7.1      4.345      9.086
REMARK  Name = 
REMARK  8 active torsions:
REMARK  status: ('A' for Active; 'I' for Inactive)
REMARK    1  A    between atoms: C_1  and  O_2
REMARK    2  A    between atoms: O_2  and  C_3
REMARK    3  A    between atoms: C_3  and  C_5
REMARK    4  A    between atoms: C_14  and  N_15
REMARK    5  A    between atoms: C_16  and  C_18
REMARK    6  A    between atoms: C_18  and  C_19
REMARK    7  A    between atoms: C_18  and  N_20
REMARK    8  A    between atoms: N_23  and  C_24
REMARK                            x       y       z     vdW  Elec       q    Type
REMARK                         _______ _______ _______ _____ _____    ______ ____
ROOT
ATOM      1  N   UNL     1      -0.065   9.728  20.124  0.00  0.00    +0.000 N 
ATOM      2  C   UNL     1       1.106   9.604  19.406  0.00  0.00    +0.000 C 
ATOM      3  O   UNL     1       1.446  10.306  18.465  0.00  0.00    +0.000 OA
ATOM      4  H   UNL     1      -0.291   8.964  20.766  0.00  0.00    +0.000 HD
ENDROOT
BRANCH   1  14
ATOM      5  C   UNL     1      -1.407  11.633  20.777  0.00  0.00    +0.000 A 
ATOM      6  N   UNL     1      -2.510  12.276  20.266  0.00  0.00    +0.000 N 
ATOM      7  C   UNL     1      -2.846  11.793  19.019  0.00  0.00    +0.000 A 
ATOM      8  C   UNL     1      -3.857  12.173  18.151  0.00  0.00    +0.000 A 
ATOM      9  C   UNL     1      -3.992  11.497  16.938  0.00  0.00    +0.000 A 
ATOM     10  C   UNL     1      -3.101  10.482  16.603  0.00  0.00    +0.000 A 
ATOM     11 CL   UNL     1      -3.284   9.637  15.116  0.00  0.00    +0.000 Cl
ATOM     12  C   UNL     1      -2.068  10.138  17.468  0.00  0.00    +0.000 A 
ATOM     13  C   UNL     1      -1.933  10.760  18.723  0.00  0.00    +0.000 A 
ATOM     14  C   UNL     1      -1.066  10.645  19.870  0.00  0.00    +0.000 A 
ATOM     15  H   UNL     1      -3.001  13.012  20.745  0.00  0.00    +0.000 HD
BRANCH   5  16
ATOM     16  C   UNL     1      -0.868  12.021  22.053  0.00  0.00    +0.000 C 
ATOM     17  O   UNL     1      -0.308  11.244  22.818  0.00  0.00    +0.000 OA
BRANCH  16  19
ATOM     18  C   UNL     1       0.093  14.157  22.069  0.00  0.00    +0.000 C 
ATOM     19  O   UNL     1      -1.066  13.345  22.295  0.00  0.00    +0.000 OA
ENDBRANCH  16  19
ENDBRANCH   5  16
ENDBRANCH   1  14
BRANCH   2  20
ATOM     20  C   UNL     1       2.022   8.474  19.901  0.00  0.00    +0.000 C 
ATOM     21  C   UNL     1       1.634   8.186  21.349  0.00  0.00    +0.000 C 
BRANCH  20  22
ATOM     22  N   UNL     1       1.951   7.329  18.975  0.00  0.00    +0.000 NA
ATOM     23  C   UNL     1       2.964   7.365  17.901  0.00  0.00    +0.000 C 
ATOM     24  C   UNL     1       4.214   6.450  18.093  0.00  0.00    +0.000 C 
ATOM     25  N   UNL     1       3.981   5.071  18.634  0.00  0.00    +0.000 NA
ATOM     26  C   UNL     1       3.209   5.297  19.876  0.00  0.00    +0.000 C 
ATOM     27  C   UNL     1       1.864   6.011  19.649  0.00  0.00    +0.000 C 
BRANCH  25  28
ATOM     28  C   UNL     1       3.339   4.173  17.615  0.00  0.00    +0.000 C 
ATOM     29  C   UNL     1       4.002   2.778  17.585  0.00  0.00    +0.000 C 
ATOM     30  C   UNL     1       3.579   1.821  18.696  0.00  0.00    +0.000 C 
ATOM     31  C   UNL     1       2.072   1.722  18.943  0.00  0.00    +0.000 C 
ATOM     32  C   UNL     1       1.216   2.949  18.610  0.00  0.00    +0.000 C 
ATOM     33  C   UNL     1       1.806   3.895  17.576  0.00  0.00    +0.000 C 
ENDBRANCH  25  28
ENDBRANCH  20  22
ENDBRANCH   2  20
TORSDOF 6
ENDMDL
