MODEL 1
REMARK VINA RESULT:      -7.3      0.000      0.000
REMARK  Name = 
REMARK  6 active torsions:
REMARK  status: ('A' for Active; 'I' for Inactive)
REMARK    1  A    between atoms: C_1  and  C_2
REMARK    2  A    between atoms: C_2  and  C_3
REMARK    3  A    between atoms: C_3  and  N_4
REMARK    4  A    between atoms: C_5  and  C_7
REMARK    5  A    between atoms: C_12  and  N_13
REMARK    6  A    between atoms: C_14  and  C_16
REMARK                            x       y       z     vdW  Elec       q    Type
REMARK                         _______ _______ _______ _____ _____    ______ ____
ROOT
ATOM      1  C   UNL     1       3.543   4.794  17.353  0.00  0.00    +0.000 A 
ATOM      2  C   UNL     1       4.461   4.159  16.484  0.00  0.00    +0.000 A 
ATOM      3  C   UNL     1       5.572   4.837  15.989  0.00  0.00    +0.000 A 
ATOM      4  C   UNL     1       5.801   6.142  16.388  0.00  0.00    +0.000 A 
ATOM      5  C   UNL     1       4.917   6.768  17.273  0.00  0.00    +0.000 A 
ATOM      6  C   UNL     1       3.763   6.126  17.761  0.00  0.00    +0.000 A 
ENDROOT
BRANCH   1   8
ATOM      7  N   UNL     1       2.656   2.987  18.725  0.00  0.00    +0.000 N 
ATOM      8  C   UNL     1       2.372   4.001  17.822  0.00  0.00    +0.000 C 
ATOM      9  O   UNL     1       1.249   4.268  17.429  0.00  0.00    +0.000 OA
ATOM     10  H   UNL     1       3.600   2.628  18.750  0.00  0.00    +0.000 HD
BRANCH   7  11
ATOM     11  C   UNL     1       1.624   2.208  19.379  0.00  0.00    +0.000 C 
BRANCH  11  13
ATOM     12  C   UNL     1       2.100   3.239  21.663  0.00  0.00    +0.000 C 
ATOM     13  C   UNL     1       1.053   2.941  20.596  0.00  0.00    +0.000 C 
ENDBRANCH  11  13
ENDBRANCH   7  11
ENDBRANCH   1   8
BRANCH   6  14
ATOM     14  N   UNL     1       2.876   6.807  18.656  0.00  0.00    +0.000 N 
ATOM     15  C   UNL     1       2.292   8.037  18.400  0.00  0.00    +0.000 C 
ATOM     16  O   UNL     1       2.337   8.603  17.307  0.00  0.00    +0.000 OA
ATOM     17  H   UNL     1       2.613   6.313  19.511  0.00  0.00    +0.000 HD
BRANCH  15  18
ATOM     18  C   UNL     1       1.558   8.699  19.552  0.00  0.00    +0.000 C 
ATOM     19  C   UNL     1       0.964   9.861  19.225  0.00  0.00    +0.000 C 
ATOM     20  S   UNL     1       0.116  10.910  20.287  0.00  0.00    +0.000 S 
ATOM     21  C   UNL     1       0.149   9.968  21.815  0.00  0.00    +0.000 C 
ATOM     22  C   UNL     1       1.247   8.914  21.928  0.00  0.00    +0.000 C 
ATOM     23  O   UNL     1       1.561   8.103  20.791  0.00  0.00    +0.000 OA
ENDBRANCH  15  18
ENDBRANCH   6  14
TORSDOF 5
ENDMDL
MODEL 2
REMARK VINA RESULT:      -7.3      3.665      6.034
REMARK  Name = 
REMARK  6 active torsions:
REMARK  status: ('A' for Active; 'I' for Inactive)
REMARK    1  A    between atoms: C_1  and  C_2
REMARK    2  A    between atoms: C_2  and  C_3
REMARK    3  A    between atoms: C_3  and  N_4
REMARK    4  A    between atoms: C_5  and  C_7
REMARK    5  A    between atoms: C_12  and  N_13
REMARK    6  A    between atoms: C_14  and  C_16
REMARK                            x       y       z     vdW  Elec       q    Type
REMARK                         _______ _______ _______ _____ _____    ______ ____
ROOT
ATOM      1  C   UNL     1       6.900   4.763  15.514  0.00  0.00    +0.000 A 
ATOM      2  C   UNL     1       7.569   5.134  14.324  0.00  0.00    +0.000 A 
ATOM      3  C   UNL     1       7.157   4.651  13.084  0.00  0.00    +0.000 A 
ATOM      4  C   UNL     1       6.049   3.825  13.015  0.00  0.00    +0.000 A 
ATOM      5  C   UNL     1       5.359   3.479  14.182  0.00  0.00    +0.000 A 
ATOM      6  C   UNL     1       5.772   3.918  15.456  0.00  0.00    +0.000 A 
ENDROOT
BRANCH   1   8
ATOM      7  N   UNL     1       7.543   6.693  16.855  0.00  0.00    +0.000 N 
ATOM      8  C   UNL     1       7.416   5.312  16.799  0.00  0.00    +0.000 C 
ATOM      9  O   UNL     1       7.684   4.566  17.726  0.00  0.00    +0.000 OA
ATOM     10  H   UNL     1       7.614   7.196  15.981  0.00  0.00    +0.000 HD
BRANCH   7  11
ATOM     11  C   UNL     1       7.906   7.399  18.067  0.00  0.00    +0.000 C 
BRANCH  11  13
ATOM     12  C   UNL     1       8.911   9.623  18.807  0.00  0.00    +0.000 C 
ATOM     13  C   UNL     1       7.978   8.911  17.834  0.00  0.00    +0.000 C 
ENDBRANCH  11  13
ENDBRANCH   7  11
ENDBRANCH   1   8
BRANCH   6  14
ATOM     14  N   UNL     1       5.046   3.530  16.628  0.00  0.00    +0.000 N 
ATOM     15  C   UNL     1       4.237   4.377  17.367  0.00  0.00    +0.000 C 
ATOM     16  O   UNL     1       3.919   5.512  17.006  0.00  0.00    +0.000 OA
ATOM     17  H   UNL     1       5.086   2.544  16.890  0.00  0.00    +0.000 HD
BRANCH  15  18
ATOM     18  C   UNL     1       3.725   3.848  18.694  0.00  0.00    +0.000 C 
ATOM     19  C   UNL     1       2.852   4.666  19.309  0.00  0.00    +0.000 C 
ATOM     20  S   UNL     1       2.133   4.425  20.849  0.00  0.00    +0.000 S 
ATOM     21  C   UNL     1       2.756   2.797  21.278  0.00  0.00    +0.000 C 
ATOM     22  C   UNL     1       4.026   2.354  20.557  0.00  0.00    +0.000 C 
ATOM     23  O   UNL     1       4.174   2.635  19.161  0.00  0.00    +0.000 OA
ENDBRANCH  15  18
ENDBRANCH   6  14
TORSDOF 5
ENDMDL
MODEL 3
REMARK VINA RESULT:      -7.1      1.988      4.098
REMARK  Name = 
REMARK  6 active torsions:
REMARK  status: ('A' for Active; 'I' for Inactive)
REMARK    1  A    between atoms: C_1  and  C_2
REMARK    2  A    between atoms: C_2  and  C_3
REMARK    3  A    between atoms: C_3  and  N_4
REMARK    4  A    between atoms: C_5  and  C_7
REMARK    5  A    between atoms: C_12  and  N_13
REMARK    6  A    between atoms: C_14  and  C_16
REMARK                            x       y       z     vdW  Elec       q    Type
REMARK                         _______ _______ _______ _____ _____    ______ ____
ROOT
ATOM      1  C   UNL     1       3.752   3.929  17.908  0.00  0.00    +0.000 A 
ATOM      2  C   UNL     1       3.815   2.518  17.829  0.00  0.00    +0.000 A 
ATOM      3  C   UNL     1       2.699   1.730  18.099  0.00  0.00    +0.000 A 
ATOM      4  C   UNL     1       1.498   2.343  18.410  0.00  0.00    +0.000 A 
ATOM      5  C   UNL     1       1.416   3.738  18.457  0.00  0.00    +0.000 A 
ATOM      6  C   UNL     1       2.534   4.564  18.229  0.00  0.00    +0.000 A 
ENDROOT
BRANCH   1   8
ATOM      7  N   UNL     1       6.160   4.184  18.180  0.00  0.00    +0.000 N 
ATOM      8  C   UNL     1       4.997   4.695  17.620  0.00  0.00    +0.000 C 
ATOM      9  O   UNL     1       4.960   5.693  16.920  0.00  0.00    +0.000 OA
ATOM     10  H   UNL     1       6.069   3.574  18.980  0.00  0.00    +0.000 HD
BRANCH   7  11
ATOM     11  C   UNL     1       7.472   4.728  17.896  0.00  0.00    +0.000 C 
BRANCH  11  13
ATOM     12  C   UNL     1       7.888   7.237  18.091  0.00  0.00    +0.000 C 
ATOM     13  C   UNL     1       7.804   5.902  18.821  0.00  0.00    +0.000 C 
ENDBRANCH  11  13
ENDBRANCH   7  11
ENDBRANCH   1   8
BRANCH   6  14
ATOM     14  N   UNL     1       2.412   5.989  18.301  0.00  0.00    +0.000 N 
ATOM     15  C   UNL     1       2.250   6.707  19.474  0.00  0.00    +0.000 C 
ATOM     16  O   UNL     1       2.362   6.217  20.599  0.00  0.00    +0.000 OA
ATOM     17  H   UNL     1       2.515   6.506  17.425  0.00  0.00    +0.000 HD
BRANCH  15  18
ATOM     18  C   UNL     1       1.921   8.182  19.334  0.00  0.00    +0.000 C 
ATOM     19  C   UNL     1       1.244   8.692  20.380  0.00  0.00    +0.000 C 
ATOM     20  S   UNL     1       0.646  10.294  20.527  0.00  0.00    +0.000 S 
ATOM     21  C   UNL     1       1.284  11.049  19.028  0.00  0.00    +0.000 C 
ATOM     22  C   UNL     1       1.642  10.090  17.895  0.00  0.00    +0.000 C 
ATOM     23  O   UNL     1       2.306   8.860  18.201  0.00  0.00    +0.000 OA
ENDBRANCH  15  18
ENDBRANCH   6  14
TORSDOF 5
ENDMDL
MODEL 4
REMARK VINA RESULT:      -7.1      0.965      1.174
REMARK  Name = 
REMARK  6 active torsions:
REMARK  status: ('A' for Active; 'I' for Inactive)
REMARK    1  A    between atoms: C_1  and  C_2
REMARK    2  A    between atoms: C_2  and  C_3
REMARK    3  A    between atoms: C_3  and  N_4
REMARK    4  A    between atoms: C_5  and  C_7
REMARK    5  A    between atoms: C_12  and  N_13
REMARK    6  A    between atoms: C_14  and  C_16
REMARK                            x       y       z     vdW  Elec       q    Type
REMARK                         _______ _______ _______ _____ _____    ______ ____
ROOT
ATOM      1  C   UNL     1       3.563   4.827  17.398  0.00  0.00    +0.000 A 
ATOM      2  C   UNL     1       4.515   4.147  16.603  0.00  0.00    +0.000 A 
ATOM      3  C   UNL     1       5.649   4.796  16.123  0.00  0.00    +0.000 A 
ATOM      4  C   UNL     1       5.865   6.120  16.464  0.00  0.00    +0.000 A 
ATOM      5  C   UNL     1       4.947   6.792  17.277  0.00  0.00    +0.000 A 
ATOM      6  C   UNL     1       3.770   6.178  17.747  0.00  0.00    +0.000 A 
ENDROOT
BRANCH   1   8
ATOM      7  N   UNL     1       2.623   3.033  18.752  0.00  0.00    +0.000 N 
ATOM      8  C   UNL     1       2.369   4.062  17.856  0.00  0.00    +0.000 C 
ATOM      9  O   UNL     1       1.255   4.361  17.461  0.00  0.00    +0.000 OA
ATOM     10  H   UNL     1       3.557   2.649  18.777  0.00  0.00    +0.000 HD
BRANCH   7  11
ATOM     11  C   UNL     1       1.569   2.275  19.395  0.00  0.00    +0.000 C 
BRANCH  11  13
ATOM     12  C   UNL     1       2.210   3.274  21.652  0.00  0.00    +0.000 C 
ATOM     13  C   UNL     1       1.084   2.964  20.674  0.00  0.00    +0.000 C 
ENDBRANCH  11  13
ENDBRANCH   7  11
ENDBRANCH   1   8
BRANCH   6  14
ATOM     14  N   UNL     1       2.848   6.906  18.567  0.00  0.00    +0.000 N 
ATOM     15  C   UNL     1       2.270   8.115  18.216  0.00  0.00    +0.000 C 
ATOM     16  O   UNL     1       2.354   8.616  17.094  0.00  0.00    +0.000 OA
ATOM     17  H   UNL     1       2.556   6.461  19.439  0.00  0.00    +0.000 HD
BRANCH  15  18
ATOM     18  C   UNL     1       1.492   8.839  19.299  0.00  0.00    +0.000 C 
ATOM     19  C   UNL     1       1.614   8.289  20.521  0.00  0.00    +0.000 C 
ATOM     20  S   UNL     1       0.820   8.797  21.956  0.00  0.00    +0.000 S 
ATOM     21  C   UNL     1      -0.043  10.264  21.382  0.00  0.00    +0.000 C 
ATOM     22  C   UNL     1      -0.291  10.349  19.878  0.00  0.00    +0.000 C 
ATOM     23  O   UNL     1       0.742   9.945  18.973  0.00  0.00    +0.000 OA
ENDBRANCH  15  18
ENDBRANCH   6  14
TORSDOF 5
ENDMDL
MODEL 5
REMARK VINA RESULT:      -7.1      3.574      5.773
REMARK  Name = 
REMARK  6 active torsions:
REMARK  status: ('A' for Active; 'I' for Inactive)
REMARK    1  A    between atoms: C_1  and  C_2
REMARK    2  A    between atoms: C_2  and  C_3
REMARK    3  A    between atoms: C_3  and  N_4
REMARK    4  A    between atoms: C_5  and  C_7
REMARK    5  A    between atoms: C_12  and  N_13
REMARK    6  A    between atoms: C_14  and  C_16
REMARK                            x       y       z     vdW  Elec       q    Type
REMARK                         _______ _______ _______ _____ _____    ______ ____
ROOT
ATOM      1  C   UNL     1       6.813   4.852  15.788  0.00  0.00    +0.000 A 
ATOM      2  C   UNL     1       7.561   5.031  14.601  0.00  0.00    +0.000 A 
ATOM      3  C   UNL     1       7.119   4.514  13.385  0.00  0.00    +0.000 A 
ATOM      4  C   UNL     1       5.907   3.849  13.334  0.00  0.00    +0.000 A 
ATOM      5  C   UNL     1       5.143   3.695  14.496  0.00  0.00    +0.000 A 
ATOM      6  C   UNL     1       5.579   4.170  15.749  0.00  0.00    +0.000 A 
ENDROOT
BRANCH   1   8
ATOM      7  N   UNL     1       7.625   6.786  17.028  0.00  0.00    +0.000 N 
ATOM      8  C   UNL     1       7.367   5.422  17.048  0.00  0.00    +0.000 C 
ATOM      9  O   UNL     1       7.551   4.709  18.020  0.00  0.00    +0.000 OA
ATOM     10  H   UNL     1       7.754   7.228  16.129  0.00  0.00    +0.000 HD
BRANCH   7  11
ATOM     11  C   UNL     1       8.041   7.522  18.204  0.00  0.00    +0.000 C 
BRANCH  11  13
ATOM     12  C   UNL     1       9.009   9.770  18.924  0.00  0.00    +0.000 C 
ATOM     13  C   UNL     1       8.140   9.024  17.918  0.00  0.00    +0.000 C 
ENDBRANCH  11  13
ENDBRANCH   7  11
ENDBRANCH   1   8
BRANCH   6  14
ATOM     14  N   UNL     1       4.773   3.981  16.918  0.00  0.00    +0.000 N 
ATOM     15  C   UNL     1       4.046   4.982  17.542  0.00  0.00    +0.000 C 
ATOM     16  O   UNL     1       3.879   6.107  17.067  0.00  0.00    +0.000 OA
ATOM     17  H   UNL     1       4.685   3.025  17.268  0.00  0.00    +0.000 HD
BRANCH  15  18
ATOM     18  C   UNL     1       3.431   4.642  18.887  0.00  0.00    +0.000 C 
ATOM     19  C   UNL     1       3.563   3.350  19.238  0.00  0.00    +0.000 C 
ATOM     20  S   UNL     1       2.928   2.602  20.646  0.00  0.00    +0.000 S 
ATOM     21  C   UNL     1       2.213   4.009  21.502  0.00  0.00    +0.000 C 
ATOM     22  C   UNL     1       1.883   5.222  20.636  0.00  0.00    +0.000 C 
ATOM     23  O   UNL     1       2.801   5.625  19.614  0.00  0.00    +0.000 OA
ENDBRANCH  15  18
ENDBRANCH   6  14
TORSDOF 5
ENDMDL
MODEL 6
REMARK VINA RESULT:      -7.0      1.836      2.259
REMARK  Name = 
REMARK  6 active torsions:
REMARK  status: ('A' for Active; 'I' for Inactive)
REMARK    1  A    between atoms: C_1  and  C_2
REMARK    2  A    between atoms: C_2  and  C_3
REMARK    3  A    between atoms: C_3  and  N_4
REMARK    4  A    between atoms: C_5  and  C_7
REMARK    5  A    between atoms: C_12  and  N_13
REMARK    6  A    between atoms: C_14  and  C_16
REMARK                            x       y       z     vdW  Elec       q    Type
REMARK                         _______ _______ _______ _____ _____    ______ ____
ROOT
ATOM      1  C   UNL     1       5.500   4.592  17.234  0.00  0.00    +0.000 A 
ATOM      2  C   UNL     1       6.262   3.801  16.342  0.00  0.00    +0.000 A 
ATOM      3  C   UNL     1       6.444   4.183  15.015  0.00  0.00    +0.000 A 
ATOM      4  C   UNL     1       5.901   5.378  14.576  0.00  0.00    +0.000 A 
ATOM      5  C   UNL     1       5.175   6.184  15.459  0.00  0.00    +0.000 A 
ATOM      6  C   UNL     1       4.938   5.809  16.796  0.00  0.00    +0.000 A 
ENDROOT
BRANCH   1   8
ATOM      7  N   UNL     1       4.451   3.050  18.802  0.00  0.00    +0.000 N 
ATOM      8  C   UNL     1       5.341   4.101  18.632  0.00  0.00    +0.000 C 
ATOM      9  O   UNL     1       5.982   4.603  19.540  0.00  0.00    +0.000 OA
ATOM     10  H   UNL     1       3.743   2.912  18.094  0.00  0.00    +0.000 HD
BRANCH   7  11
ATOM     11  C   UNL     1       4.274   2.369  20.069  0.00  0.00    +0.000 C 
BRANCH  11  13
ATOM     12  C   UNL     1       1.730   2.446  19.909  0.00  0.00    +0.000 C 
ATOM     13  C   UNL     1       2.961   2.774  20.745  0.00  0.00    +0.000 C 
ENDBRANCH  11  13
ENDBRANCH   7  11
ENDBRANCH   1   8
BRANCH   6  14
ATOM     14  N   UNL     1       4.177   6.656  17.664  0.00  0.00    +0.000 N 
ATOM     15  C   UNL     1       2.880   6.399  18.076  0.00  0.00    +0.000 C 
ATOM     16  O   UNL     1       2.296   5.332  17.877  0.00  0.00    +0.000 OA
ATOM     17  H   UNL     1       4.658   7.471  18.051  0.00  0.00    +0.000 HD
BRANCH  15  18
ATOM     18  C   UNL     1       2.164   7.513  18.816  0.00  0.00    +0.000 C 
ATOM     19  C   UNL     1       1.961   8.618  18.075  0.00  0.00    +0.000 C 
ATOM     20  S   UNL     1       1.253  10.090  18.606  0.00  0.00    +0.000 S 
ATOM     21  C   UNL     1       0.778   9.668  20.285  0.00  0.00    +0.000 C 
ATOM     22  C   UNL     1       1.523   8.495  20.917  0.00  0.00    +0.000 C 
ATOM     23  O   UNL     1       1.799   7.332  20.129  0.00  0.00    +0.000 OA
ENDBRANCH  15  18
ENDBRANCH   6  14
TORSDOF 5
ENDMDL
MODEL 7
REMARK VINA RESULT:      -7.0      1.744      2.272
REMARK  Name = 
REMARK  6 active torsions:
REMARK  status: ('A' for Active; 'I' for Inactive)
REMARK    1  A    between atoms: C_1  and  C_2
REMARK    2  A    between atoms: C_2  and  C_3
REMARK    3  A    between atoms: C_3  and  N_4
REMARK    4  A    between atoms: C_5  and  C_7
REMARK    5  A    between atoms: C_12  and  N_13
REMARK    6  A    between atoms: C_14  and  C_16
REMARK                            x       y       z     vdW  Elec       q    Type
REMARK                         _______ _______ _______ _____ _____    ______ ____
ROOT
ATOM      1  C   UNL     1       5.228   4.550  17.295  0.00  0.00    +0.000 A 
ATOM      2  C   UNL     1       5.932   3.701  16.409  0.00  0.00    +0.000 A 
ATOM      3  C   UNL     1       6.208   4.092  15.102  0.00  0.00    +0.000 A 
ATOM      4  C   UNL     1       5.820   5.350  14.677  0.00  0.00    +0.000 A 
ATOM      5  C   UNL     1       5.153   6.211  15.555  0.00  0.00    +0.000 A 
ATOM      6  C   UNL     1       4.823   5.832  16.871  0.00  0.00    +0.000 A 
ENDROOT
BRANCH   1   8
ATOM      7  N   UNL     1       3.848   3.225  18.805  0.00  0.00    +0.000 N 
ATOM      8  C   UNL     1       4.959   4.046  18.672  0.00  0.00    +0.000 C 
ATOM      9  O   UNL     1       5.701   4.343  19.593  0.00  0.00    +0.000 OA
ATOM     10  H   UNL     1       3.128   3.289  18.099  0.00  0.00    +0.000 HD
BRANCH   7  11
ATOM     11  C   UNL     1       3.518   2.547  20.041  0.00  0.00    +0.000 C 
BRANCH  11  13
ATOM     12  C   UNL     1       1.482   3.880  20.806  0.00  0.00    +0.000 C 
ATOM     13  C   UNL     1       2.007   2.544  20.294  0.00  0.00    +0.000 C 
ENDBRANCH  11  13
ENDBRANCH   7  11
ENDBRANCH   1   8
BRANCH   6  14
ATOM     14  N   UNL     1       4.126   6.738  17.734  0.00  0.00    +0.000 N 
ATOM     15  C   UNL     1       2.792   6.620  18.088  0.00  0.00    +0.000 C 
ATOM     16  O   UNL     1       2.101   5.632  17.834  0.00  0.00    +0.000 OA
ATOM     17  H   UNL     1       4.679   7.483  18.163  0.00  0.00    +0.000 HD
BRANCH  15  18
ATOM     18  C   UNL     1       2.175   7.789  18.832  0.00  0.00    +0.000 C 
ATOM     19  C   UNL     1       1.921   7.538  20.129  0.00  0.00    +0.000 C 
ATOM     20  S   UNL     1       1.163   8.598  21.247  0.00  0.00    +0.000 S 
ATOM     21  C   UNL     1       0.965  10.079  20.251  0.00  0.00    +0.000 C 
ATOM     22  C   UNL     1       0.980   9.876  18.739  0.00  0.00    +0.000 C 
ATOM     23  O   UNL     1       1.920   8.963  18.162  0.00  0.00    +0.000 OA
ENDBRANCH  15  18
ENDBRANCH   6  14
TORSDOF 5
ENDMDL
MODEL 8
REMARK VINA RESULT:      -6.9      1.171      1.284
REMARK  Name = 
REMARK  6 active torsions:
REMARK  status: ('A' for Active; 'I' for Inactive)
REMARK    1  A    between atoms: C_1  and  C_2
REMARK    2  A    between atoms: C_2  and  C_3
REMARK    3  A    between atoms: C_3  and  N_4
REMARK    4  A    between atoms: C_5  and  C_7
REMARK    5  A    between atoms: C_12  and  N_13
REMARK    6  A    between atoms: C_14  and  C_16
REMARK                            x       y       z     vdW  Elec       q    Type
REMARK                         _______ _______ _______ _____ _____    ______ ____
ROOT
ATOM      1  C   UNL     1       3.749   4.366  17.068  0.00  0.00    +0.000 A 
ATOM      2  C   UNL     1       4.589   3.433  16.415  0.00  0.00    +0.000 A 
ATOM      3  C   UNL     1       5.812   3.820  15.872  0.00  0.00    +0.000 A 
ATOM      4  C   UNL     1       6.228   5.132  16.011  0.00  0.00    +0.000 A 
ATOM      5  C   UNL     1       5.421   6.055  16.684  0.00  0.00    +0.000 A 
ATOM      6  C   UNL     1       4.161   5.708  17.210  0.00  0.00    +0.000 A 
ENDROOT
BRANCH   1   8
ATOM      7  N   UNL     1       2.538   2.970  18.656  0.00  0.00    +0.000 N 
ATOM      8  C   UNL     1       2.450   3.872  17.605  0.00  0.00    +0.000 C 
ATOM      9  O   UNL     1       1.397   4.270  17.136  0.00  0.00    +0.000 OA
ATOM     10  H   UNL     1       3.402   2.458  18.766  0.00  0.00    +0.000 HD
BRANCH   7  11
ATOM     11  C   UNL     1       1.377   2.492  19.378  0.00  0.00    +0.000 C 
BRANCH  11  13
ATOM     12  C   UNL     1       2.213   3.047  21.722  0.00  0.00    +0.000 C 
ATOM     13  C   UNL     1       1.146   3.293  20.662  0.00  0.00    +0.000 C 
ENDBRANCH  11  13
ENDBRANCH   7  11
ENDBRANCH   1   8
BRANCH   6  14
ATOM     14  N   UNL     1       3.359   6.686  17.881  0.00  0.00    +0.000 N 
ATOM     15  C   UNL     1       3.017   6.637  19.223  0.00  0.00    +0.000 C 
ATOM     16  O   UNL     1       3.503   5.838  20.025  0.00  0.00    +0.000 OA
ATOM     17  H   UNL     1       3.078   7.504  17.337  0.00  0.00    +0.000 HD
BRANCH  15  18
ATOM     18  C   UNL     1       1.985   7.641  19.703  0.00  0.00    +0.000 C 
ATOM     19  C   UNL     1       1.745   8.637  18.830  0.00  0.00    +0.000 C 
ATOM     20  S   UNL     1       0.701   9.979  19.072  0.00  0.00    +0.000 S 
ATOM     21  C   UNL     1      -0.017   9.584  20.669  0.00  0.00    +0.000 C 
ATOM     22  C   UNL     1       0.779   8.618  21.542  0.00  0.00    +0.000 C 
ATOM     23  O   UNL     1       1.404   7.480  20.938  0.00  0.00    +0.000 OA
ENDBRANCH  15  18
ENDBRANCH   6  14
TORSDOF 5
ENDMDL
MODEL 9
REMARK VINA RESULT:      -6.9      2.071      4.051
REMARK  Name = 
REMARK  6 active torsions:
REMARK  status: ('A' for Active; 'I' for Inactive)
REMARK    1  A    between atoms: C_1  and  C_2
REMARK    2  A    between atoms: C_2  and  C_3
REMARK    3  A    between atoms: C_3  and  N_4
REMARK    4  A    between atoms: C_5  and  C_7
REMARK    5  A    between atoms: C_12  and  N_13
REMARK    6  A    between atoms: C_14  and  C_16
REMARK                            x       y       z     vdW  Elec       q    Type
REMARK                         _______ _______ _______ _____ _____    ______ ____
ROOT
ATOM      1  C   UNL     1       3.763   3.880  18.027  0.00  0.00    +0.000 A 
ATOM      2  C   UNL     1       3.879   2.475  17.905  0.00  0.00    +0.000 A 
ATOM      3  C   UNL     1       2.813   1.634  18.214  0.00  0.00    +0.000 A 
ATOM      4  C   UNL     1       1.607   2.188  18.608  0.00  0.00    +0.000 A 
ATOM      5  C   UNL     1       1.471   3.577  18.699  0.00  0.00    +0.000 A 
ATOM      6  C   UNL     1       2.540   4.455  18.433  0.00  0.00    +0.000 A 
ENDROOT
BRANCH   1   8
ATOM      7  N   UNL     1       6.167   4.239  18.186  0.00  0.00    +0.000 N 
ATOM      8  C   UNL     1       4.957   4.705  17.692  0.00  0.00    +0.000 C 
ATOM      9  O   UNL     1       4.842   5.710  17.012  0.00  0.00    +0.000 OA
ATOM     10  H   UNL     1       6.143   3.614  18.980  0.00  0.00    +0.000 HD
BRANCH   7  11
ATOM     11  C   UNL     1       7.438   4.846  17.848  0.00  0.00    +0.000 C 
BRANCH  11  13
ATOM     12  C   UNL     1       7.805   7.366  17.984  0.00  0.00    +0.000 C 
ATOM     13  C   UNL     1       7.742   6.048  18.747  0.00  0.00    +0.000 C 
ENDBRANCH  11  13
ENDBRANCH   7  11
ENDBRANCH   1   8
BRANCH   6  14
ATOM     14  N   UNL     1       2.364   5.871  18.551  0.00  0.00    +0.000 N 
ATOM     15  C   UNL     1       2.067   6.531  19.732  0.00  0.00    +0.000 C 
ATOM     16  O   UNL     1       2.088   5.995  20.841  0.00  0.00    +0.000 OA
ATOM     17  H   UNL     1       2.533   6.429  17.711  0.00  0.00    +0.000 HD
BRANCH  15  18
ATOM     18  C   UNL     1       1.703   8.000  19.622  0.00  0.00    +0.000 C 
ATOM     19  C   UNL     1       2.048   8.562  18.449  0.00  0.00    +0.000 C 
ATOM     20  S   UNL     1       1.858  10.211  18.009  0.00  0.00    +0.000 S 
ATOM     21  C   UNL     1       0.993  10.861  19.441  0.00  0.00    +0.000 C 
ATOM     22  C   UNL     1       1.137  10.059  20.732  0.00  0.00    +0.000 C 
ATOM     23  O   UNL     1       1.088   8.629  20.679  0.00  0.00    +0.000 OA
ENDBRANCH  15  18
ENDBRANCH   6  14
TORSDOF 5
ENDMDL
