MODEL 1
REMARK VINA RESULT:      -7.9      0.000      0.000
REMARK  Name = 
REMARK  7 active torsions:
REMARK  status: ('A' for Active; 'I' for Inactive)
REMARK    1  A    between atoms: C_1  and  O_2
REMARK    2  A    between atoms: O_2  and  C_3
REMARK    3  A    between atoms: C_8  and  O_9
REMARK    4  A    between atoms: O_9  and  C_10
REMARK    5  A    between atoms: C_11  and  C_12
REMARK    6  A    between atoms: C_12  and  C_13
REMARK    7  A    between atoms: C_23  and  C_25
REMARK                            x       y       z     vdW  Elec       q    Type
REMARK                         _______ _______ _______ _____ _____    ______ ____
ROOT
ATOM      1  C   UNL     1      -3.672  10.687  17.812  0.00  0.00    +0.000 A 
ATOM      2  C   UNL     1      -3.150  11.315  18.945  0.00  0.00    +0.000 A 
ATOM      3  C   UNL     1      -1.776  11.352  19.172  0.00  0.00    +0.000 A 
ATOM      4  C   UNL     1      -0.895  10.733  18.278  0.00  0.00    +0.000 A 
ATOM      5  C   UNL     1      -1.417  10.112  17.127  0.00  0.00    +0.000 A 
ATOM      6  C   UNL     1      -2.803  10.100  16.877  0.00  0.00    +0.000 A 
ATOM      7  C   UNL     1       0.608  10.737  18.600  0.00  0.00    +0.000 C 
ATOM      8  N   UNL     1       1.037  12.063  19.147  0.00  0.00    +0.000 N 
ATOM      9  C   UNL     1       2.248  12.591  18.653  0.00  0.00    +0.000 C 
ATOM     10  O   UNL     1       2.919  12.003  17.801  0.00  0.00    +0.000 OA
ATOM     11  C   UNL     1       0.029  12.862  19.862  0.00  0.00    +0.000 C 
ATOM     12  C   UNL     1      -1.189  12.077  20.344  0.00  0.00    +0.000 C 
ENDROOT
BRANCH   9  13
ATOM     13  C   UNL     1       2.769  13.930  19.077  0.00  0.00    +0.000 A 
ATOM     14  C   UNL     1       3.286  14.200  20.341  0.00  0.00    +0.000 A 
ATOM     15  C   UNL     1       3.734  15.484  20.615  0.00  0.00    +0.000 A 
ATOM     16  N   UNL     1       3.773  16.479  19.706  0.00  0.00    +0.000 NA
ATOM     17  C   UNL     1       3.353  16.174  18.462  0.00  0.00    +0.000 A 
ATOM     18  C   UNL     1       2.839  14.939  18.106  0.00  0.00    +0.000 A 
ENDBRANCH   9  13
BRANCH   1  20
ATOM     19  C   UNL     1      -5.540  12.090  17.363  0.00  0.00    +0.000 C 
ATOM     20  O   UNL     1      -5.037  10.809  17.720  0.00  0.00    +0.000 OA
ENDBRANCH   1  20
BRANCH   6  21
ATOM     21  O   UNL     1      -3.376   9.580  15.748  0.00  0.00    +0.000 OA
ATOM     22  C   UNL     1      -3.268  10.306  14.535  0.00  0.00    +0.000 C 
ENDBRANCH   6  21
BRANCH   7  23
ATOM     23  C   UNL     1       0.928   9.548  19.557  0.00  0.00    +0.000 C 
BRANCH  23  24
ATOM     24  C   UNL     1       1.821   8.486  18.986  0.00  0.00    +0.000 A 
ATOM     25  C   UNL     1       2.571   8.577  17.829  0.00  0.00    +0.000 A 
ATOM     26  N   UNL     1       3.288   7.418  17.690  0.00  0.00    +0.000 N 
ATOM     27  C   UNL     1       3.008   6.555  18.723  0.00  0.00    +0.000 A 
ATOM     28  C   UNL     1       3.533   5.289  19.008  0.00  0.00    +0.000 A 
ATOM     29  C   UNL     1       3.035   4.618  20.128  0.00  0.00    +0.000 A 
ATOM     30  C   UNL     1       2.034   5.184  20.915  0.00  0.00    +0.000 A 
ATOM     31  C   UNL     1       1.532   6.457  20.622  0.00  0.00    +0.000 A 
ATOM     32  C   UNL     1       2.044   7.172  19.520  0.00  0.00    +0.000 A 
ATOM     33  H   UNL     1       3.936   7.222  16.940  0.00  0.00    +0.000 HD
ENDBRANCH  23  24
ENDBRANCH   7  23
TORSDOF 5
ENDMDL
MODEL 2
REMARK VINA RESULT:      -7.6      1.512      2.183
REMARK  Name = 
REMARK  7 active torsions:
REMARK  status: ('A' for Active; 'I' for Inactive)
REMARK    1  A    between atoms: C_1  and  O_2
REMARK    2  A    between atoms: O_2  and  C_3
REMARK    3  A    between atoms: C_8  and  O_9
REMARK    4  A    between atoms: O_9  and  C_10
REMARK    5  A    between atoms: C_11  and  C_12
REMARK    6  A    between atoms: C_12  and  C_13
REMARK    7  A    between atoms: C_23  and  C_25
REMARK                            x       y       z     vdW  Elec       q    Type
REMARK                         _______ _______ _______ _____ _____    ______ ____
ROOT
ATOM      1  C   UNL     1      -4.008  11.161  17.860  0.00  0.00    +0.000 A 
ATOM      2  C   UNL     1      -3.799  12.124  18.850  0.00  0.00    +0.000 A 
ATOM      3  C   UNL     1      -2.537  12.313  19.409  0.00  0.00    +0.000 A 
ATOM      4  C   UNL     1      -1.460  11.517  19.004  0.00  0.00    +0.000 A 
ATOM      5  C   UNL     1      -1.664  10.555  17.996  0.00  0.00    +0.000 A 
ATOM      6  C   UNL     1      -2.931  10.383  17.406  0.00  0.00    +0.000 A 
ATOM      7  C   UNL     1      -0.099  11.710  19.693  0.00  0.00    +0.000 C 
ATOM      8  N   UNL     1       0.191  13.162  19.913  0.00  0.00    +0.000 N 
ATOM      9  C   UNL     1       1.500  13.599  19.620  0.00  0.00    +0.000 C 
ATOM     10  O   UNL     1       2.364  12.830  19.191  0.00  0.00    +0.000 OA
ATOM     11  C   UNL     1      -0.958  14.070  20.066  0.00  0.00    +0.000 C 
ATOM     12  C   UNL     1      -2.275  13.384  20.422  0.00  0.00    +0.000 C 
ENDROOT
BRANCH   9  13
ATOM     13  C   UNL     1       1.913  15.033  19.747  0.00  0.00    +0.000 A 
ATOM     14  C   UNL     1       2.036  15.703  20.961  0.00  0.00    +0.000 A 
ATOM     15  C   UNL     1       2.421  17.036  20.948  0.00  0.00    +0.000 A 
ATOM     16  N   UNL     1       2.763  17.711  19.831  0.00  0.00    +0.000 NA
ATOM     17  C   UNL     1       2.725  17.020  18.676  0.00  0.00    +0.000 A 
ATOM     18  C   UNL     1       2.302  15.704  18.581  0.00  0.00    +0.000 A 
ENDBRANCH   9  13
BRANCH   1  20
ATOM     19  C   UNL     1      -6.326  10.879  18.318  0.00  0.00    +0.000 C 
ATOM     20  O   UNL     1      -5.295  11.165  17.381  0.00  0.00    +0.000 OA
ENDBRANCH   1  20
BRANCH   6  21
ATOM     21  O   UNL     1      -3.187   9.521  16.375  0.00  0.00    +0.000 OA
ATOM     22  C   UNL     1      -2.987   9.972  15.045  0.00  0.00    +0.000 C 
ENDBRANCH   6  21
BRANCH   7  23
ATOM     23  C   UNL     1      -0.071  10.875  21.010  0.00  0.00    +0.000 C 
BRANCH  23  24
ATOM     24  C   UNL     1       0.722   9.603  20.949  0.00  0.00    +0.000 A 
ATOM     25  C   UNL     1       0.984   8.745  22.001  0.00  0.00    +0.000 A 
ATOM     26  N   UNL     1       1.690   7.676  21.519  0.00  0.00    +0.000 N 
ATOM     27  C   UNL     1       1.919   7.823  20.171  0.00  0.00    +0.000 A 
ATOM     28  C   UNL     1       2.557   6.967  19.265  0.00  0.00    +0.000 A 
ATOM     29  C   UNL     1       2.671   7.394  17.940  0.00  0.00    +0.000 A 
ATOM     30  C   UNL     1       2.187   8.638  17.545  0.00  0.00    +0.000 A 
ATOM     31  C   UNL     1       1.540   9.475  18.461  0.00  0.00    +0.000 A 
ATOM     32  C   UNL     1       1.377   9.053  19.796  0.00  0.00    +0.000 A 
ATOM     33  H   UNL     1       1.998   6.887  22.069  0.00  0.00    +0.000 HD
ENDBRANCH  23  24
ENDBRANCH   7  23
TORSDOF 5
ENDMDL
MODEL 3
REMARK VINA RESULT:      -7.6      3.418      6.484
REMARK  Name = 
REMARK  7 active torsions:
REMARK  status: ('A' for Active; 'I' for Inactive)
REMARK    1  A    between atoms: C_1  and  O_2
REMARK    2  A    between atoms: O_2  and  C_3
REMARK    3  A    between atoms: C_8  and  O_9
REMARK    4  A    between atoms: O_9  and  C_10
REMARK    5  A    between atoms: C_11  and  C_12
REMARK    6  A    between atoms: C_12  and  C_13
REMARK    7  A    between atoms: C_23  and  C_25
REMARK                            x       y       z     vdW  Elec       q    Type
REMARK                         _______ _______ _______ _____ _____    ______ ____
ROOT
ATOM      1  C   UNL     1       1.505   3.487  20.028  0.00  0.00    +0.000 A 
ATOM      2  C   UNL     1       1.654   4.611  20.843  0.00  0.00    +0.000 A 
ATOM      3  C   UNL     1       2.016   5.844  20.303  0.00  0.00    +0.000 A 
ATOM      4  C   UNL     1       2.263   5.967  18.931  0.00  0.00    +0.000 A 
ATOM      5  C   UNL     1       2.098   4.839  18.104  0.00  0.00    +0.000 A 
ATOM      6  C   UNL     1       1.702   3.600  18.642  0.00  0.00    +0.000 A 
ATOM      7  C   UNL     1       2.726   7.327  18.384  0.00  0.00    +0.000 C 
ATOM      8  N   UNL     1       1.976   8.450  19.030  0.00  0.00    +0.000 N 
ATOM      9  C   UNL     1       1.528   9.485  18.181  0.00  0.00    +0.000 C 
ATOM     10  O   UNL     1       1.729   9.465  16.965  0.00  0.00    +0.000 OA
ATOM     11  C   UNL     1       1.461   8.230  20.391  0.00  0.00    +0.000 C 
ATOM     12  C   UNL     1       2.117   7.077  21.147  0.00  0.00    +0.000 C 
ENDROOT
BRANCH   9  13
ATOM     13  C   UNL     1       0.724  10.643  18.687  0.00  0.00    +0.000 A 
ATOM     14  C   UNL     1       1.278  11.808  19.208  0.00  0.00    +0.000 A 
ATOM     15  C   UNL     1       0.427  12.810  19.650  0.00  0.00    +0.000 A 
ATOM     16  N   UNL     1      -0.917  12.761  19.536  0.00  0.00    +0.000 NA
ATOM     17  C   UNL     1      -1.431  11.665  18.947  0.00  0.00    +0.000 A 
ATOM     18  C   UNL     1      -0.667  10.590  18.523  0.00  0.00    +0.000 A 
ENDBRANCH   9  13
BRANCH   1  20
ATOM     19  C   UNL     1       1.512   2.271  22.073  0.00  0.00    +0.000 C 
ATOM     20  O   UNL     1       1.079   2.382  20.723  0.00  0.00    +0.000 OA
ENDBRANCH   1  20
BRANCH   6  21
ATOM     21  O   UNL     1       1.453   2.482  17.893  0.00  0.00    +0.000 OA
ATOM     22  C   UNL     1       2.551   1.772  17.345  0.00  0.00    +0.000 C 
ENDBRANCH   6  21
BRANCH   7  23
ATOM     23  C   UNL     1       4.272   7.446  18.556  0.00  0.00    +0.000 C 
BRANCH  23  24
ATOM     24  C   UNL     1       5.053   6.209  18.225  0.00  0.00    +0.000 A 
ATOM     25  C   UNL     1       5.618   5.328  19.128  0.00  0.00    +0.000 A 
ATOM     26  N   UNL     1       6.193   4.303  18.425  0.00  0.00    +0.000 N 
ATOM     27  C   UNL     1       6.037   4.502  17.074  0.00  0.00    +0.000 A 
ATOM     28  C   UNL     1       6.424   3.701  15.993  0.00  0.00    +0.000 A 
ATOM     29  C   UNL     1       6.156   4.176  14.706  0.00  0.00    +0.000 A 
ATOM     30  C   UNL     1       5.547   5.413  14.512  0.00  0.00    +0.000 A 
ATOM     31  C   UNL     1       5.155   6.193  15.605  0.00  0.00    +0.000 A 
ATOM     32  C   UNL     1       5.379   5.722  16.915  0.00  0.00    +0.000 A 
ATOM     33  H   UNL     1       6.663   3.508  18.836  0.00  0.00    +0.000 HD
ENDBRANCH  23  24
ENDBRANCH   7  23
TORSDOF 5
ENDMDL
MODEL 4
REMARK VINA RESULT:      -7.2      2.036      6.493
REMARK  Name = 
REMARK  7 active torsions:
REMARK  status: ('A' for Active; 'I' for Inactive)
REMARK    1  A    between atoms: C_1  and  O_2
REMARK    2  A    between atoms: O_2  and  C_3
REMARK    3  A    between atoms: C_8  and  O_9
REMARK    4  A    between atoms: O_9  and  C_10
REMARK    5  A    between atoms: C_11  and  C_12
REMARK    6  A    between atoms: C_12  and  C_13
REMARK    7  A    between atoms: C_23  and  C_25
REMARK                            x       y       z     vdW  Elec       q    Type
REMARK                         _______ _______ _______ _____ _____    ______ ____
ROOT
ATOM      1  C   UNL     1      -5.296  12.081  19.362  0.00  0.00    +0.000 A 
ATOM      2  C   UNL     1      -4.558  11.433  18.370  0.00  0.00    +0.000 A 
ATOM      3  C   UNL     1      -3.166  11.497  18.356  0.00  0.00    +0.000 A 
ATOM      4  C   UNL     1      -2.485  12.241  19.326  0.00  0.00    +0.000 A 
ATOM      5  C   UNL     1      -3.225  12.883  20.337  0.00  0.00    +0.000 A 
ATOM      6  C   UNL     1      -4.630  12.794  20.373  0.00  0.00    +0.000 A 
ATOM      7  C   UNL     1      -0.954  12.344  19.236  0.00  0.00    +0.000 C 
ATOM      8  N   UNL     1      -0.347  11.028  18.857  0.00  0.00    +0.000 N 
ATOM      9  C   UNL     1       0.807  10.634  19.565  0.00  0.00    +0.000 C 
ATOM     10  O   UNL     1       1.291  11.327  20.463  0.00  0.00    +0.000 OA
ATOM     11  C   UNL     1      -1.170  10.106  18.057  0.00  0.00    +0.000 C 
ATOM     12  C   UNL     1      -2.352  10.756  17.341  0.00  0.00    +0.000 C 
ENDROOT
BRANCH   9  13
ATOM     13  C   UNL     1       1.485   9.321  19.322  0.00  0.00    +0.000 A 
ATOM     14  C   UNL     1       1.485   8.264  20.228  0.00  0.00    +0.000 A 
ATOM     15  C   UNL     1       2.154   7.098  19.889  0.00  0.00    +0.000 A 
ATOM     16  N   UNL     1       2.749   6.889  18.696  0.00  0.00    +0.000 NA
ATOM     17  C   UNL     1       2.662   7.889  17.798  0.00  0.00    +0.000 A 
ATOM     18  C   UNL     1       2.062   9.109  18.062  0.00  0.00    +0.000 A 
ENDBRANCH   9  13
BRANCH   1  20
ATOM     19  C   UNL     1      -7.134  10.644  19.828  0.00  0.00    +0.000 C 
ATOM     20  O   UNL     1      -6.646  11.851  19.256  0.00  0.00    +0.000 OA
ENDBRANCH   1  20
BRANCH   6  21
ATOM     21  O   UNL     1      -5.408  13.330  21.362  0.00  0.00    +0.000 OA
ATOM     22  C   UNL     1      -5.114  13.007  22.711  0.00  0.00    +0.000 C 
ENDBRANCH   6  21
BRANCH   7  23
ATOM     23  C   UNL     1      -0.577  13.496  18.255  0.00  0.00    +0.000 C 
BRANCH  23  24
ATOM     24  C   UNL     1       0.250  14.600  18.847  0.00  0.00    +0.000 A 
ATOM     25  C   UNL     1      -0.221  15.691  19.554  0.00  0.00    +0.000 A 
ATOM     26  N   UNL     1       0.854  16.430  19.969  0.00  0.00    +0.000 N 
ATOM     27  C   UNL     1       2.025  15.859  19.531  0.00  0.00    +0.000 A 
ATOM     28  C   UNL     1       3.354  16.242  19.750  0.00  0.00    +0.000 A 
ATOM     29  C   UNL     1       4.357  15.478  19.149  0.00  0.00    +0.000 A 
ATOM     30  C   UNL     1       4.040  14.388  18.343  0.00  0.00    +0.000 A 
ATOM     31  C   UNL     1       2.707  14.011  18.147  0.00  0.00    +0.000 A 
ATOM     32  C   UNL     1       1.676  14.742  18.772  0.00  0.00    +0.000 A 
ATOM     33  H   UNL     1       0.801  17.273  20.523  0.00  0.00    +0.000 HD
ENDBRANCH  23  24
ENDBRANCH   7  23
TORSDOF 5
ENDMDL
MODEL 5
REMARK VINA RESULT:      -7.1      3.941      6.681
REMARK  Name = 
REMARK  7 active torsions:
REMARK  status: ('A' for Active; 'I' for Inactive)
REMARK    1  A    between atoms: C_1  and  O_2
REMARK    2  A    between atoms: O_2  and  C_3
REMARK    3  A    between atoms: C_8  and  O_9
REMARK    4  A    between atoms: O_9  and  C_10
REMARK    5  A    between atoms: C_11  and  C_12
REMARK    6  A    between atoms: C_12  and  C_13
REMARK    7  A    between atoms: C_23  and  C_25
REMARK                            x       y       z     vdW  Elec       q    Type
REMARK                         _______ _______ _______ _____ _____    ______ ____
ROOT
ATOM      1  C   UNL     1       4.941   6.633  17.022  0.00  0.00    +0.000 A 
ATOM      2  C   UNL     1       3.699   7.239  16.820  0.00  0.00    +0.000 A 
ATOM      3  C   UNL     1       2.820   7.441  17.882  0.00  0.00    +0.000 A 
ATOM      4  C   UNL     1       3.159   7.010  19.170  0.00  0.00    +0.000 A 
ATOM      5  C   UNL     1       4.416   6.413  19.380  0.00  0.00    +0.000 A 
ATOM      6  C   UNL     1       5.321   6.236  18.315  0.00  0.00    +0.000 A 
ATOM      7  C   UNL     1       2.134   7.189  20.302  0.00  0.00    +0.000 C 
ATOM      8  N   UNL     1       1.447   8.515  20.202  0.00  0.00    +0.000 N 
ATOM      9  C   UNL     1       1.277   9.234  21.404  0.00  0.00    +0.000 C 
ATOM     10  O   UNL     1       1.683   8.803  22.486  0.00  0.00    +0.000 OA
ATOM     11  C   UNL     1       1.328   9.120  18.865  0.00  0.00    +0.000 C 
ATOM     12  C   UNL     1       1.512   8.148  17.702  0.00  0.00    +0.000 C 
ENDROOT
BRANCH   9  13
ATOM     13  C   UNL     1       0.652  10.594  21.441  0.00  0.00    +0.000 A 
ATOM     14  C   UNL     1      -0.497  10.904  22.163  0.00  0.00    +0.000 A 
ATOM     15  C   UNL     1      -0.983  12.203  22.114  0.00  0.00    +0.000 A 
ATOM     16  N   UNL     1      -0.368  13.214  21.468  0.00  0.00    +0.000 NA
ATOM     17  C   UNL     1       0.791  12.915  20.849  0.00  0.00    +0.000 A 
ATOM     18  C   UNL     1       1.328  11.639  20.797  0.00  0.00    +0.000 A 
ENDBRANCH   9  13
BRANCH   1  20
ATOM     19  C   UNL     1       5.616   5.385  15.113  0.00  0.00    +0.000 C 
ATOM     20  O   UNL     1       5.697   6.581  15.878  0.00  0.00    +0.000 OA
ENDBRANCH   1  20
BRANCH   6  21
ATOM     21  O   UNL     1       6.584   5.731  18.456  0.00  0.00    +0.000 OA
ATOM     22  C   UNL     1       7.680   6.630  18.463  0.00  0.00    +0.000 C 
ENDBRANCH   6  21
BRANCH   7  23
ATOM     23  C   UNL     1       1.142   5.985  20.287  0.00  0.00    +0.000 C 
BRANCH  23  24
ATOM     24  C   UNL     1       1.777   4.628  20.369  0.00  0.00    +0.000 A 
ATOM     25  C   UNL     1       2.089   3.935  21.523  0.00  0.00    +0.000 A 
ATOM     26  N   UNL     1       2.601   2.715  21.167  0.00  0.00    +0.000 N 
ATOM     27  C   UNL     1       2.652   2.599  19.798  0.00  0.00    +0.000 A 
ATOM     28  C   UNL     1       3.059   1.525  18.998  0.00  0.00    +0.000 A 
ATOM     29  C   UNL     1       3.031   1.702  17.612  0.00  0.00    +0.000 A 
ATOM     30  C   UNL     1       2.634   2.914  17.053  0.00  0.00    +0.000 A 
ATOM     31  C   UNL     1       2.217   3.972  17.868  0.00  0.00    +0.000 A 
ATOM     32  C   UNL     1       2.199   3.808  19.269  0.00  0.00    +0.000 A 
ATOM     33  H   UNL     1       2.895   1.997  21.814  0.00  0.00    +0.000 HD
ENDBRANCH  23  24
ENDBRANCH   7  23
TORSDOF 5
ENDMDL
MODEL 6
REMARK VINA RESULT:      -7.1      3.326      6.345
REMARK  Name = 
REMARK  7 active torsions:
REMARK  status: ('A' for Active; 'I' for Inactive)
REMARK    1  A    between atoms: C_1  and  O_2
REMARK    2  A    between atoms: O_2  and  C_3
REMARK    3  A    between atoms: C_8  and  O_9
REMARK    4  A    between atoms: O_9  and  C_10
REMARK    5  A    between atoms: C_11  and  C_12
REMARK    6  A    between atoms: C_12  and  C_13
REMARK    7  A    between atoms: C_23  and  C_25
REMARK                            x       y       z     vdW  Elec       q    Type
REMARK                         _______ _______ _______ _____ _____    ______ ____
ROOT
ATOM      1  C   UNL     1       1.748   3.748  20.052  0.00  0.00    +0.000 A 
ATOM      2  C   UNL     1       1.890   4.887  20.848  0.00  0.00    +0.000 A 
ATOM      3  C   UNL     1       2.027   6.149  20.274  0.00  0.00    +0.000 A 
ATOM      4  C   UNL     1       2.053   6.291  18.882  0.00  0.00    +0.000 A 
ATOM      5  C   UNL     1       1.896   5.147  18.076  0.00  0.00    +0.000 A 
ATOM      6  C   UNL     1       1.725   3.874  18.653  0.00  0.00    +0.000 A 
ATOM      7  C   UNL     1       2.275   7.691  18.287  0.00  0.00    +0.000 C 
ATOM      8  N   UNL     1       1.507   8.727  19.048  0.00  0.00    +0.000 N 
ATOM      9  C   UNL     1       0.826   9.699  18.286  0.00  0.00    +0.000 C 
ATOM     10  O   UNL     1       0.846   9.695  17.053  0.00  0.00    +0.000 OA
ATOM     11  C   UNL     1       1.227   8.458  20.468  0.00  0.00    +0.000 C 
ATOM     12  C   UNL     1       2.113   7.390  21.107  0.00  0.00    +0.000 C 
ENDROOT
BRANCH   9  13
ATOM     13  C   UNL     1      -0.020  10.762  18.917  0.00  0.00    +0.000 A 
ATOM     14  C   UNL     1       0.491  11.839  19.637  0.00  0.00    +0.000 A 
ATOM     15  C   UNL     1      -0.397  12.757  20.179  0.00  0.00    +0.000 A 
ATOM     16  N   UNL     1      -1.732  12.718  19.989  0.00  0.00    +0.000 NA
ATOM     17  C   UNL     1      -2.199  11.720  19.214  0.00  0.00    +0.000 A 
ATOM     18  C   UNL     1      -1.399  10.726  18.675  0.00  0.00    +0.000 A 
ENDBRANCH   9  13
BRANCH   1  20
ATOM     19  C   UNL     1       2.621   2.215  21.648  0.00  0.00    +0.000 C 
ATOM     20  O   UNL     1       1.557   2.606  20.790  0.00  0.00    +0.000 OA
ENDBRANCH   1  20
BRANCH   6  21
ATOM     21  O   UNL     1       1.495   2.731  17.938  0.00  0.00    +0.000 OA
ATOM     22  C   UNL     1       2.604   1.940  17.544  0.00  0.00    +0.000 C 
ENDBRANCH   6  21
BRANCH   7  23
ATOM     23  C   UNL     1       3.806   7.985  18.230  0.00  0.00    +0.000 C 
BRANCH  23  24
ATOM     24  C   UNL     1       4.587   7.140  17.266  0.00  0.00    +0.000 A 
ATOM     25  C   UNL     1       4.438   7.110  15.892  0.00  0.00    +0.000 A 
ATOM     26  N   UNL     1       5.375   6.254  15.377  0.00  0.00    +0.000 N 
ATOM     27  C   UNL     1       6.126   5.703  16.388  0.00  0.00    +0.000 A 
ATOM     28  C   UNL     1       7.210   4.819  16.328  0.00  0.00    +0.000 A 
ATOM     29  C   UNL     1       7.770   4.397  17.537  0.00  0.00    +0.000 A 
ATOM     30  C   UNL     1       7.250   4.826  18.755  0.00  0.00    +0.000 A 
ATOM     31  C   UNL     1       6.175   5.721  18.795  0.00  0.00    +0.000 A 
ATOM     32  C   UNL     1       5.615   6.193  17.590  0.00  0.00    +0.000 A 
ATOM     33  H   UNL     1       5.504   6.057  14.395  0.00  0.00    +0.000 HD
ENDBRANCH  23  24
ENDBRANCH   7  23
TORSDOF 5
ENDMDL
MODEL 7
REMARK VINA RESULT:      -7.1      1.285      1.343
REMARK  Name = 
REMARK  7 active torsions:
REMARK  status: ('A' for Active; 'I' for Inactive)
REMARK    1  A    between atoms: C_1  and  O_2
REMARK    2  A    between atoms: O_2  and  C_3
REMARK    3  A    between atoms: C_8  and  O_9
REMARK    4  A    between atoms: O_9  and  C_10
REMARK    5  A    between atoms: C_11  and  C_12
REMARK    6  A    between atoms: C_12  and  C_13
REMARK    7  A    between atoms: C_23  and  C_25
REMARK                            x       y       z     vdW  Elec       q    Type
REMARK                         _______ _______ _______ _____ _____    ______ ____
ROOT
ATOM      1  C   UNL     1      -4.150  11.518  17.683  0.00  0.00    +0.000 A 
ATOM      2  C   UNL     1      -3.802  11.905  18.979  0.00  0.00    +0.000 A 
ATOM      3  C   UNL     1      -2.468  11.943  19.381  0.00  0.00    +0.000 A 
ATOM      4  C   UNL     1      -1.453  11.564  18.495  0.00  0.00    +0.000 A 
ATOM      5  C   UNL     1      -1.799  11.187  17.183  0.00  0.00    +0.000 A 
ATOM      6  C   UNL     1      -3.144  11.179  16.763  0.00  0.00    +0.000 A 
ATOM      7  C   UNL     1      -0.000  11.553  18.997  0.00  0.00    +0.000 C 
ATOM      8  N   UNL     1       0.279  12.744  19.859  0.00  0.00    +0.000 N 
ATOM      9  C   UNL     1       1.504  13.411  19.644  0.00  0.00    +0.000 C 
ATOM     10  O   UNL     1       2.303  13.044  18.779  0.00  0.00    +0.000 OA
ATOM     11  C   UNL     1      -0.853  13.333  20.593  0.00  0.00    +0.000 C 
ATOM     12  C   UNL     1      -2.067  12.419  20.743  0.00  0.00    +0.000 C 
ENDROOT
BRANCH   9  13
ATOM     13  C   UNL     1       1.888  14.644  20.401  0.00  0.00    +0.000 A 
ATOM     14  C   UNL     1       2.448  14.633  21.675  0.00  0.00    +0.000 A 
ATOM     15  C   UNL     1       2.757  15.845  22.276  0.00  0.00    +0.000 A 
ATOM     16  N   UNL     1       2.620  17.043  21.671  0.00  0.00    +0.000 NA
ATOM     17  C   UNL     1       2.160  17.028  20.405  0.00  0.00    +0.000 A 
ATOM     18  C   UNL     1       1.775  15.875  19.741  0.00  0.00    +0.000 A 
ENDBRANCH   9  13
BRANCH   1  20
ATOM     19  C   UNL     1      -6.359  11.268  18.528  0.00  0.00    +0.000 C 
ATOM     20  O   UNL     1      -5.499  11.607  17.448  0.00  0.00    +0.000 OA
ENDBRANCH   1  20
BRANCH   6  21
ATOM     21  O   UNL     1      -3.548  10.894  15.488  0.00  0.00    +0.000 OA
ATOM     22  C   UNL     1      -2.972   9.782  14.823  0.00  0.00    +0.000 C 
ENDBRANCH   6  21
BRANCH   7  23
ATOM     23  C   UNL     1       0.281  10.198  19.716  0.00  0.00    +0.000 C 
BRANCH  23  24
ATOM     24  C   UNL     1       1.242   9.285  19.014  0.00  0.00    +0.000 A 
ATOM     25  C   UNL     1       1.880   9.529  17.813  0.00  0.00    +0.000 A 
ATOM     26  N   UNL     1       2.714   8.476  17.546  0.00  0.00    +0.000 N 
ATOM     27  C   UNL     1       2.621   7.530  18.539  0.00  0.00    +0.000 A 
ATOM     28  C   UNL     1       3.312   6.323  18.703  0.00  0.00    +0.000 A 
ATOM     29  C   UNL     1       2.987   5.536  19.812  0.00  0.00    +0.000 A 
ATOM     30  C   UNL     1       1.995   5.932  20.705  0.00  0.00    +0.000 A 
ATOM     31  C   UNL     1       1.326   7.149  20.533  0.00  0.00    +0.000 A 
ATOM     32  C   UNL     1       1.659   7.981  19.444  0.00  0.00    +0.000 A 
ATOM     33  H   UNL     1       3.317   8.402  16.739  0.00  0.00    +0.000 HD
ENDBRANCH  23  24
ENDBRANCH   7  23
TORSDOF 5
ENDMDL
MODEL 8
REMARK VINA RESULT:      -7.0      2.729      7.271
REMARK  Name = 
REMARK  7 active torsions:
REMARK  status: ('A' for Active; 'I' for Inactive)
REMARK    1  A    between atoms: C_1  and  O_2
REMARK    2  A    between atoms: O_2  and  C_3
REMARK    3  A    between atoms: C_8  and  O_9
REMARK    4  A    between atoms: O_9  and  C_10
REMARK    5  A    between atoms: C_11  and  C_12
REMARK    6  A    between atoms: C_12  and  C_13
REMARK    7  A    between atoms: C_23  and  C_25
REMARK                            x       y       z     vdW  Elec       q    Type
REMARK                         _______ _______ _______ _____ _____    ______ ____
ROOT
ATOM      1  C   UNL     1       2.284   7.066  19.727  0.00  0.00    +0.000 A 
ATOM      2  C   UNL     1       1.584   7.787  20.696  0.00  0.00    +0.000 A 
ATOM      3  C   UNL     1       1.051   9.042  20.409  0.00  0.00    +0.000 A 
ATOM      4  C   UNL     1       1.235   9.613  19.145  0.00  0.00    +0.000 A 
ATOM      5  C   UNL     1       1.927   8.883  18.160  0.00  0.00    +0.000 A 
ATOM      6  C   UNL     1       2.439   7.600  18.437  0.00  0.00    +0.000 A 
ATOM      7  C   UNL     1       0.690  11.028  18.889  0.00  0.00    +0.000 C 
ATOM      8  N   UNL     1      -0.660  11.206  19.511  0.00  0.00    +0.000 N 
ATOM      9  C   UNL     1      -1.635  11.866  18.734  0.00  0.00    +0.000 C 
ATOM     10  O   UNL     1      -1.398  12.267  17.592  0.00  0.00    +0.000 OA
ATOM     11  C   UNL     1      -0.974  10.394  20.698  0.00  0.00    +0.000 C 
ATOM     12  C   UNL     1       0.240   9.803  21.412  0.00  0.00    +0.000 C 
ENDROOT
BRANCH   9  13
ATOM     13  C   UNL     1      -3.039  12.067  19.213  0.00  0.00    +0.000 A 
ATOM     14  C   UNL     1      -3.383  12.857  20.306  0.00  0.00    +0.000 A 
ATOM     15  C   UNL     1      -4.722  12.961  20.657  0.00  0.00    +0.000 A 
ATOM     16  N   UNL     1      -5.730  12.403  19.955  0.00  0.00    +0.000 NA
ATOM     17  C   UNL     1      -5.384  11.717  18.848  0.00  0.00    +0.000 A 
ATOM     18  C   UNL     1      -4.074  11.513  18.448  0.00  0.00    +0.000 A 
ENDBRANCH   9  13
BRANCH   1  20
ATOM     19  C   UNL     1       1.638   4.909  20.496  0.00  0.00    +0.000 C 
ATOM     20  O   UNL     1       2.675   5.826  20.168  0.00  0.00    +0.000 OA
ENDBRANCH   1  20
BRANCH   6  21
ATOM     21  O   UNL     1       3.058   6.805  17.512  0.00  0.00    +0.000 OA
ATOM     22  C   UNL     1       4.465   6.897  17.367  0.00  0.00    +0.000 C 
ENDBRANCH   6  21
BRANCH   7  23
ATOM     23  C   UNL     1       1.735  12.074  19.385  0.00  0.00    +0.000 C 
BRANCH  23  24
ATOM     24  C   UNL     1       1.230  13.482  19.501  0.00  0.00    +0.000 A 
ATOM     25  C   UNL     1       1.359  14.482  18.555  0.00  0.00    +0.000 A 
ATOM     26  N   UNL     1       0.716  15.599  19.019  0.00  0.00    +0.000 N 
ATOM     27  C   UNL     1       0.182  15.360  20.263  0.00  0.00    +0.000 A 
ATOM     28  C   UNL     1      -0.586  16.189  21.090  0.00  0.00    +0.000 A 
ATOM     29  C   UNL     1      -0.974  15.685  22.334  0.00  0.00    +0.000 A 
ATOM     30  C   UNL     1      -0.588  14.410  22.741  0.00  0.00    +0.000 A 
ATOM     31  C   UNL     1       0.167  13.590  21.895  0.00  0.00    +0.000 A 
ATOM     32  C   UNL     1       0.540  14.060  20.619  0.00  0.00    +0.000 A 
ATOM     33  H   UNL     1       0.637  16.473  18.520  0.00  0.00    +0.000 HD
ENDBRANCH  23  24
ENDBRANCH   7  23
TORSDOF 5
ENDMDL
MODEL 9
REMARK VINA RESULT:      -7.0      2.570      7.308
REMARK  Name = 
REMARK  7 active torsions:
REMARK  status: ('A' for Active; 'I' for Inactive)
REMARK    1  A    between atoms: C_1  and  O_2
REMARK    2  A    between atoms: O_2  and  C_3
REMARK    3  A    between atoms: C_8  and  O_9
REMARK    4  A    between atoms: O_9  and  C_10
REMARK    5  A    between atoms: C_11  and  C_12
REMARK    6  A    between atoms: C_12  and  C_13
REMARK    7  A    between atoms: C_23  and  C_25
REMARK                            x       y       z     vdW  Elec       q    Type
REMARK                         _______ _______ _______ _____ _____    ______ ____
ROOT
ATOM      1  C   UNL     1       2.337   7.025  19.507  0.00  0.00    +0.000 A 
ATOM      2  C   UNL     1       1.604   7.637  20.527  0.00  0.00    +0.000 A 
ATOM      3  C   UNL     1       1.124   8.937  20.382  0.00  0.00    +0.000 A 
ATOM      4  C   UNL     1       1.396   9.664  19.218  0.00  0.00    +0.000 A 
ATOM      5  C   UNL     1       2.121   9.046  18.182  0.00  0.00    +0.000 A 
ATOM      6  C   UNL     1       2.580   7.720  18.311  0.00  0.00    +0.000 A 
ATOM      7  C   UNL     1       0.908  11.119  19.125  0.00  0.00    +0.000 C 
ATOM      8  N   UNL     1      -0.470  11.261  19.694  0.00  0.00    +0.000 N 
ATOM      9  C   UNL     1      -1.380  12.053  18.962  0.00  0.00    +0.000 C 
ATOM     10  O   UNL     1      -1.067  12.593  17.898  0.00  0.00    +0.000 OA
ATOM     11  C   UNL     1      -0.874  10.311  20.743  0.00  0.00    +0.000 C 
ATOM     12  C   UNL     1       0.280   9.588  21.434  0.00  0.00    +0.000 C 
ENDROOT
BRANCH   9  13
ATOM     13  C   UNL     1      -2.803  12.239  19.390  0.00  0.00    +0.000 A 
ATOM     14  C   UNL     1      -3.196  13.029  20.466  0.00  0.00    +0.000 A 
ATOM     15  C   UNL     1      -4.547  13.118  20.768  0.00  0.00    +0.000 A 
ATOM     16  N   UNL     1      -5.523  12.545  20.032  0.00  0.00    +0.000 NA
ATOM     17  C   UNL     1      -5.129  11.859  18.942  0.00  0.00    +0.000 A 
ATOM     18  C   UNL     1      -3.803  11.670  18.590  0.00  0.00    +0.000 A 
ENDBRANCH   9  13
BRANCH   1  20
ATOM     19  C   UNL     1       1.830   5.047  20.727  0.00  0.00    +0.000 C 
ATOM     20  O   UNL     1       2.666   5.725  19.798  0.00  0.00    +0.000 OA
ENDBRANCH   1  20
BRANCH   6  21
ATOM     21  O   UNL     1       3.228   7.032  17.322  0.00  0.00    +0.000 OA
ATOM     22  C   UNL     1       4.642   6.948  17.364  0.00  0.00    +0.000 C 
ENDBRANCH   6  21
BRANCH   7  23
ATOM     23  C   UNL     1       1.952  12.052  19.812  0.00  0.00    +0.000 C 
BRANCH  23  24
ATOM     24  C   UNL     1       2.233  13.340  19.095  0.00  0.00    +0.000 A 
ATOM     25  C   UNL     1       3.230  13.562  18.164  0.00  0.00    +0.000 A 
ATOM     26  N   UNL     1       3.114  14.848  17.708  0.00  0.00    +0.000 N 
ATOM     27  C   UNL     1       2.071  15.485  18.337  0.00  0.00    +0.000 A 
ATOM     28  C   UNL     1       1.564  16.778  18.159  0.00  0.00    +0.000 A 
ATOM     29  C   UNL     1       0.497  17.174  18.969  0.00  0.00    +0.000 A 
ATOM     30  C   UNL     1      -0.025  16.317  19.934  0.00  0.00    +0.000 A 
ATOM     31  C   UNL     1       0.485  15.023  20.089  0.00  0.00    +0.000 A 
ATOM     32  C   UNL     1       1.537  14.584  19.258  0.00  0.00    +0.000 A 
ATOM     33  H   UNL     1       3.704  15.271  17.006  0.00  0.00    +0.000 HD
ENDBRANCH  23  24
ENDBRANCH   7  23
TORSDOF 5
ENDMDL
