MODEL 1
REMARK VINA RESULT:      -7.7      0.000      0.000
REMARK  Name = 
REMARK  4 active torsions:
REMARK  status: ('A' for Active; 'I' for Inactive)
REMARK    1  A    between atoms: C_1  and  N_2
REMARK    2  A    between atoms: C_8  and  O_9
REMARK    3  A    between atoms: O_9  and  C_10
REMARK    4  A    between atoms: N_12  and  C_13
REMARK                            x       y       z     vdW  Elec       q    Type
REMARK                         _______ _______ _______ _____ _____    ______ ____
ROOT
ATOM      1  O   UNL     1       7.350   7.260  16.841  0.00  0.00    +0.000 OA
ENDROOT
BRANCH   1   9
ATOM      2  C   UNL     1       3.612   2.005  17.773  0.00  0.00    +0.000 C 
ATOM      3  N   UNL     1       3.308   3.430  17.712  0.00  0.00    +0.000 N 
ATOM      4  C   UNL     1       2.068   3.863  18.353  0.00  0.00    +0.000 C 
ATOM      5  C   UNL     1       1.658   5.237  17.852  0.00  0.00    +0.000 C 
ATOM      6  C   UNL     1       2.747   6.245  18.182  0.00  0.00    +0.000 C 
ATOM      7  C   UNL     1       4.110   5.746  17.767  0.00  0.00    +0.000 A 
ATOM      8  C   UNL     1       5.145   6.688  17.578  0.00  0.00    +0.000 A 
ATOM      9  C   UNL     1       6.414   6.264  17.196  0.00  0.00    +0.000 A 
ATOM     10  C   UNL     1       6.662   4.904  17.032  0.00  0.00    +0.000 A 
ATOM     11  C   UNL     1       5.644   3.974  17.242  0.00  0.00    +0.000 A 
ATOM     12  C   UNL     1       4.345   4.360  17.598  0.00  0.00    +0.000 A 
ENDBRANCH   1   9
BRANCH   1  13
ATOM     13  C   UNL     1       7.925   7.978  17.884  0.00  0.00    +0.000 C 
ATOM     14  O   UNL     1       8.533   7.462  18.816  0.00  0.00    +0.000 OA
ATOM     15  N   UNL     1       7.741   9.325  17.684  0.00  0.00    +0.000 N 
ATOM     16  H   UNL     1       6.995   9.586  17.055  0.00  0.00    +0.000 HD
BRANCH  15  17
ATOM     17  C   UNL     1       8.543  10.337  18.246  0.00  0.00    +0.000 A 
ATOM     18  C   UNL     1       9.328  10.113  19.385  0.00  0.00    +0.000 A 
ATOM     19  C   UNL     1      10.119  11.129  19.923  0.00  0.00    +0.000 A 
ATOM     20  C   UNL     1      10.126  12.382  19.323  0.00  0.00    +0.000 A 
ATOM     21 BR   UNL     1      11.143  13.778  20.090  0.00  0.00    +0.000 Br
ATOM     22  C   UNL     1       9.382  12.611  18.166  0.00  0.00    +0.000 A 
ATOM     23  C   UNL     1       8.607  11.582  17.616  0.00  0.00    +0.000 A 
ENDBRANCH  15  17
ENDBRANCH   1  13
TORSDOF 3
ENDMDL
MODEL 2
REMARK VINA RESULT:      -7.5      6.354      8.001
REMARK  Name = 
REMARK  4 active torsions:
REMARK  status: ('A' for Active; 'I' for Inactive)
REMARK    1  A    between atoms: C_1  and  N_2
REMARK    2  A    between atoms: C_8  and  O_9
REMARK    3  A    between atoms: O_9  and  C_10
REMARK    4  A    between atoms: N_12  and  C_13
REMARK                            x       y       z     vdW  Elec       q    Type
REMARK                         _______ _______ _______ _____ _____    ______ ____
ROOT
ATOM      1  O   UNL     1       2.432   8.649  19.245  0.00  0.00    +0.000 OA
ENDROOT
BRANCH   1   9
ATOM      2  C   UNL     1       1.375   2.492  21.099  0.00  0.00    +0.000 C 
ATOM      3  N   UNL     1       2.026   3.069  19.928  0.00  0.00    +0.000 N 
ATOM      4  C   UNL     1       2.121   2.216  18.745  0.00  0.00    +0.000 C 
ATOM      5  C   UNL     1       3.173   2.746  17.786  0.00  0.00    +0.000 C 
ATOM      6  C   UNL     1       2.792   4.149  17.339  0.00  0.00    +0.000 C 
ATOM      7  C   UNL     1       2.433   5.028  18.512  0.00  0.00    +0.000 A 
ATOM      8  C   UNL     1       2.495   6.429  18.349  0.00  0.00    +0.000 A 
ATOM      9  C   UNL     1       2.170   7.271  19.408  0.00  0.00    +0.000 A 
ATOM     10  C   UNL     1       1.755   6.720  20.618  0.00  0.00    +0.000 A 
ATOM     11  C   UNL     1       1.673   5.336  20.770  0.00  0.00    +0.000 A 
ATOM     12  C   UNL     1       2.019   4.454  19.738  0.00  0.00    +0.000 A 
ENDBRANCH   1   9
BRANCH   1  13
ATOM     13  C   UNL     1       1.569   9.354  18.413  0.00  0.00    +0.000 C 
ATOM     14  O   UNL     1       1.681   9.402  17.193  0.00  0.00    +0.000 OA
ATOM     15  N   UNL     1       0.571   9.937  19.157  0.00  0.00    +0.000 N 
ATOM     16  H   UNL     1       0.761  10.059  20.143  0.00  0.00    +0.000 HD
BRANCH  15  17
ATOM     17  C   UNL     1      -0.688  10.318  18.655  0.00  0.00    +0.000 A 
ATOM     18  C   UNL     1      -1.262   9.688  17.542  0.00  0.00    +0.000 A 
ATOM     19  C   UNL     1      -2.514  10.078  17.064  0.00  0.00    +0.000 A 
ATOM     20  C   UNL     1      -3.198  11.109  17.696  0.00  0.00    +0.000 A 
ATOM     21 BR   UNL     1      -4.862  11.685  17.007  0.00  0.00    +0.000 Br
ATOM     22  C   UNL     1      -2.660  11.720  18.827  0.00  0.00    +0.000 A 
ATOM     23  C   UNL     1      -1.413  11.311  19.319  0.00  0.00    +0.000 A 
ENDBRANCH  15  17
ENDBRANCH   1  13
TORSDOF 3
ENDMDL
MODEL 3
REMARK VINA RESULT:      -7.5      5.325      7.907
REMARK  Name = 
REMARK  4 active torsions:
REMARK  status: ('A' for Active; 'I' for Inactive)
REMARK    1  A    between atoms: C_1  and  N_2
REMARK    2  A    between atoms: C_8  and  O_9
REMARK    3  A    between atoms: O_9  and  C_10
REMARK    4  A    between atoms: N_12  and  C_13
REMARK                            x       y       z     vdW  Elec       q    Type
REMARK                         _______ _______ _______ _____ _____    ______ ____
ROOT
ATOM      1  O   UNL     1       2.524   6.546  20.445  0.00  0.00    +0.000 OA
ENDROOT
BRANCH   1   9
ATOM      2  C   UNL     1      -0.241  12.164  18.644  0.00  0.00    +0.000 C 
ATOM      3  N   UNL     1      -0.139  11.486  19.931  0.00  0.00    +0.000 N 
ATOM      4  C   UNL     1      -1.129  11.850  20.943  0.00  0.00    +0.000 C 
ATOM      5  C   UNL     1      -0.661  11.428  22.325  0.00  0.00    +0.000 C 
ATOM      6  C   UNL     1      -0.471   9.920  22.359  0.00  0.00    +0.000 C 
ATOM      7  C   UNL     1       0.346   9.437  21.185  0.00  0.00    +0.000 A 
ATOM      8  C   UNL     1       0.992   8.185  21.282  0.00  0.00    +0.000 A 
ATOM      9  C   UNL     1       1.753   7.707  20.219  0.00  0.00    +0.000 A 
ATOM     10  C   UNL     1       1.846   8.459  19.051  0.00  0.00    +0.000 A 
ATOM     11  C   UNL     1       1.189   9.685  18.949  0.00  0.00    +0.000 A 
ATOM     12  C   UNL     1       0.437  10.215  20.006  0.00  0.00    +0.000 A 
ENDBRANCH   1   9
BRANCH   1  13
ATOM     13  C   UNL     1       2.725   5.708  19.353  0.00  0.00    +0.000 C 
ATOM     14  O   UNL     1       1.822   5.121  18.766  0.00  0.00    +0.000 OA
ATOM     15  N   UNL     1       4.058   5.680  19.022  0.00  0.00    +0.000 N 
ATOM     16  H   UNL     1       4.705   5.964  19.745  0.00  0.00    +0.000 HD
BRANCH  15  17
ATOM     17  C   UNL     1       4.564   5.339  17.753  0.00  0.00    +0.000 A 
ATOM     18  C   UNL     1       4.820   6.307  16.773  0.00  0.00    +0.000 A 
ATOM     19  C   UNL     1       5.326   5.947  15.523  0.00  0.00    +0.000 A 
ATOM     20  C   UNL     1       5.574   4.609  15.244  0.00  0.00    +0.000 A 
ATOM     21 BR   UNL     1       6.193   4.113  13.528  0.00  0.00    +0.000 Br
ATOM     22  C   UNL     1       5.361   3.636  16.220  0.00  0.00    +0.000 A 
ATOM     23  C   UNL     1       4.876   4.004  17.482  0.00  0.00    +0.000 A 
ENDBRANCH  15  17
ENDBRANCH   1  13
TORSDOF 3
ENDMDL
MODEL 4
REMARK VINA RESULT:      -7.4      5.463      8.020
REMARK  Name = 
REMARK  4 active torsions:
REMARK  status: ('A' for Active; 'I' for Inactive)
REMARK    1  A    between atoms: C_1  and  N_2
REMARK    2  A    between atoms: C_8  and  O_9
REMARK    3  A    between atoms: O_9  and  C_10
REMARK    4  A    between atoms: N_12  and  C_13
REMARK                            x       y       z     vdW  Elec       q    Type
REMARK                         _______ _______ _______ _____ _____    ______ ____
ROOT
ATOM      1  O   UNL     1       2.105   6.613  20.992  0.00  0.00    +0.000 OA
ENDROOT
BRANCH   1   9
ATOM      2  C   UNL     1      -0.134  12.276  18.673  0.00  0.00    +0.000 C 
ATOM      3  N   UNL     1      -0.123  11.697  20.012  0.00  0.00    +0.000 N 
ATOM      4  C   UNL     1      -1.105  12.219  20.960  0.00  0.00    +0.000 C 
ATOM      5  C   UNL     1      -0.710  11.871  22.385  0.00  0.00    +0.000 C 
ATOM      6  C   UNL     1      -0.647  10.360  22.541  0.00  0.00    +0.000 C 
ATOM      7  C   UNL     1       0.157   9.721  21.436  0.00  0.00    +0.000 A 
ATOM      8  C   UNL     1       0.694   8.433  21.650  0.00  0.00    +0.000 A 
ATOM      9  C   UNL     1       1.440   7.812  20.653  0.00  0.00    +0.000 A 
ATOM     10  C   UNL     1       1.626   8.458  19.434  0.00  0.00    +0.000 A 
ATOM     11  C   UNL     1       1.076   9.721  19.216  0.00  0.00    +0.000 A 
ATOM     12  C   UNL     1       0.344  10.393  20.204  0.00  0.00    +0.000 A 
ENDBRANCH   1   9
BRANCH   1  13
ATOM     13  C   UNL     1       2.378   5.734  19.950  0.00  0.00    +0.000 C 
ATOM     14  O   UNL     1       1.528   5.043  19.397  0.00  0.00    +0.000 OA
ATOM     15  N   UNL     1       3.711   5.795  19.620  0.00  0.00    +0.000 N 
ATOM     16  H   UNL     1       4.329   6.171  20.326  0.00  0.00    +0.000 HD
BRANCH  15  17
ATOM     17  C   UNL     1       4.247   5.424  18.373  0.00  0.00    +0.000 A 
ATOM     18  C   UNL     1       4.416   4.081  18.009  0.00  0.00    +0.000 A 
ATOM     19  C   UNL     1       4.945   3.735  16.765  0.00  0.00    +0.000 A 
ATOM     20  C   UNL     1       5.316   4.737  15.876  0.00  0.00    +0.000 A 
ATOM     21 BR   UNL     1       6.097   4.271  14.219  0.00  0.00    +0.000 Br
ATOM     22  C   UNL     1       5.120   6.077  16.206  0.00  0.00    +0.000 A 
ATOM     23  C   UNL     1       4.566   6.420  17.446  0.00  0.00    +0.000 A 
ENDBRANCH  15  17
ENDBRANCH   1  13
TORSDOF 3
ENDMDL
MODEL 5
REMARK VINA RESULT:      -7.4      6.224      7.610
REMARK  Name = 
REMARK  4 active torsions:
REMARK  status: ('A' for Active; 'I' for Inactive)
REMARK    1  A    between atoms: C_1  and  N_2
REMARK    2  A    between atoms: C_8  and  O_9
REMARK    3  A    between atoms: O_9  and  C_10
REMARK    4  A    between atoms: N_12  and  C_13
REMARK                            x       y       z     vdW  Elec       q    Type
REMARK                         _______ _______ _______ _____ _____    ______ ____
ROOT
ATOM      1  O   UNL     1       2.184   8.842  18.787  0.00  0.00    +0.000 OA
ENDROOT
BRANCH   1   9
ATOM      2  C   UNL     1       1.905   2.880  21.401  0.00  0.00    +0.000 C 
ATOM      3  N   UNL     1       2.488   3.385  20.163  0.00  0.00    +0.000 N 
ATOM      4  C   UNL     1       2.702   2.410  19.095  0.00  0.00    +0.000 C 
ATOM      5  C   UNL     1       3.686   2.947  18.071  0.00  0.00    +0.000 C 
ATOM      6  C   UNL     1       3.134   4.223  17.454  0.00  0.00    +0.000 C 
ATOM      7  C   UNL     1       2.655   5.188  18.511  0.00  0.00    +0.000 A 
ATOM      8  C   UNL     1       2.539   6.555  18.174  0.00  0.00    +0.000 A 
ATOM      9  C   UNL     1       2.099   7.473  19.123  0.00  0.00    +0.000 A 
ATOM     10  C   UNL     1       1.747   7.029  20.394  0.00  0.00    +0.000 A 
ATOM     11  C   UNL     1       1.841   5.675  20.718  0.00  0.00    +0.000 A 
ATOM     12  C   UNL     1       2.306   4.723  19.802  0.00  0.00    +0.000 A 
ENDBRANCH   1   9
BRANCH   1  13
ATOM     13  C   UNL     1       1.065   9.622  19.058  0.00  0.00    +0.000 C 
ATOM     14  O   UNL     1       0.057   9.640  18.359  0.00  0.00    +0.000 OA
ATOM     15  N   UNL     1       1.250  10.317  20.229  0.00  0.00    +0.000 N 
ATOM     16  H   UNL     1       2.206  10.433  20.535  0.00  0.00    +0.000 HD
BRANCH  15  17
ATOM     17  C   UNL     1       0.212  10.821  21.037  0.00  0.00    +0.000 A 
ATOM     18  C   UNL     1      -0.124  10.232  22.263  0.00  0.00    +0.000 A 
ATOM     19  C   UNL     1      -1.153  10.751  23.050  0.00  0.00    +0.000 A 
ATOM     20  C   UNL     1      -1.858  11.863  22.609  0.00  0.00    +0.000 A 
ATOM     21 BR   UNL     1      -3.298  12.525  23.641  0.00  0.00    +0.000 Br
ATOM     22  C   UNL     1      -1.513  12.485  21.410  0.00  0.00    +0.000 A 
ATOM     23  C   UNL     1      -0.464  11.976  20.633  0.00  0.00    +0.000 A 
ENDBRANCH  15  17
ENDBRANCH   1  13
TORSDOF 3
ENDMDL
MODEL 6
REMARK VINA RESULT:      -7.4      6.245      7.748
REMARK  Name = 
REMARK  4 active torsions:
REMARK  status: ('A' for Active; 'I' for Inactive)
REMARK    1  A    between atoms: C_1  and  N_2
REMARK    2  A    between atoms: C_8  and  O_9
REMARK    3  A    between atoms: O_9  and  C_10
REMARK    4  A    between atoms: N_12  and  C_13
REMARK                            x       y       z     vdW  Elec       q    Type
REMARK                         _______ _______ _______ _____ _____    ______ ____
ROOT
ATOM      1  O   UNL     1       2.148   8.899  18.850  0.00  0.00    +0.000 OA
ENDROOT
BRANCH   1   9
ATOM      2  C   UNL     1       1.871   2.918  21.418  0.00  0.00    +0.000 C 
ATOM      3  N   UNL     1       2.462   3.434  20.188  0.00  0.00    +0.000 N 
ATOM      4  C   UNL     1       2.690   2.468  19.115  0.00  0.00    +0.000 C 
ATOM      5  C   UNL     1       3.681   3.016  18.104  0.00  0.00    +0.000 C 
ATOM      6  C   UNL     1       3.129   4.294  17.492  0.00  0.00    +0.000 C 
ATOM      7  C   UNL     1       2.637   5.249  18.551  0.00  0.00    +0.000 A 
ATOM      8  C   UNL     1       2.518   6.618  18.223  0.00  0.00    +0.000 A 
ATOM      9  C   UNL     1       2.066   7.528  19.174  0.00  0.00    +0.000 A 
ATOM     10  C   UNL     1       1.704   7.073  20.440  0.00  0.00    +0.000 A 
ATOM     11  C   UNL     1       1.801   5.717  20.754  0.00  0.00    +0.000 A 
ATOM     12  C   UNL     1       2.279   4.773  19.835  0.00  0.00    +0.000 A 
ENDBRANCH   1   9
BRANCH   1  13
ATOM     13  C   UNL     1       1.012   9.666  19.086  0.00  0.00    +0.000 C 
ATOM     14  O   UNL     1       0.014   9.648  18.374  0.00  0.00    +0.000 OA
ATOM     15  N   UNL     1       1.170  10.395  20.240  0.00  0.00    +0.000 N 
ATOM     16  H   UNL     1       2.120  10.536  20.555  0.00  0.00    +0.000 HD
BRANCH  15  17
ATOM     17  C   UNL     1       0.113  10.901  21.021  0.00  0.00    +0.000 A 
ATOM     18  C   UNL     1      -0.706  11.946  20.571  0.00  0.00    +0.000 A 
ATOM     19  C   UNL     1      -1.751  12.429  21.359  0.00  0.00    +0.000 A 
ATOM     20  C   UNL     1      -1.980  11.871  22.611  0.00  0.00    +0.000 A 
ATOM     21 BR   UNL     1      -3.351  12.570  23.708  0.00  0.00    +0.000 Br
ATOM     22  C   UNL     1      -1.200  10.805  23.058  0.00  0.00    +0.000 A 
ATOM     23  C   UNL     1      -0.166  10.307  22.254  0.00  0.00    +0.000 A 
ENDBRANCH  15  17
ENDBRANCH   1  13
TORSDOF 3
ENDMDL
MODEL 7
REMARK VINA RESULT:      -7.4      6.115      8.389
REMARK  Name = 
REMARK  4 active torsions:
REMARK  status: ('A' for Active; 'I' for Inactive)
REMARK    1  A    between atoms: C_1  and  N_2
REMARK    2  A    between atoms: C_8  and  O_9
REMARK    3  A    between atoms: O_9  and  C_10
REMARK    4  A    between atoms: N_12  and  C_13
REMARK                            x       y       z     vdW  Elec       q    Type
REMARK                         _______ _______ _______ _____ _____    ______ ____
ROOT
ATOM      1  O   UNL     1       1.938   9.606  18.416  0.00  0.00    +0.000 OA
ENDROOT
BRANCH   1   9
ATOM      2  C   UNL     1       4.442   3.628  17.749  0.00  0.00    +0.000 C 
ATOM      3  N   UNL     1       3.430   4.176  18.645  0.00  0.00    +0.000 N 
ATOM      4  C   UNL     1       3.183   3.439  19.883  0.00  0.00    +0.000 C 
ATOM      5  C   UNL     1       1.850   3.843  20.488  0.00  0.00    +0.000 C 
ATOM      6  C   UNL     1       1.865   5.329  20.807  0.00  0.00    +0.000 C 
ATOM      7  C   UNL     1       2.357   6.144  19.636  0.00  0.00    +0.000 A 
ATOM      8  C   UNL     1       2.022   7.515  19.579  0.00  0.00    +0.000 A 
ATOM      9  C   UNL     1       2.459   8.297  18.515  0.00  0.00    +0.000 A 
ATOM     10  C   UNL     1       3.252   7.725  17.524  0.00  0.00    +0.000 A 
ATOM     11  C   UNL     1       3.600   6.376  17.594  0.00  0.00    +0.000 A 
ATOM     12  C   UNL     1       3.156   5.546  18.633  0.00  0.00    +0.000 A 
ENDBRANCH   1   9
BRANCH   1  13
ATOM     13  C   UNL     1       0.616   9.784  18.810  0.00  0.00    +0.000 C 
ATOM     14  O   UNL     1       0.268   9.984  19.969  0.00  0.00    +0.000 OA
ATOM     15  N   UNL     1      -0.210   9.741  17.713  0.00  0.00    +0.000 N 
ATOM     16  H   UNL     1       0.163   9.290  16.889  0.00  0.00    +0.000 HD
BRANCH  15  17
ATOM     17  C   UNL     1      -1.492  10.320  17.651  0.00  0.00    +0.000 A 
ATOM     18  C   UNL     1      -1.912  11.291  18.569  0.00  0.00    +0.000 A 
ATOM     19  C   UNL     1      -3.186  11.855  18.486  0.00  0.00    +0.000 A 
ATOM     20  C   UNL     1      -4.053  11.443  17.481  0.00  0.00    +0.000 A 
ATOM     21 BR   UNL     1      -5.802  12.155  17.409  0.00  0.00    +0.000 Br
ATOM     22  C   UNL     1      -3.639  10.507  16.535  0.00  0.00    +0.000 A 
ATOM     23  C   UNL     1      -2.351   9.960  16.608  0.00  0.00    +0.000 A 
ENDBRANCH  15  17
ENDBRANCH   1  13
TORSDOF 3
ENDMDL
MODEL 8
REMARK VINA RESULT:      -7.4      6.322      8.009
REMARK  Name = 
REMARK  4 active torsions:
REMARK  status: ('A' for Active; 'I' for Inactive)
REMARK    1  A    between atoms: C_1  and  N_2
REMARK    2  A    between atoms: C_8  and  O_9
REMARK    3  A    between atoms: O_9  and  C_10
REMARK    4  A    between atoms: N_12  and  C_13
REMARK                            x       y       z     vdW  Elec       q    Type
REMARK                         _______ _______ _______ _____ _____    ______ ____
ROOT
ATOM      1  O   UNL     1       2.326   8.720  19.480  0.00  0.00    +0.000 OA
ENDROOT
BRANCH   1   9
ATOM      2  C   UNL     1       1.486   2.360  20.619  0.00  0.00    +0.000 C 
ATOM      3  N   UNL     1       2.243   3.086  19.605  0.00  0.00    +0.000 N 
ATOM      4  C   UNL     1       2.557   2.359  18.376  0.00  0.00    +0.000 C 
ATOM      5  C   UNL     1       3.685   3.043  17.624  0.00  0.00    +0.000 C 
ATOM      6  C   UNL     1       3.266   4.457  17.253  0.00  0.00    +0.000 C 
ATOM      7  C   UNL     1       2.691   5.194  18.438  0.00  0.00    +0.000 A 
ATOM      8  C   UNL     1       2.671   6.606  18.410  0.00  0.00    +0.000 A 
ATOM      9  C   UNL     1       2.147   7.319  19.483  0.00  0.00    +0.000 A 
ATOM     10  C   UNL     1       1.616   6.630  20.570  0.00  0.00    +0.000 A 
ATOM     11  C   UNL     1       1.616   5.235  20.586  0.00  0.00    +0.000 A 
ATOM     12  C   UNL     1       2.160   4.479  19.539  0.00  0.00    +0.000 A 
ENDBRANCH   1   9
BRANCH   1  13
ATOM     13  C   UNL     1       1.498   9.454  18.638  0.00  0.00    +0.000 C 
ATOM     14  O   UNL     1       1.667   9.552  17.427  0.00  0.00    +0.000 OA
ATOM     15  N   UNL     1       0.462  10.000  19.357  0.00  0.00    +0.000 N 
ATOM     16  H   UNL     1       0.605  10.083  20.354  0.00  0.00    +0.000 HD
BRANCH  15  17
ATOM     17  C   UNL     1      -0.774  10.394  18.812  0.00  0.00    +0.000 A 
ATOM     18  C   UNL     1      -1.529  11.437  19.364  0.00  0.00    +0.000 A 
ATOM     19  C   UNL     1      -2.751  11.815  18.804  0.00  0.00    +0.000 A 
ATOM     20  C   UNL     1      -3.228  11.143  17.686  0.00  0.00    +0.000 A 
ATOM     21 BR   UNL     1      -4.914  11.606  16.968  0.00  0.00    +0.000 Br
ATOM     22  C   UNL     1      -2.472  10.129  17.099  0.00  0.00    +0.000 A 
ATOM     23  C   UNL     1      -1.236   9.768  17.650  0.00  0.00    +0.000 A 
ENDBRANCH  15  17
ENDBRANCH   1  13
TORSDOF 3
ENDMDL
MODEL 9
REMARK VINA RESULT:      -7.4      6.186      8.001
REMARK  Name = 
REMARK  4 active torsions:
REMARK  status: ('A' for Active; 'I' for Inactive)
REMARK    1  A    between atoms: C_1  and  N_2
REMARK    2  A    between atoms: C_8  and  O_9
REMARK    3  A    between atoms: O_9  and  C_10
REMARK    4  A    between atoms: N_12  and  C_13
REMARK                            x       y       z     vdW  Elec       q    Type
REMARK                         _______ _______ _______ _____ _____    ______ ____
ROOT
ATOM      1  O   UNL     1       2.132   8.691  19.566  0.00  0.00    +0.000 OA
ENDROOT
BRANCH   1   9
ATOM      2  C   UNL     1       3.629   2.757  17.330  0.00  0.00    +0.000 C 
ATOM      3  N   UNL     1       2.686   3.217  18.343  0.00  0.00    +0.000 N 
ATOM      4  C   UNL     1       2.268   2.237  19.343  0.00  0.00    +0.000 C 
ATOM      5  C   UNL     1       0.997   2.691  20.039  0.00  0.00    +0.000 C 
ATOM      6  C   UNL     1       1.247   4.017  20.740  0.00  0.00    +0.000 C 
ATOM      7  C   UNL     1       1.916   5.012  19.824  0.00  0.00    +0.000 A 
ATOM      8  C   UNL     1       1.817   6.387  20.134  0.00  0.00    +0.000 A 
ATOM      9  C   UNL     1       2.422   7.333  19.313  0.00  0.00    +0.000 A 
ATOM     10  C   UNL     1       3.149   6.912  18.202  0.00  0.00    +0.000 A 
ATOM     11  C   UNL     1       3.264   5.552  17.911  0.00  0.00    +0.000 A 
ATOM     12  C   UNL     1       2.646   4.569  18.695  0.00  0.00    +0.000 A 
ENDBRANCH   1   9
BRANCH   1  13
ATOM     13  C   UNL     1       1.303   9.333  18.653  0.00  0.00    +0.000 C 
ATOM     14  O   UNL     1       1.414   9.229  17.436  0.00  0.00    +0.000 OA
ATOM     15  N   UNL     1       0.338  10.051  19.319  0.00  0.00    +0.000 N 
ATOM     16  H   UNL     1       0.537  10.281  20.283  0.00  0.00    +0.000 HD
BRANCH  15  17
ATOM     17  C   UNL     1      -0.902  10.430  18.770  0.00  0.00    +0.000 A 
ATOM     18  C   UNL     1      -1.444   9.788  17.649  0.00  0.00    +0.000 A 
ATOM     19  C   UNL     1      -2.677  10.177  17.125  0.00  0.00    +0.000 A 
ATOM     20  C   UNL     1      -3.376  11.221  17.720  0.00  0.00    +0.000 A 
ATOM     21 BR   UNL     1      -5.013  11.795  16.969  0.00  0.00    +0.000 Br
ATOM     22  C   UNL     1      -2.870  11.845  18.859  0.00  0.00    +0.000 A 
ATOM     23  C   UNL     1      -1.643  11.436  19.397  0.00  0.00    +0.000 A 
ENDBRANCH  15  17
ENDBRANCH   1  13
TORSDOF 3
ENDMDL
