MODEL 1
REMARK VINA RESULT:      -5.9      0.000      0.000
REMARK  Name = 
REMARK  7 active torsions:
REMARK  status: ('A' for Active; 'I' for Inactive)
REMARK    1  A    between atoms: C_1  and  O_2
REMARK    2  A    between atoms: O_2  and  C_3
REMARK    3  A    between atoms: C_6  and  O_7
REMARK    4  A    between atoms: O_7  and  C_8
REMARK    5  A    between atoms: N_11  and  S_12
REMARK    6  A    between atoms: S_12  and  C_15
REMARK    7  A    between atoms: C_21  and  C_22
REMARK                            x       y       z     vdW  Elec       q    Type
REMARK                         _______ _______ _______ _____ _____    ______ ____
ROOT
ATOM      1  C   UNL     1       5.735   5.671  14.993  0.00  0.00    +0.000 C 
ATOM      2  C   UNL     1       6.968   4.913  15.458  0.00  0.00    +0.000 C 
ATOM      3  C   UNL     1       6.849   4.171  16.803  0.00  0.00    +0.000 C 
ATOM      4  C   UNL     1       5.569   4.337  17.681  0.00  0.00    +0.000 C 
ATOM      5  C   UNL     1       5.829   4.673  19.167  0.00  0.00    +0.000 C 
ATOM      6  C   UNL     1       5.146   5.991  19.510  0.00  0.00    +0.000 C 
ATOM      7  N   UNL     1       4.268   6.343  18.390  0.00  0.00    +0.000 NA
ATOM      8  C   UNL     1       4.600   5.468  17.217  0.00  0.00    +0.000 C 
ATOM      9  C   UNL     1       5.174   6.425  16.176  0.00  0.00    +0.000 C 
ENDROOT
BRANCH   7  10
ATOM     10  S   UNL     1       2.607   6.571  18.671  0.00  0.00    +0.000 S 
ATOM     11  O   UNL     1       2.452   7.578  19.709  0.00  0.00    +0.000 OA
ATOM     12  O   UNL     1       1.978   6.750  17.377  0.00  0.00    +0.000 OA
BRANCH  10  13
ATOM     13  C   UNL     1       2.020   5.023  19.365  0.00  0.00    +0.000 A 
ATOM     14  C   UNL     1       2.271   4.813  20.733  0.00  0.00    +0.000 A 
ATOM     15  C   UNL     1       1.904   3.615  21.334  0.00  0.00    +0.000 A 
ATOM     16  F   UNL     1       2.179   3.418  22.629  0.00  0.00    +0.000 F 
ATOM     17  C   UNL     1       1.266   2.618  20.611  0.00  0.00    +0.000 A 
ATOM     18  C   UNL     1       1.035   2.804  19.250  0.00  0.00    +0.000 A 
ATOM     19  C   UNL     1       1.448   3.985  18.593  0.00  0.00    +0.000 A 
ATOM     20  C   UNL     1       1.234   4.037  17.106  0.00  0.00    +0.000 C 
ENDBRANCH  10  13
ENDBRANCH   7  10
BRANCH   1  22
ATOM     21  C   UNL     1       5.393   3.867  13.468  0.00  0.00    +0.000 C 
ATOM     22  O   UNL     1       4.807   4.750  14.421  0.00  0.00    +0.000 OA
ENDBRANCH   1  22
BRANCH   4  23
ATOM     23  O   UNL     1       4.833   3.077  17.658  0.00  0.00    +0.000 OA
ATOM     24  C   UNL     1       4.604   2.424  18.909  0.00  0.00    +0.000 C 
ENDBRANCH   4  23
TORSDOF 4
ENDMDL
MODEL 2
REMARK VINA RESULT:      -5.9      3.080      6.236
REMARK  Name = 
REMARK  7 active torsions:
REMARK  status: ('A' for Active; 'I' for Inactive)
REMARK    1  A    between atoms: C_1  and  O_2
REMARK    2  A    between atoms: O_2  and  C_3
REMARK    3  A    between atoms: C_6  and  O_7
REMARK    4  A    between atoms: O_7  and  C_8
REMARK    5  A    between atoms: N_11  and  S_12
REMARK    6  A    between atoms: S_12  and  C_15
REMARK    7  A    between atoms: C_21  and  C_22
REMARK                            x       y       z     vdW  Elec       q    Type
REMARK                         _______ _______ _______ _____ _____    ______ ____
ROOT
ATOM      1  C   UNL     1       3.007   2.667  17.428  0.00  0.00    +0.000 C 
ATOM      2  C   UNL     1       3.289   2.297  18.876  0.00  0.00    +0.000 C 
ATOM      3  C   UNL     1       4.209   3.251  19.659  0.00  0.00    +0.000 C 
ATOM      4  C   UNL     1       4.913   4.438  18.931  0.00  0.00    +0.000 C 
ATOM      5  C   UNL     1       6.433   4.562  19.189  0.00  0.00    +0.000 C 
ATOM      6  C   UNL     1       7.175   4.481  17.862  0.00  0.00    +0.000 C 
ATOM      7  N   UNL     1       6.182   4.578  16.788  0.00  0.00    +0.000 NA
ATOM      8  C   UNL     1       4.812   4.403  17.375  0.00  0.00    +0.000 C 
ATOM      9  C   UNL     1       4.311   3.087  16.789  0.00  0.00    +0.000 C 
ENDROOT
BRANCH   7  10
ATOM     10  S   UNL     1       6.319   5.820  15.635  0.00  0.00    +0.000 S 
ATOM     11  O   UNL     1       5.077   6.576  15.626  0.00  0.00    +0.000 OA
ATOM     12  O   UNL     1       7.582   6.488  15.880  0.00  0.00    +0.000 OA
BRANCH  10  13
ATOM     13  C   UNL     1       6.428   4.991  14.047  0.00  0.00    +0.000 A 
ATOM     14  C   UNL     1       5.344   4.170  13.691  0.00  0.00    +0.000 A 
ATOM     15  C   UNL     1       5.376   3.445  12.506  0.00  0.00    +0.000 A 
ATOM     16  F   UNL     1       4.350   2.641  12.198  0.00  0.00    +0.000 F 
ATOM     17  C   UNL     1       6.458   3.533  11.643  0.00  0.00    +0.000 A 
ATOM     18  C   UNL     1       7.549   4.323  11.996  0.00  0.00    +0.000 A 
ATOM     19  C   UNL     1       7.576   5.027  13.220  0.00  0.00    +0.000 A 
ATOM     20  C   UNL     1       8.843   5.772  13.541  0.00  0.00    +0.000 C 
ENDBRANCH  10  13
ENDBRANCH   7  10
BRANCH   1  22
ATOM     21  C   UNL     1       1.017   3.550  18.406  0.00  0.00    +0.000 C 
ATOM     22  O   UNL     1       2.008   3.685  17.390  0.00  0.00    +0.000 OA
ENDBRANCH   1  22
BRANCH   4  23
ATOM     23  O   UNL     1       4.306   5.682  19.392  0.00  0.00    +0.000 OA
ATOM     24  C   UNL     1       3.479   6.396  18.468  0.00  0.00    +0.000 C 
ENDBRANCH   4  23
TORSDOF 4
ENDMDL
MODEL 3
REMARK VINA RESULT:      -5.9      7.675      9.431
REMARK  Name = 
REMARK  7 active torsions:
REMARK  status: ('A' for Active; 'I' for Inactive)
REMARK    1  A    between atoms: C_1  and  O_2
REMARK    2  A    between atoms: O_2  and  C_3
REMARK    3  A    between atoms: C_6  and  O_7
REMARK    4  A    between atoms: O_7  and  C_8
REMARK    5  A    between atoms: N_11  and  S_12
REMARK    6  A    between atoms: S_12  and  C_15
REMARK    7  A    between atoms: C_21  and  C_22
REMARK                            x       y       z     vdW  Elec       q    Type
REMARK                         _______ _______ _______ _____ _____    ______ ____
ROOT
ATOM      1  C   UNL     1       3.912  14.295  18.792  0.00  0.00    +0.000 C 
ATOM      2  C   UNL     1       3.519  15.543  18.016  0.00  0.00    +0.000 C 
ATOM      3  C   UNL     1       2.108  16.098  18.283  0.00  0.00    +0.000 C 
ATOM      4  C   UNL     1       1.113  15.312  19.193  0.00  0.00    +0.000 C 
ATOM      5  C   UNL     1      -0.299  15.104  18.600  0.00  0.00    +0.000 C 
ATOM      6  C   UNL     1      -0.594  13.612  18.519  0.00  0.00    +0.000 C 
ATOM      7  N   UNL     1       0.449  12.908  19.271  0.00  0.00    +0.000 NA
ATOM      8  C   UNL     1       1.568  13.866  19.562  0.00  0.00    +0.000 C 
ATOM      9  C   UNL     1       2.747  13.333  18.755  0.00  0.00    +0.000 C 
ENDROOT
BRANCH   7  10
ATOM     10  S   UNL     1       0.009  11.899  20.566  0.00  0.00    +0.000 S 
ATOM     11  O   UNL     1       0.619  12.419  21.780  0.00  0.00    +0.000 OA
ATOM     12  O   UNL     1      -1.428  11.714  20.489  0.00  0.00    +0.000 OA
BRANCH  10  13
ATOM     13  C   UNL     1       0.791  10.319  20.232  0.00  0.00    +0.000 A 
ATOM     14  C   UNL     1       1.217  10.096  18.911  0.00  0.00    +0.000 A 
ATOM     15  C   UNL     1       1.777   8.876  18.554  0.00  0.00    +0.000 A 
ATOM     16  F   UNL     1       2.147   8.667  17.284  0.00  0.00    +0.000 F 
ATOM     17  C   UNL     1       1.949   7.867  19.490  0.00  0.00    +0.000 A 
ATOM     18  C   UNL     1       1.508   8.066  20.796  0.00  0.00    +0.000 A 
ATOM     19  C   UNL     1       0.881   9.272  21.179  0.00  0.00    +0.000 A 
ATOM     20  C   UNL     1       0.359   9.341  22.588  0.00  0.00    +0.000 C 
ENDBRANCH  10  13
ENDBRANCH   7  10
BRANCH   1  22
ATOM     21  C   UNL     1       5.464  15.478  20.166  0.00  0.00    +0.000 C 
ATOM     22  O   UNL     1       4.293  14.667  20.116  0.00  0.00    +0.000 OA
ENDBRANCH   1  22
BRANCH   4  23
ATOM     23  O   UNL     1       0.941  16.059  20.435  0.00  0.00    +0.000 OA
ATOM     24  C   UNL     1       1.606  17.321  20.544  0.00  0.00    +0.000 C 
ENDBRANCH   4  23
TORSDOF 4
ENDMDL
MODEL 4
REMARK VINA RESULT:      -5.7      9.415     11.311
REMARK  Name = 
REMARK  7 active torsions:
REMARK  status: ('A' for Active; 'I' for Inactive)
REMARK    1  A    between atoms: C_1  and  O_2
REMARK    2  A    between atoms: O_2  and  C_3
REMARK    3  A    between atoms: C_6  and  O_7
REMARK    4  A    between atoms: O_7  and  C_8
REMARK    5  A    between atoms: N_11  and  S_12
REMARK    6  A    between atoms: S_12  and  C_15
REMARK    7  A    between atoms: C_21  and  C_22
REMARK                            x       y       z     vdW  Elec       q    Type
REMARK                         _______ _______ _______ _____ _____    ______ ____
ROOT
ATOM      1  C   UNL     1      -2.088  11.664  18.036  0.00  0.00    +0.000 C 
ATOM      2  C   UNL     1      -1.421  10.349  17.668  0.00  0.00    +0.000 C 
ATOM      3  C   UNL     1      -0.010  10.114  18.239  0.00  0.00    +0.000 C 
ATOM      4  C   UNL     1       0.720  11.250  19.023  0.00  0.00    +0.000 C 
ATOM      5  C   UNL     1       2.169  11.538  18.570  0.00  0.00    +0.000 C 
ATOM      6  C   UNL     1       2.279  12.994  18.136  0.00  0.00    +0.000 C 
ATOM      7  N   UNL     1       1.048  13.676  18.546  0.00  0.00    +0.000 NA
ATOM      8  C   UNL     1       0.030  12.647  18.942  0.00  0.00    +0.000 C 
ATOM      9  C   UNL     1      -1.066  12.768  17.888  0.00  0.00    +0.000 C 
ENDROOT
BRANCH   7  10
ATOM     10  S   UNL     1       1.145  15.026  19.574  0.00  0.00    +0.000 S 
ATOM     11  O   UNL     1       0.022  14.982  20.497  0.00  0.00    +0.000 OA
ATOM     12  O   UNL     1       2.505  15.079  20.076  0.00  0.00    +0.000 OA
BRANCH  10  13
ATOM     13  C   UNL     1       0.887  16.454  18.518  0.00  0.00    +0.000 A 
ATOM     14  C   UNL     1      -0.412  16.993  18.498  0.00  0.00    +0.000 A 
ATOM     15  C   UNL     1      -0.712  18.061  17.661  0.00  0.00    +0.000 A 
ATOM     16  F   UNL     1      -1.961  18.541  17.628  0.00  0.00    +0.000 F 
ATOM     17  C   UNL     1       0.260  18.630  16.852  0.00  0.00    +0.000 A 
ATOM     18  C   UNL     1       1.543  18.090  16.844  0.00  0.00    +0.000 A 
ATOM     19  C   UNL     1       1.868  16.967  17.638  0.00  0.00    +0.000 A 
ATOM     20  C   UNL     1       3.256  16.409  17.479  0.00  0.00    +0.000 C 
ENDBRANCH  10  13
ENDBRANCH   7  10
BRANCH   1  22
ATOM     21  C   UNL     1      -3.791  12.356  19.560  0.00  0.00    +0.000 C 
ATOM     22  O   UNL     1      -2.622  11.565  19.356  0.00  0.00    +0.000 OA
ENDBRANCH   1  22
BRANCH   4  23
ATOM     23  O   UNL     1       0.788  10.863  20.428  0.00  0.00    +0.000 OA
ATOM     24  C   UNL     1       0.083  11.675  21.371  0.00  0.00    +0.000 C 
ENDBRANCH   4  23
TORSDOF 4
ENDMDL
MODEL 5
REMARK VINA RESULT:      -5.7      9.835     11.609
REMARK  Name = 
REMARK  7 active torsions:
REMARK  status: ('A' for Active; 'I' for Inactive)
REMARK    1  A    between atoms: C_1  and  O_2
REMARK    2  A    between atoms: O_2  and  C_3
REMARK    3  A    between atoms: C_6  and  O_7
REMARK    4  A    between atoms: O_7  and  C_8
REMARK    5  A    between atoms: N_11  and  S_12
REMARK    6  A    between atoms: S_12  and  C_15
REMARK    7  A    between atoms: C_21  and  C_22
REMARK                            x       y       z     vdW  Elec       q    Type
REMARK                         _______ _______ _______ _____ _____    ______ ____
ROOT
ATOM      1  C   UNL     1       0.182  11.662  20.831  0.00  0.00    +0.000 C 
ATOM      2  C   UNL     1       1.189  12.801  20.808  0.00  0.00    +0.000 C 
ATOM      3  C   UNL     1       0.767  14.102  21.517  0.00  0.00    +0.000 C 
ATOM      4  C   UNL     1      -0.679  14.254  22.084  0.00  0.00    +0.000 C 
ATOM      5  C   UNL     1      -1.411  15.556  21.684  0.00  0.00    +0.000 C 
ATOM      6  C   UNL     1      -2.698  15.203  20.951  0.00  0.00    +0.000 C 
ATOM      7  N   UNL     1      -2.924  13.763  21.113  0.00  0.00    +0.000 NA
ATOM      8  C   UNL     1      -1.673  13.132  21.650  0.00  0.00    +0.000 C 
ATOM      9  C   UNL     1      -1.181  12.234  20.519  0.00  0.00    +0.000 C 
ENDROOT
BRANCH   7  10
ATOM     10  S   UNL     1      -4.368  13.220  21.824  0.00  0.00    +0.000 S 
ATOM     11  O   UNL     1      -4.041  12.191  22.799  0.00  0.00    +0.000 OA
ATOM     12  O   UNL     1      -5.113  14.398  22.225  0.00  0.00    +0.000 OA
BRANCH  10  13
ATOM     13  C   UNL     1      -5.279  12.410  20.507  0.00  0.00    +0.000 A 
ATOM     14  C   UNL     1      -4.651  12.359  19.250  0.00  0.00    +0.000 A 
ATOM     15  C   UNL     1      -5.313  11.803  18.161  0.00  0.00    +0.000 A 
ATOM     16  F   UNL     1      -4.715  11.793  16.963  0.00  0.00    +0.000 F 
ATOM     17  C   UNL     1      -6.586  11.269  18.294  0.00  0.00    +0.000 A 
ATOM     18  C   UNL     1      -7.227  11.336  19.528  0.00  0.00    +0.000 A 
ATOM     19  C   UNL     1      -6.609  11.946  20.642  0.00  0.00    +0.000 A 
ATOM     20  C   UNL     1      -7.431  12.048  21.897  0.00  0.00    +0.000 C 
ENDBRANCH  10  13
ENDBRANCH   7  10
BRANCH   1  22
ATOM     21  C   UNL     1       0.135   9.590  22.015  0.00  0.00    +0.000 C 
ATOM     22  O   UNL     1       0.242  11.009  22.098  0.00  0.00    +0.000 OA
ENDBRANCH   1  22
BRANCH   4  23
ATOM     23  O   UNL     1      -0.602  14.246  23.541  0.00  0.00    +0.000 OA
ATOM     24  C   UNL     1      -1.692  14.827  24.263  0.00  0.00    +0.000 C 
ENDBRANCH   4  23
TORSDOF 4
ENDMDL
MODEL 6
REMARK VINA RESULT:      -5.6      2.657      4.030
REMARK  Name = 
REMARK  7 active torsions:
REMARK  status: ('A' for Active; 'I' for Inactive)
REMARK    1  A    between atoms: C_1  and  O_2
REMARK    2  A    between atoms: O_2  and  C_3
REMARK    3  A    between atoms: C_6  and  O_7
REMARK    4  A    between atoms: O_7  and  C_8
REMARK    5  A    between atoms: N_11  and  S_12
REMARK    6  A    between atoms: S_12  and  C_15
REMARK    7  A    between atoms: C_21  and  C_22
REMARK                            x       y       z     vdW  Elec       q    Type
REMARK                         _______ _______ _______ _____ _____    ______ ____
ROOT
ATOM      1  C   UNL     1       6.539   5.868  18.664  0.00  0.00    +0.000 C 
ATOM      2  C   UNL     1       7.613   5.136  17.874  0.00  0.00    +0.000 C 
ATOM      3  C   UNL     1       7.123   4.228  16.731  0.00  0.00    +0.000 C 
ATOM      4  C   UNL     1       5.595   3.982  16.523  0.00  0.00    +0.000 C 
ATOM      5  C   UNL     1       5.180   2.500  16.374  0.00  0.00    +0.000 C 
ATOM      6  C   UNL     1       4.177   2.149  17.464  0.00  0.00    +0.000 C 
ATOM      7  N   UNL     1       3.757   3.399  18.105  0.00  0.00    +0.000 NA
ATOM      8  C   UNL     1       4.686   4.499  17.680  0.00  0.00    +0.000 C 
ATOM      9  C   UNL     1       5.424   4.890  18.957  0.00  0.00    +0.000 C 
ENDROOT
BRANCH   7  10
ATOM     10  S   UNL     1       2.110   3.815  18.126  0.00  0.00    +0.000 S 
ATOM     11  O   UNL     1       1.636   3.878  16.752  0.00  0.00    +0.000 OA
ATOM     12  O   UNL     1       1.463   2.939  19.084  0.00  0.00    +0.000 OA
BRANCH  10  13
ATOM     13  C   UNL     1       2.044   5.488  18.769  0.00  0.00    +0.000 A 
ATOM     14  C   UNL     1       2.117   6.528  17.825  0.00  0.00    +0.000 A 
ATOM     15  C   UNL     1       2.134   7.852  18.244  0.00  0.00    +0.000 A 
ATOM     16  F   UNL     1       2.238   8.829  17.334  0.00  0.00    +0.000 F 
ATOM     17  C   UNL     1       2.056   8.178  19.590  0.00  0.00    +0.000 A 
ATOM     18  C   UNL     1       2.008   7.157  20.536  0.00  0.00    +0.000 A 
ATOM     19  C   UNL     1       2.049   5.799  20.150  0.00  0.00    +0.000 A 
ATOM     20  C   UNL     1       2.089   4.784  21.259  0.00  0.00    +0.000 C 
ENDBRANCH  10  13
ENDBRANCH   7  10
BRANCH   1  22
ATOM     21  C   UNL     1       7.179   7.816  17.442  0.00  0.00    +0.000 C 
ATOM     22  O   UNL     1       6.107   7.008  17.922  0.00  0.00    +0.000 OA
ENDBRANCH   1  22
BRANCH   4  23
ATOM     23  O   UNL     1       5.186   4.657  15.295  0.00  0.00    +0.000 OA
ATOM     24  C   UNL     1       5.853   4.287  14.085  0.00  0.00    +0.000 C 
ENDBRANCH   4  23
TORSDOF 4
ENDMDL
MODEL 7
REMARK VINA RESULT:      -5.5      7.738      9.714
REMARK  Name = 
REMARK  7 active torsions:
REMARK  status: ('A' for Active; 'I' for Inactive)
REMARK    1  A    between atoms: C_1  and  O_2
REMARK    2  A    between atoms: O_2  and  C_3
REMARK    3  A    between atoms: C_6  and  O_7
REMARK    4  A    between atoms: O_7  and  C_8
REMARK    5  A    between atoms: N_11  and  S_12
REMARK    6  A    between atoms: S_12  and  C_15
REMARK    7  A    between atoms: C_21  and  C_22
REMARK                            x       y       z     vdW  Elec       q    Type
REMARK                         _______ _______ _______ _____ _____    ______ ____
ROOT
ATOM      1  C   UNL     1       3.606  14.613  21.063  0.00  0.00    +0.000 C 
ATOM      2  C   UNL     1       3.427  15.914  20.296  0.00  0.00    +0.000 C 
ATOM      3  C   UNL     1       1.984  16.286  19.909  0.00  0.00    +0.000 C 
ATOM      4  C   UNL     1       0.816  15.285  20.175  0.00  0.00    +0.000 C 
ATOM      5  C   UNL     1      -0.119  15.027  18.970  0.00  0.00    +0.000 C 
ATOM      6  C   UNL     1      -0.112  13.541  18.641  0.00  0.00    +0.000 C 
ATOM      7  N   UNL     1       0.565  12.842  19.737  0.00  0.00    +0.000 NA
ATOM      8  C   UNL     1       1.266  13.853  20.598  0.00  0.00    +0.000 C 
ATOM      9  C   UNL     1       2.750  13.557  20.404  0.00  0.00    +0.000 C 
ENDROOT
BRANCH   7  10
ATOM     10  S   UNL     1      -0.260  11.622  20.585  0.00  0.00    +0.000 S 
ATOM     11  O   UNL     1      -0.109  11.871  22.010  0.00  0.00    +0.000 OA
ATOM     12  O   UNL     1      -1.580  11.515  19.996  0.00  0.00    +0.000 OA
BRANCH  10  13
ATOM     13  C   UNL     1       0.631  10.105  20.232  0.00  0.00    +0.000 A 
ATOM     14  C   UNL     1       1.193   9.991  18.948  0.00  0.00    +0.000 A 
ATOM     15  C   UNL     1       1.846   8.824  18.572  0.00  0.00    +0.000 A 
ATOM     16  F   UNL     1       2.347   8.718  17.335  0.00  0.00    +0.000 F 
ATOM     17  C   UNL     1       1.979   7.762  19.455  0.00  0.00    +0.000 A 
ATOM     18  C   UNL     1       1.405   7.853  20.721  0.00  0.00    +0.000 A 
ATOM     19  C   UNL     1       0.683   9.001  21.116  0.00  0.00    +0.000 A 
ATOM     20  C   UNL     1       0.025   8.951  22.467  0.00  0.00    +0.000 C 
ENDBRANCH  10  13
ENDBRANCH   7  10
BRANCH   1  22
ATOM     21  C   UNL     1       4.021  15.884  23.041  0.00  0.00    +0.000 C 
ATOM     22  O   UNL     1       3.278  14.829  22.435  0.00  0.00    +0.000 OA
ENDBRANCH   1  22
BRANCH   4  23
ATOM     23  O   UNL     1      -0.017  15.829  21.243  0.00  0.00    +0.000 OA
ATOM     24  C   UNL     1       0.030  15.175  22.514  0.00  0.00    +0.000 C 
ENDBRANCH   4  23
TORSDOF 4
ENDMDL
MODEL 8
REMARK VINA RESULT:      -5.5      8.462     10.063
REMARK  Name = 
REMARK  7 active torsions:
REMARK  status: ('A' for Active; 'I' for Inactive)
REMARK    1  A    between atoms: C_1  and  O_2
REMARK    2  A    between atoms: O_2  and  C_3
REMARK    3  A    between atoms: C_6  and  O_7
REMARK    4  A    between atoms: O_7  and  C_8
REMARK    5  A    between atoms: N_11  and  S_12
REMARK    6  A    between atoms: S_12  and  C_15
REMARK    7  A    between atoms: C_21  and  C_22
REMARK                            x       y       z     vdW  Elec       q    Type
REMARK                         _______ _______ _______ _____ _____    ______ ____
ROOT
ATOM      1  C   UNL     1       1.886  15.052  18.630  0.00  0.00    +0.000 C 
ATOM      2  C   UNL     1       2.124  16.399  19.294  0.00  0.00    +0.000 C 
ATOM      3  C   UNL     1       1.997  16.439  20.828  0.00  0.00    +0.000 C 
ATOM      4  C   UNL     1       1.502  15.180  21.608  0.00  0.00    +0.000 C 
ATOM      5  C   UNL     1       0.369  15.440  22.627  0.00  0.00    +0.000 C 
ATOM      6  C   UNL     1      -0.837  14.582  22.265  0.00  0.00    +0.000 C 
ATOM      7  N   UNL     1      -0.412  13.623  21.242  0.00  0.00    +0.000 NA
ATOM      8  C   UNL     1       0.929  14.039  20.712  0.00  0.00    +0.000 C 
ATOM      9  C   UNL     1       0.662  14.428  19.261  0.00  0.00    +0.000 C 
ENDROOT
BRANCH   7  10
ATOM     10  S   UNL     1      -0.585  11.958  21.536  0.00  0.00    +0.000 S 
ATOM     11  O   UNL     1       0.714  11.420  21.910  0.00  0.00    +0.000 OA
ATOM     12  O   UNL     1      -1.725  11.800  22.418  0.00  0.00    +0.000 OA
BRANCH  10  13
ATOM     13  C   UNL     1      -1.005  11.231  19.950  0.00  0.00    +0.000 A 
ATOM     14  C   UNL     1      -0.022  10.425  19.348  0.00  0.00    +0.000 A 
ATOM     15  C   UNL     1      -0.243   9.874  18.092  0.00  0.00    +0.000 A 
ATOM     16  F   UNL     1       0.716   9.137  17.518  0.00  0.00    +0.000 F 
ATOM     17  C   UNL     1      -1.438  10.084  17.419  0.00  0.00    +0.000 A 
ATOM     18  C   UNL     1      -2.409  10.900  17.994  0.00  0.00    +0.000 A 
ATOM     19  C   UNL     1      -2.195  11.524  19.242  0.00  0.00    +0.000 A 
ATOM     20  C   UNL     1      -3.271  12.459  19.721  0.00  0.00    +0.000 C 
ENDBRANCH  10  13
ENDBRANCH   7  10
BRANCH   1  22
ATOM     21  C   UNL     1       4.220  14.835  18.179  0.00  0.00    +0.000 C 
ATOM     22  O   UNL     1       3.059  14.250  18.763  0.00  0.00    +0.000 OA
ENDBRANCH   1  22
BRANCH   4  23
ATOM     23  O   UNL     1       2.628  14.638  22.361  0.00  0.00    +0.000 OA
ATOM     24  C   UNL     1       3.860  15.363  22.321  0.00  0.00    +0.000 C 
ENDBRANCH   4  23
TORSDOF 4
ENDMDL
MODEL 9
REMARK VINA RESULT:      -5.5      9.960     11.792
REMARK  Name = 
REMARK  7 active torsions:
REMARK  status: ('A' for Active; 'I' for Inactive)
REMARK    1  A    between atoms: C_1  and  O_2
REMARK    2  A    between atoms: O_2  and  C_3
REMARK    3  A    between atoms: C_6  and  O_7
REMARK    4  A    between atoms: O_7  and  C_8
REMARK    5  A    between atoms: N_11  and  S_12
REMARK    6  A    between atoms: S_12  and  C_15
REMARK    7  A    between atoms: C_21  and  C_22
REMARK                            x       y       z     vdW  Elec       q    Type
REMARK                         _______ _______ _______ _____ _____    ______ ____
ROOT
ATOM      1  C   UNL     1      -1.871  11.587  17.803  0.00  0.00    +0.000 C 
ATOM      2  C   UNL     1      -1.125  10.349  18.277  0.00  0.00    +0.000 C 
ATOM      3  C   UNL     1      -0.413  10.458  19.637  0.00  0.00    +0.000 C 
ATOM      4  C   UNL     1      -0.356  11.826  20.387  0.00  0.00    +0.000 C 
ATOM      5  C   UNL     1       1.046  12.250  20.882  0.00  0.00    +0.000 C 
ATOM      6  C   UNL     1       1.412  13.592  20.263  0.00  0.00    +0.000 C 
ATOM      7  N   UNL     1       0.207  14.135  19.628  0.00  0.00    +0.000 NA
ATOM      8  C   UNL     1      -0.829  13.053  19.546  0.00  0.00    +0.000 C 
ATOM      9  C   UNL     1      -0.990  12.790  18.052  0.00  0.00    +0.000 C 
ENDROOT
BRANCH   7  10
ATOM     10  S   UNL     1      -0.376  15.657  20.111  0.00  0.00    +0.000 S 
ATOM     11  O   UNL     1      -1.825  15.580  20.215  0.00  0.00    +0.000 OA
ATOM     12  O   UNL     1       0.419  16.074  21.249  0.00  0.00    +0.000 OA
BRANCH  10  13
ATOM     13  C   UNL     1      -0.017  16.765  18.746  0.00  0.00    +0.000 A 
ATOM     14  C   UNL     1       1.269  16.672  18.184  0.00  0.00    +0.000 A 
ATOM     15  C   UNL     1       1.650  17.536  17.164  0.00  0.00    +0.000 A 
ATOM     16  F   UNL     1       2.889  17.457  16.663  0.00  0.00    +0.000 F 
ATOM     17  C   UNL     1       0.770  18.485  16.665  0.00  0.00    +0.000 A 
ATOM     18  C   UNL     1      -0.498  18.603  17.230  0.00  0.00    +0.000 A 
ATOM     19  C   UNL     1      -0.897  17.781  18.307  0.00  0.00    +0.000 A 
ATOM     20  C   UNL     1      -2.250  18.061  18.901  0.00  0.00    +0.000 C 
ENDBRANCH  10  13
ENDBRANCH   7  10
BRANCH   1  22
ATOM     21  C   UNL     1      -4.239  11.335  17.640  0.00  0.00    +0.000 C 
ATOM     22  O   UNL     1      -3.128  11.662  18.472  0.00  0.00    +0.000 OA
ENDBRANCH   1  22
BRANCH   4  23
ATOM     23  O   UNL     1      -1.208  11.736  21.568  0.00  0.00    +0.000 OA
ATOM     24  C   UNL     1      -2.353  12.592  21.623  0.00  0.00    +0.000 C 
ENDBRANCH   4  23
TORSDOF 4
ENDMDL
