MODEL 1
REMARK VINA RESULT:      -6.5      0.000      0.000
REMARK  Name = 
REMARK  11 active torsions:
REMARK  status: ('A' for Active; 'I' for Inactive)
REMARK    1  A    between atoms: CD1_1  and  CG1_2
REMARK    2  A    between atoms: CG1_2  and  CB_3
REMARK    3  A    between atoms: CB_3  and  CG2_4
REMARK    4  A    between atoms: CB_3  and  CA_5
REMARK    5  A    between atoms: CA_5  and  N_6
REMARK    6  A    between atoms: CA_5  and  C_15
REMARK    7  A    between atoms: C_7  and  CA_9
REMARK    8  A    between atoms: CA_9  and  N_10
REMARK    9  A    between atoms: C_11  and  CA_13
REMARK   10  A    between atoms: CA_13  and  N_14
REMARK   11  A    between atoms: C_15  and  OXT_17
REMARK                            x       y       z     vdW  Elec       q    Type
REMARK                         _______ _______ _______ _____ _____    ______ ____
ROOT
ATOM      1  N   ILE A   3       5.110   3.882  18.109  0.00  0.00    +0.000 N 
ATOM      2  C   GLY A   2       6.280   4.586  18.326  0.00  0.00    +0.000 C 
ATOM      3  O   GLY A   2       6.613   5.009  19.428  0.00  0.00    +0.000 OA
ATOM      4  H   ILE A   3       4.762   3.882  17.147  0.00  0.00    +0.000 HD
ENDROOT
BRANCH   1   5
ATOM      5  CA  ILE A   3       4.187   3.536  19.211  0.00  0.00    +0.000 C 
BRANCH   5   6
ATOM      6  CB  ILE A   3       2.698   3.870  18.937  0.00  0.00    +0.000 C 
ATOM      7  CG2 ILE A   3       2.596   4.995  17.886  0.00  0.00    +0.000 C 
BRANCH   6   9
ATOM      8  CD1 ILE A   3       1.233   3.149  20.954  0.00  0.00    +0.000 C 
ATOM      9  CG1 ILE A   3       1.834   4.282  20.145  0.00  0.00    +0.000 C 
ENDBRANCH   6   9
ENDBRANCH   5   6
BRANCH   5  10
ATOM     10  C   ILE A   3       4.471   2.091  19.671  0.00  0.00    +0.000 C 
ATOM     11  O   ILE A   3       5.060   1.758  20.690  0.00  0.00    +0.000 OA
BRANCH  10  12
ATOM     12  OXT ILE A   3       4.111   1.181  18.727  0.00  0.00    +0.000 OA
ATOM     13  HXT ILE A   3       3.484   0.532  19.108  0.00  0.00    +0.000 HD
ENDBRANCH  10  12
ENDBRANCH   5  10
ENDBRANCH   1   5
BRANCH   2  14
ATOM     14  CA  GLY A   2       7.131   4.794  17.070  0.00  0.00    +0.000 C 
BRANCH  14  15
ATOM     15  N   GLY A   2       6.533   4.183  15.908  0.00  0.00    +0.000 N 
ATOM     16  C   GLY A   1       6.853   4.561  14.629  0.00  0.00    +0.000 C 
ATOM     17  O   GLY A   1       7.685   5.432  14.389  0.00  0.00    +0.000 OA
ATOM     18  H   GLY A   2       5.940   3.360  15.998  0.00  0.00    +0.000 HD
BRANCH  16  19
ATOM     19  CA  GLY A   1       6.067   3.816  13.546  0.00  0.00    +0.000 C 
BRANCH  19  20
ATOM     20  N   GLY A   1       6.794   3.858  12.263  0.00  0.00    +0.000 NA
ATOM     21  H1  GLY A   1       6.354   3.196  11.622  0.00  0.00    +0.000 HD
ATOM     22  H2  GLY A   1       7.736   3.493  12.417  0.00  0.00    +0.000 HD
ENDBRANCH  19  20
ENDBRANCH  16  19
ENDBRANCH  14  15
ENDBRANCH   2  14
TORSDOF 9
ENDMDL
MODEL 2
REMARK VINA RESULT:      -6.4      1.329      1.541
REMARK  Name = 
REMARK  11 active torsions:
REMARK  status: ('A' for Active; 'I' for Inactive)
REMARK    1  A    between atoms: CD1_1  and  CG1_2
REMARK    2  A    between atoms: CG1_2  and  CB_3
REMARK    3  A    between atoms: CB_3  and  CG2_4
REMARK    4  A    between atoms: CB_3  and  CA_5
REMARK    5  A    between atoms: CA_5  and  N_6
REMARK    6  A    between atoms: CA_5  and  C_15
REMARK    7  A    between atoms: C_7  and  CA_9
REMARK    8  A    between atoms: CA_9  and  N_10
REMARK    9  A    between atoms: C_11  and  CA_13
REMARK   10  A    between atoms: CA_13  and  N_14
REMARK   11  A    between atoms: C_15  and  OXT_17
REMARK                            x       y       z     vdW  Elec       q    Type
REMARK                         _______ _______ _______ _____ _____    ______ ____
ROOT
ATOM      1  N   ILE A   3       5.500   3.622  18.672  0.00  0.00    +0.000 N 
ATOM      2  C   GLY A   2       6.377   4.670  18.879  0.00  0.00    +0.000 C 
ATOM      3  O   GLY A   2       6.123   5.623  19.607  0.00  0.00    +0.000 OA
ATOM      4  H   ILE A   3       5.646   3.082  17.816  0.00  0.00    +0.000 HD
ENDROOT
BRANCH   1   5
ATOM      5  CA  ILE A   3       4.195   3.544  19.362  0.00  0.00    +0.000 C 
BRANCH   5   6
ATOM      6  CB  ILE A   3       2.963   3.593  18.422  0.00  0.00    +0.000 C 
ATOM      7  CG2 ILE A   3       1.983   4.687  18.895  0.00  0.00    +0.000 C 
BRANCH   6   9
ATOM      8  CD1 ILE A   3       0.745   2.299  18.802  0.00  0.00    +0.000 C 
ATOM      9  CG1 ILE A   3       2.157   2.290  18.248  0.00  0.00    +0.000 C 
ENDBRANCH   6   9
ENDBRANCH   5   6
BRANCH   5  10
ATOM     10  C   ILE A   3       4.222   2.369  20.362  0.00  0.00    +0.000 C 
ATOM     11  O   ILE A   3       3.574   2.283  21.395  0.00  0.00    +0.000 OA
BRANCH  10  12
ATOM     12  OXT ILE A   3       5.182   1.460  20.046  0.00  0.00    +0.000 OA
ATOM     13  HXT ILE A   3       4.805   0.760  19.473  0.00  0.00    +0.000 HD
ENDBRANCH  10  12
ENDBRANCH   5  10
ENDBRANCH   1   5
BRANCH   2  14
ATOM     14  CA  GLY A   2       7.702   4.541  18.121  0.00  0.00    +0.000 C 
BRANCH  14  15
ATOM     15  N   GLY A   2       7.495   4.297  16.715  0.00  0.00    +0.000 N 
ATOM     16  C   GLY A   1       7.274   5.308  15.814  0.00  0.00    +0.000 C 
ATOM     17  O   GLY A   1       7.258   6.491  16.146  0.00  0.00    +0.000 OA
ATOM     18  H   GLY A   2       7.630   3.367  16.321  0.00  0.00    +0.000 HD
BRANCH  16  19
ATOM     19  CA  GLY A   1       7.033   4.823  14.382  0.00  0.00    +0.000 C 
BRANCH  19  20
ATOM     20  N   GLY A   1       6.295   3.545  14.391  0.00  0.00    +0.000 NA
ATOM     21  H1  GLY A   1       6.972   2.783  14.445  0.00  0.00    +0.000 HD
ATOM     22  H2  GLY A   1       5.840   3.433  13.483  0.00  0.00    +0.000 HD
ENDBRANCH  19  20
ENDBRANCH  16  19
ENDBRANCH  14  15
ENDBRANCH   2  14
TORSDOF 9
ENDMDL
MODEL 3
REMARK VINA RESULT:      -6.3      1.226      1.311
REMARK  Name = 
REMARK  11 active torsions:
REMARK  status: ('A' for Active; 'I' for Inactive)
REMARK    1  A    between atoms: CD1_1  and  CG1_2
REMARK    2  A    between atoms: CG1_2  and  CB_3
REMARK    3  A    between atoms: CB_3  and  CG2_4
REMARK    4  A    between atoms: CB_3  and  CA_5
REMARK    5  A    between atoms: CA_5  and  N_6
REMARK    6  A    between atoms: CA_5  and  C_15
REMARK    7  A    between atoms: C_7  and  CA_9
REMARK    8  A    between atoms: CA_9  and  N_10
REMARK    9  A    between atoms: C_11  and  CA_13
REMARK   10  A    between atoms: CA_13  and  N_14
REMARK   11  A    between atoms: C_15  and  OXT_17
REMARK                            x       y       z     vdW  Elec       q    Type
REMARK                         _______ _______ _______ _____ _____    ______ ____
ROOT
ATOM      1  N   ILE A   3       5.664   3.626  18.580  0.00  0.00    +0.000 N 
ATOM      2  C   GLY A   2       6.228   4.852  18.875  0.00  0.00    +0.000 C 
ATOM      3  O   GLY A   2       5.716   5.660  19.642  0.00  0.00    +0.000 OA
ATOM      4  H   ILE A   3       5.966   3.196  17.703  0.00  0.00    +0.000 HD
ENDROOT
BRANCH   1   5
ATOM      5  CA  ILE A   3       4.410   3.167  19.215  0.00  0.00    +0.000 C 
BRANCH   5   6
ATOM      6  CB  ILE A   3       3.165   3.208  18.292  0.00  0.00    +0.000 C 
ATOM      7  CG2 ILE A   3       3.542   3.819  16.927  0.00  0.00    +0.000 C 
BRANCH   6   9
ATOM      8  CD1 ILE A   3       1.148   3.283  19.925  0.00  0.00    +0.000 C 
ATOM      9  CG1 ILE A   3       1.926   3.963  18.813  0.00  0.00    +0.000 C 
ENDBRANCH   6   9
ENDBRANCH   5   6
BRANCH   5  10
ATOM     10  C   ILE A   3       4.667   1.821  19.925  0.00  0.00    +0.000 C 
ATOM     11  O   ILE A   3       5.067   1.673  21.071  0.00  0.00    +0.000 OA
BRANCH  10  12
ATOM     12  OXT ILE A   3       4.537   0.768  19.074  0.00  0.00    +0.000 OA
ATOM     13  HXT ILE A   3       5.406   0.545  18.681  0.00  0.00    +0.000 HD
ENDBRANCH  10  12
ENDBRANCH   5  10
ENDBRANCH   1   5
BRANCH   2  14
ATOM     14  CA  GLY A   2       7.557   5.121  18.162  0.00  0.00    +0.000 C 
BRANCH  14  15
ATOM     15  N   GLY A   2       7.526   4.688  16.786  0.00  0.00    +0.000 N 
ATOM     16  C   GLY A   1       6.904   5.410  15.799  0.00  0.00    +0.000 C 
ATOM     17  O   GLY A   1       6.350   6.484  16.020  0.00  0.00    +0.000 OA
ATOM     18  H   GLY A   2       8.075   3.887  16.479  0.00  0.00    +0.000 HD
BRANCH  16  19
ATOM     19  CA  GLY A   1       6.951   4.746  14.420  0.00  0.00    +0.000 C 
BRANCH  19  20
ATOM     20  N   GLY A   1       6.166   3.496  14.426  0.00  0.00    +0.000 NA
ATOM     21  H1  GLY A   1       6.457   2.929  13.628  0.00  0.00    +0.000 HD
ATOM     22  H2  GLY A   1       5.189   3.732  14.242  0.00  0.00    +0.000 HD
ENDBRANCH  19  20
ENDBRANCH  16  19
ENDBRANCH  14  15
ENDBRANCH   2  14
TORSDOF 9
ENDMDL
MODEL 4
REMARK VINA RESULT:      -6.3      1.416      1.735
REMARK  Name = 
REMARK  11 active torsions:
REMARK  status: ('A' for Active; 'I' for Inactive)
REMARK    1  A    between atoms: CD1_1  and  CG1_2
REMARK    2  A    between atoms: CG1_2  and  CB_3
REMARK    3  A    between atoms: CB_3  and  CG2_4
REMARK    4  A    between atoms: CB_3  and  CA_5
REMARK    5  A    between atoms: CA_5  and  N_6
REMARK    6  A    between atoms: CA_5  and  C_15
REMARK    7  A    between atoms: C_7  and  CA_9
REMARK    8  A    between atoms: CA_9  and  N_10
REMARK    9  A    between atoms: C_11  and  CA_13
REMARK   10  A    between atoms: CA_13  and  N_14
REMARK   11  A    between atoms: C_15  and  OXT_17
REMARK                            x       y       z     vdW  Elec       q    Type
REMARK                         _______ _______ _______ _____ _____    ______ ____
ROOT
ATOM      1  N   ILE A   3       4.387   4.917  18.650  0.00  0.00    +0.000 N 
ATOM      2  C   GLY A   2       5.699   5.273  18.899  0.00  0.00    +0.000 C 
ATOM      3  O   GLY A   2       6.336   4.858  19.862  0.00  0.00    +0.000 OA
ATOM      4  H   ILE A   3       3.856   5.559  18.057  0.00  0.00    +0.000 HD
ENDROOT
BRANCH   1   5
ATOM      5  CA  ILE A   3       3.659   3.956  19.507  0.00  0.00    +0.000 C 
BRANCH   5   6
ATOM      6  CB  ILE A   3       2.139   4.230  19.638  0.00  0.00    +0.000 C 
ATOM      7  CG2 ILE A   3       1.904   5.527  20.440  0.00  0.00    +0.000 C 
BRANCH   6   9
ATOM      8  CD1 ILE A   3       1.649   2.721  21.693  0.00  0.00    +0.000 C 
ATOM      9  CG1 ILE A   3       1.276   3.125  20.279  0.00  0.00    +0.000 C 
ENDBRANCH   6   9
ENDBRANCH   5   6
BRANCH   5  10
ATOM     10  C   ILE A   3       4.044   2.520  19.094  0.00  0.00    +0.000 C 
ATOM     11  O   ILE A   3       3.512   1.853  18.217  0.00  0.00    +0.000 OA
BRANCH  10  12
ATOM     12  OXT ILE A   3       4.979   1.989  19.925  0.00  0.00    +0.000 OA
ATOM     13  HXT ILE A   3       4.936   1.011  19.897  0.00  0.00    +0.000 HD
ENDBRANCH  10  12
ENDBRANCH   5  10
ENDBRANCH   1   5
BRANCH   2  14
ATOM     14  CA  GLY A   2       6.298   6.232  17.867  0.00  0.00    +0.000 C 
BRANCH  14  15
ATOM     15  N   GLY A   2       6.783   5.533  16.702  0.00  0.00    +0.000 N 
ATOM     16  C   GLY A   1       6.193   5.654  15.469  0.00  0.00    +0.000 C 
ATOM     17  O   GLY A   1       5.224   6.382  15.273  0.00  0.00    +0.000 OA
ATOM     18  H   GLY A   2       7.662   5.019  16.730  0.00  0.00    +0.000 HD
BRANCH  16  19
ATOM     19  CA  GLY A   1       6.840   4.790  14.383  0.00  0.00    +0.000 C 
BRANCH  19  20
ATOM     20  N   GLY A   1       7.928   5.532  13.717  0.00  0.00    +0.000 NA
ATOM     21  H1  GLY A   1       7.581   6.461  13.472  0.00  0.00    +0.000 HD
ATOM     22  H2  GLY A   1       8.125   5.078  12.824  0.00  0.00    +0.000 HD
ENDBRANCH  19  20
ENDBRANCH  16  19
ENDBRANCH  14  15
ENDBRANCH   2  14
TORSDOF 9
ENDMDL
MODEL 5
REMARK VINA RESULT:      -6.2      1.533      1.924
REMARK  Name = 
REMARK  11 active torsions:
REMARK  status: ('A' for Active; 'I' for Inactive)
REMARK    1  A    between atoms: CD1_1  and  CG1_2
REMARK    2  A    between atoms: CG1_2  and  CB_3
REMARK    3  A    between atoms: CB_3  and  CG2_4
REMARK    4  A    between atoms: CB_3  and  CA_5
REMARK    5  A    between atoms: CA_5  and  N_6
REMARK    6  A    between atoms: CA_5  and  C_15
REMARK    7  A    between atoms: C_7  and  CA_9
REMARK    8  A    between atoms: CA_9  and  N_10
REMARK    9  A    between atoms: C_11  and  CA_13
REMARK   10  A    between atoms: CA_13  and  N_14
REMARK   11  A    between atoms: C_15  and  OXT_17
REMARK                            x       y       z     vdW  Elec       q    Type
REMARK                         _______ _______ _______ _____ _____    ______ ____
ROOT
ATOM      1  N   ILE A   3       4.017   4.905  18.498  0.00  0.00    +0.000 N 
ATOM      2  C   GLY A   2       5.389   4.948  18.656  0.00  0.00    +0.000 C 
ATOM      3  O   GLY A   2       6.005   4.180  19.386  0.00  0.00    +0.000 OA
ATOM      4  H   ILE A   3       3.579   5.768  18.165  0.00  0.00    +0.000 HD
ENDROOT
BRANCH   1   5
ATOM      5  CA  ILE A   3       3.182   3.882  19.164  0.00  0.00    +0.000 C 
BRANCH   5   6
ATOM      6  CB  ILE A   3       1.870   4.423  19.786  0.00  0.00    +0.000 C 
ATOM      7  CG2 ILE A   3       1.991   5.941  20.034  0.00  0.00    +0.000 C 
BRANCH   6   9
ATOM      8  CD1 ILE A   3       2.194   2.582  21.586  0.00  0.00    +0.000 C 
ATOM      9  CG1 ILE A   3       1.391   3.774  21.099  0.00  0.00    +0.000 C 
ENDBRANCH   6   9
ENDBRANCH   5   6
BRANCH   5  10
ATOM     10  C   ILE A   3       3.023   2.670  18.223  0.00  0.00    +0.000 C 
ATOM     11  O   ILE A   3       2.050   2.418  17.527  0.00  0.00    +0.000 OA
BRANCH  10  12
ATOM     12  OXT ILE A   3       4.055   1.794  18.349  0.00  0.00    +0.000 OA
ATOM     13  HXT ILE A   3       3.909   1.214  19.126  0.00  0.00    +0.000 HD
ENDBRANCH  10  12
ENDBRANCH   5  10
ENDBRANCH   1   5
BRANCH   2  14
ATOM     14  CA  GLY A   2       6.083   6.042  17.838  0.00  0.00    +0.000 C 
BRANCH  14  15
ATOM     15  N   GLY A   2       6.113   5.722  16.431  0.00  0.00    +0.000 N 
ATOM     16  C   GLY A   1       7.052   4.884  15.884  0.00  0.00    +0.000 C 
ATOM     17  O   GLY A   1       7.916   4.335  16.562  0.00  0.00    +0.000 OA
ATOM     18  H   GLY A   2       5.358   6.014  15.813  0.00  0.00    +0.000 HD
BRANCH  16  19
ATOM     19  CA  GLY A   1       6.929   4.719  14.367  0.00  0.00    +0.000 C 
BRANCH  19  20
ATOM     20  N   GLY A   1       7.942   5.543  13.678  0.00  0.00    +0.000 NA
ATOM     21  H1  GLY A   1       7.462   6.157  13.018  0.00  0.00    +0.000 HD
ATOM     22  H2  GLY A   1       8.515   4.927  13.100  0.00  0.00    +0.000 HD
ENDBRANCH  19  20
ENDBRANCH  16  19
ENDBRANCH  14  15
ENDBRANCH   2  14
TORSDOF 9
ENDMDL
MODEL 6
REMARK VINA RESULT:      -6.2      1.417      1.699
REMARK  Name = 
REMARK  11 active torsions:
REMARK  status: ('A' for Active; 'I' for Inactive)
REMARK    1  A    between atoms: CD1_1  and  CG1_2
REMARK    2  A    between atoms: CG1_2  and  CB_3
REMARK    3  A    between atoms: CB_3  and  CG2_4
REMARK    4  A    between atoms: CB_3  and  CA_5
REMARK    5  A    between atoms: CA_5  and  N_6
REMARK    6  A    between atoms: CA_5  and  C_15
REMARK    7  A    between atoms: C_7  and  CA_9
REMARK    8  A    between atoms: CA_9  and  N_10
REMARK    9  A    between atoms: C_11  and  CA_13
REMARK   10  A    between atoms: CA_13  and  N_14
REMARK   11  A    between atoms: C_15  and  OXT_17
REMARK                            x       y       z     vdW  Elec       q    Type
REMARK                         _______ _______ _______ _____ _____    ______ ____
ROOT
ATOM      1  N   ILE A   3       4.772   5.327  18.489  0.00  0.00    +0.000 N 
ATOM      2  C   GLY A   2       6.096   5.610  18.767  0.00  0.00    +0.000 C 
ATOM      3  O   GLY A   2       6.686   5.164  19.745  0.00  0.00    +0.000 OA
ATOM      4  H   ILE A   3       4.292   5.995  17.881  0.00  0.00    +0.000 HD
ENDROOT
BRANCH   1   5
ATOM      5  CA  ILE A   3       3.971   4.414  19.333  0.00  0.00    +0.000 C 
BRANCH   5   6
ATOM      6  CB  ILE A   3       2.461   4.754  19.401  0.00  0.00    +0.000 C 
ATOM      7  CG2 ILE A   3       2.265   6.167  19.987  0.00  0.00    +0.000 C 
BRANCH   6   9
ATOM      8  CD1 ILE A   3       0.649   2.894  19.377  0.00  0.00    +0.000 C 
ATOM      9  CG1 ILE A   3       1.557   3.791  20.197  0.00  0.00    +0.000 C 
ENDBRANCH   6   9
ENDBRANCH   5   6
BRANCH   5  10
ATOM     10  C   ILE A   3       4.309   2.955  18.957  0.00  0.00    +0.000 C 
ATOM     11  O   ILE A   3       3.857   2.330  18.008  0.00  0.00    +0.000 OA
BRANCH  10  12
ATOM     12  OXT ILE A   3       5.084   2.358  19.900  0.00  0.00    +0.000 OA
ATOM     13  HXT ILE A   3       6.002   2.265  19.570  0.00  0.00    +0.000 HD
ENDBRANCH  10  12
ENDBRANCH   5  10
ENDBRANCH   1   5
BRANCH   2  14
ATOM     14  CA  GLY A   2       6.771   6.529  17.744  0.00  0.00    +0.000 C 
BRANCH  14  15
ATOM     15  N   GLY A   2       6.488   6.125  16.389  0.00  0.00    +0.000 N 
ATOM     16  C   GLY A   1       7.131   5.076  15.781  0.00  0.00    +0.000 C 
ATOM     17  O   GLY A   1       7.977   4.401  16.360  0.00  0.00    +0.000 OA
ATOM     18  H   GLY A   2       5.706   6.530  15.876  0.00  0.00    +0.000 HD
BRANCH  16  19
ATOM     19  CA  GLY A   1       6.710   4.849  14.326  0.00  0.00    +0.000 C 
BRANCH  19  20
ATOM     20  N   GLY A   1       6.239   3.463  14.139  0.00  0.00    +0.000 NA
ATOM     21  H1  GLY A   1       5.249   3.424  14.387  0.00  0.00    +0.000 HD
ATOM     22  H2  GLY A   1       6.709   2.870  14.826  0.00  0.00    +0.000 HD
ENDBRANCH  19  20
ENDBRANCH  16  19
ENDBRANCH  14  15
ENDBRANCH   2  14
TORSDOF 9
ENDMDL
MODEL 7
REMARK VINA RESULT:      -6.2      2.193      6.268
REMARK  Name = 
REMARK  11 active torsions:
REMARK  status: ('A' for Active; 'I' for Inactive)
REMARK    1  A    between atoms: CD1_1  and  CG1_2
REMARK    2  A    between atoms: CG1_2  and  CB_3
REMARK    3  A    between atoms: CB_3  and  CG2_4
REMARK    4  A    between atoms: CB_3  and  CA_5
REMARK    5  A    between atoms: CA_5  and  N_6
REMARK    6  A    between atoms: CA_5  and  C_15
REMARK    7  A    between atoms: C_7  and  CA_9
REMARK    8  A    between atoms: CA_9  and  N_10
REMARK    9  A    between atoms: C_11  and  CA_13
REMARK   10  A    between atoms: CA_13  and  N_14
REMARK   11  A    between atoms: C_15  and  OXT_17
REMARK                            x       y       z     vdW  Elec       q    Type
REMARK                         _______ _______ _______ _____ _____    ______ ____
ROOT
ATOM      1  N   ILE A   3       5.509   3.830  16.555  0.00  0.00    +0.000 N 
ATOM      2  C   GLY A   2       4.271   3.911  17.165  0.00  0.00    +0.000 C 
ATOM      3  O   GLY A   2       3.641   4.958  17.266  0.00  0.00    +0.000 OA
ATOM      4  H   ILE A   3       6.086   3.029  16.822  0.00  0.00    +0.000 HD
ENDROOT
BRANCH   1   5
ATOM      5  CA  ILE A   3       6.150   5.004  15.924  0.00  0.00    +0.000 C 
BRANCH   5   6
ATOM      6  CB  ILE A   3       7.185   5.734  16.817  0.00  0.00    +0.000 C 
ATOM      7  CG2 ILE A   3       7.643   4.804  17.960  0.00  0.00    +0.000 C 
BRANCH   6   9
ATOM      8  CD1 ILE A   3       7.850   8.094  17.670  0.00  0.00    +0.000 C 
ATOM      9  CG1 ILE A   3       6.751   7.071  17.451  0.00  0.00    +0.000 C 
ENDBRANCH   6   9
ENDBRANCH   5   6
BRANCH   5  10
ATOM     10  C   ILE A   3       6.645   4.612  14.516  0.00  0.00    +0.000 C 
ATOM     11  O   ILE A   3       6.234   3.681  13.838  0.00  0.00    +0.000 OA
BRANCH  10  12
ATOM     12  OXT ILE A   3       7.727   5.345  14.139  0.00  0.00    +0.000 OA
ATOM     13  HXT ILE A   3       7.807   5.346  13.162  0.00  0.00    +0.000 HD
ENDBRANCH  10  12
ENDBRANCH   5  10
ENDBRANCH   1   5
BRANCH   2  14
ATOM     14  CA  GLY A   2       3.748   2.577  17.706  0.00  0.00    +0.000 C 
BRANCH  14  15
ATOM     15  N   GLY A   2       3.042   2.743  18.953  0.00  0.00    +0.000 N 
ATOM     16  C   GLY A   1       3.639   2.541  20.172  0.00  0.00    +0.000 C 
ATOM     17  O   GLY A   1       4.821   2.225  20.281  0.00  0.00    +0.000 OA
ATOM     18  H   GLY A   2       2.104   3.138  18.973  0.00  0.00    +0.000 HD
BRANCH  16  19
ATOM     19  CA  GLY A   1       2.696   2.726  21.364  0.00  0.00    +0.000 C 
BRANCH  19  20
ATOM     20  N   GLY A   1       1.480   3.453  20.948  0.00  0.00    +0.000 NA
ATOM     21  H1  GLY A   1       1.764   4.274  20.410  0.00  0.00    +0.000 HD
ATOM     22  H2  GLY A   1       1.029   3.826  21.784  0.00  0.00    +0.000 HD
ENDBRANCH  19  20
ENDBRANCH  16  19
ENDBRANCH  14  15
ENDBRANCH   2  14
TORSDOF 9
ENDMDL
MODEL 8
REMARK VINA RESULT:      -6.2      0.915      1.332
REMARK  Name = 
REMARK  11 active torsions:
REMARK  status: ('A' for Active; 'I' for Inactive)
REMARK    1  A    between atoms: CD1_1  and  CG1_2
REMARK    2  A    between atoms: CG1_2  and  CB_3
REMARK    3  A    between atoms: CB_3  and  CG2_4
REMARK    4  A    between atoms: CB_3  and  CA_5
REMARK    5  A    between atoms: CA_5  and  N_6
REMARK    6  A    between atoms: CA_5  and  C_15
REMARK    7  A    between atoms: C_7  and  CA_9
REMARK    8  A    between atoms: CA_9  and  N_10
REMARK    9  A    between atoms: C_11  and  CA_13
REMARK   10  A    between atoms: CA_13  and  N_14
REMARK   11  A    between atoms: C_15  and  OXT_17
REMARK                            x       y       z     vdW  Elec       q    Type
REMARK                         _______ _______ _______ _____ _____    ______ ____
ROOT
ATOM      1  N   ILE A   3       4.534   4.469  18.666  0.00  0.00    +0.000 N 
ATOM      2  C   GLY A   2       5.775   5.075  18.712  0.00  0.00    +0.000 C 
ATOM      3  O   GLY A   2       6.460   5.125  19.728  0.00  0.00    +0.000 OA
ATOM      4  H   ILE A   3       3.916   4.775  17.910  0.00  0.00    +0.000 HD
ENDROOT
BRANCH   1   5
ATOM      5  CA  ILE A   3       3.954   3.780  19.839  0.00  0.00    +0.000 C 
BRANCH   5   6
ATOM      6  CB  ILE A   3       2.433   4.004  20.034  0.00  0.00    +0.000 C 
ATOM      7  CG2 ILE A   3       1.912   3.114  21.181  0.00  0.00    +0.000 C 
BRANCH   6   9
ATOM      8  CD1 ILE A   3       0.715   2.484  18.818  0.00  0.00    +0.000 C 
ATOM      9  CG1 ILE A   3       1.523   3.768  18.812  0.00  0.00    +0.000 C 
ENDBRANCH   6   9
ENDBRANCH   5   6
BRANCH   5  10
ATOM     10  C   ILE A   3       4.415   2.307  19.837  0.00  0.00    +0.000 C 
ATOM     11  O   ILE A   3       5.065   1.751  20.710  0.00  0.00    +0.000 OA
BRANCH  10  12
ATOM     12  OXT ILE A   3       4.137   1.693  18.656  0.00  0.00    +0.000 OA
ATOM     13  HXT ILE A   3       3.318   2.066  18.268  0.00  0.00    +0.000 HD
ENDBRANCH  10  12
ENDBRANCH   5  10
ENDBRANCH   1   5
BRANCH   2  14
ATOM     14  CA  GLY A   2       6.228   5.682  17.381  0.00  0.00    +0.000 C 
BRANCH  14  15
ATOM     15  N   GLY A   2       5.842   4.864  16.258  0.00  0.00    +0.000 N 
ATOM     16  C   GLY A   1       6.576   4.804  15.100  0.00  0.00    +0.000 C 
ATOM     17  O   GLY A   1       7.622   5.429  14.953  0.00  0.00    +0.000 OA
ATOM     18  H   GLY A   2       5.070   4.204  16.334  0.00  0.00    +0.000 HD
BRANCH  16  19
ATOM     19  CA  GLY A   1       5.960   3.910  14.020  0.00  0.00    +0.000 C 
BRANCH  19  20
ATOM     20  N   GLY A   1       6.754   3.986  12.777  0.00  0.00    +0.000 NA
ATOM     21  H1  GLY A   1       7.644   4.439  12.992  0.00  0.00    +0.000 HD
ATOM     22  H2  GLY A   1       6.279   4.623  12.134  0.00  0.00    +0.000 HD
ENDBRANCH  19  20
ENDBRANCH  16  19
ENDBRANCH  14  15
ENDBRANCH   2  14
TORSDOF 9
ENDMDL
MODEL 9
REMARK VINA RESULT:      -6.2      1.510      1.790
REMARK  Name = 
REMARK  11 active torsions:
REMARK  status: ('A' for Active; 'I' for Inactive)
REMARK    1  A    between atoms: CD1_1  and  CG1_2
REMARK    2  A    between atoms: CG1_2  and  CB_3
REMARK    3  A    between atoms: CB_3  and  CG2_4
REMARK    4  A    between atoms: CB_3  and  CA_5
REMARK    5  A    between atoms: CA_5  and  N_6
REMARK    6  A    between atoms: CA_5  and  C_15
REMARK    7  A    between atoms: C_7  and  CA_9
REMARK    8  A    between atoms: CA_9  and  N_10
REMARK    9  A    between atoms: C_11  and  CA_13
REMARK   10  A    between atoms: CA_13  and  N_14
REMARK   11  A    between atoms: C_15  and  OXT_17
REMARK                            x       y       z     vdW  Elec       q    Type
REMARK                         _______ _______ _______ _____ _____    ______ ____
ROOT
ATOM      1  N   ILE A   3       4.610   5.343  18.629  0.00  0.00    +0.000 N 
ATOM      2  C   GLY A   2       5.929   5.695  18.844  0.00  0.00    +0.000 C 
ATOM      3  O   GLY A   2       6.583   5.295  19.800  0.00  0.00    +0.000 OA
ATOM      4  H   ILE A   3       4.071   5.977  18.034  0.00  0.00    +0.000 HD
ENDROOT
BRANCH   1   5
ATOM      5  CA  ILE A   3       3.894   4.404  19.519  0.00  0.00    +0.000 C 
BRANCH   5   6
ATOM      6  CB  ILE A   3       2.352   4.559  19.517  0.00  0.00    +0.000 C 
ATOM      7  CG2 ILE A   3       1.773   4.085  20.866  0.00  0.00    +0.000 C 
BRANCH   6   9
ATOM      8  CD1 ILE A   3       0.835   2.577  18.802  0.00  0.00    +0.000 C 
ATOM      9  CG1 ILE A   3       1.573   3.840  18.398  0.00  0.00    +0.000 C 
ENDBRANCH   6   9
ENDBRANCH   5   6
BRANCH   5  10
ATOM     10  C   ILE A   3       4.420   2.975  19.270  0.00  0.00    +0.000 C 
ATOM     11  O   ILE A   3       4.780   2.177  20.124  0.00  0.00    +0.000 OA
BRANCH  10  12
ATOM     12  OXT ILE A   3       4.584   2.721  17.944  0.00  0.00    +0.000 OA
ATOM     13  HXT ILE A   3       3.712   2.663  17.503  0.00  0.00    +0.000 HD
ENDBRANCH  10  12
ENDBRANCH   5  10
ENDBRANCH   1   5
BRANCH   2  14
ATOM     14  CA  GLY A   2       6.512   6.631  17.780  0.00  0.00    +0.000 C 
BRANCH  14  15
ATOM     15  N   GLY A   2       6.381   6.083  16.452  0.00  0.00    +0.000 N 
ATOM     16  C   GLY A   1       7.115   5.006  16.022  0.00  0.00    +0.000 C 
ATOM     17  O   GLY A   1       7.917   4.426  16.748  0.00  0.00    +0.000 OA
ATOM     18  H   GLY A   2       5.645   6.404  15.825  0.00  0.00    +0.000 HD
BRANCH  16  19
ATOM     19  CA  GLY A   1       6.852   4.618  14.564  0.00  0.00    +0.000 C 
BRANCH  19  20
ATOM     20  N   GLY A   1       7.699   5.420  13.660  0.00  0.00    +0.000 NA
ATOM     21  H1  GLY A   1       8.668   5.121  13.777  0.00  0.00    +0.000 HD
ATOM     22  H2  GLY A   1       7.679   6.390  13.979  0.00  0.00    +0.000 HD
ENDBRANCH  19  20
ENDBRANCH  16  19
ENDBRANCH  14  15
ENDBRANCH   2  14
TORSDOF 9
ENDMDL
