MODEL 1
REMARK VINA RESULT:      -8.5      0.000      0.000
REMARK  Name = 
REMARK  7 active torsions:
REMARK  status: ('A' for Active; 'I' for Inactive)
REMARK    1  A    between atoms: O_1  and  C_2
REMARK    2  A    between atoms: C_11  and  C_12
REMARK    3  A    between atoms: C_12  and  C_13
REMARK    4  A    between atoms: C_16  and  O_17
REMARK    5  A    between atoms: O_17  and  C_18
REMARK    6  A    between atoms: C_18  and  C_19
REMARK    7  A    between atoms: C_19  and  N_20
REMARK                            x       y       z     vdW  Elec       q    Type
REMARK                         _______ _______ _______ _____ _____    ______ ____
ROOT
ATOM      1  C   UNL     1       5.711   5.132  17.376  0.00  0.00    +0.000 A 
ATOM      2  C   UNL     1       5.868   6.315  16.646  0.00  0.00    +0.000 A 
ATOM      3  C   UNL     1       6.826   7.263  17.005  0.00  0.00    +0.000 A 
ATOM      4  C   UNL     1       7.645   7.055  18.109  0.00  0.00    +0.000 A 
ATOM      5  C   UNL     1       7.527   5.861  18.824  0.00  0.00    +0.000 A 
ATOM      6  C   UNL     1       6.571   4.903  18.458  0.00  0.00    +0.000 A 
ENDROOT
BRANCH   1   7
ATOM      7  C   UNL     1       4.603   4.162  17.027  0.00  0.00    +0.000 C 
BRANCH   7  17
ATOM      8  C   UNL     1       3.479   2.436  18.474  0.00  0.00    +0.000 A 
ATOM      9  C   UNL     1       2.646   2.032  19.512  0.00  0.00    +0.000 A 
ATOM     10  C   UNL     1       1.962   2.988  20.255  0.00  0.00    +0.000 A 
ATOM     11  C   UNL     1       2.111   4.354  19.985  0.00  0.00    +0.000 A 
ATOM     12  C   UNL     1       1.409   5.293  20.761  0.00  0.00    +0.000 A 
ATOM     13  C   UNL     1       1.534   6.660  20.528  0.00  0.00    +0.000 A 
ATOM     14  C   UNL     1       2.376   7.106  19.523  0.00  0.00    +0.000 A 
ATOM     15  C   UNL     1       3.094   6.183  18.757  0.00  0.00    +0.000 A 
ATOM     16  C   UNL     1       2.973   4.783  18.941  0.00  0.00    +0.000 A 
ATOM     17  C   UNL     1       3.663   3.797  18.166  0.00  0.00    +0.000 A 
BRANCH   8  18
ATOM     18  O   UNL     1       4.155   1.487  17.753  0.00  0.00    +0.000 OA
ATOM     19  H   UNL     1       4.591   1.914  16.999  0.00  0.00    +0.000 HD
ENDBRANCH   8  18
ENDBRANCH   7  17
ENDBRANCH   1   7
BRANCH   4  20
ATOM     20  O   UNL     1       8.565   7.949  18.588  0.00  0.00    +0.000 OA
BRANCH  20  21
ATOM     21  C   UNL     1       8.432   9.315  18.173  0.00  0.00    +0.000 C 
BRANCH  21  22
ATOM     22  C   UNL     1       9.261  10.259  19.070  0.00  0.00    +0.000 C 
BRANCH  22  23
ATOM     23  N   UNL     1       9.763  11.478  18.402  0.00  0.00    +0.000 NA
ATOM     24  C   UNL     1      11.228  11.644  18.502  0.00  0.00    +0.000 C 
ATOM     25  C   UNL     1      11.711  11.959  19.926  0.00  0.00    +0.000 C 
ATOM     26  O   UNL     1      11.080  13.139  20.439  0.00  0.00    +0.000 OA
ATOM     27  C   UNL     1       9.652  13.020  20.408  0.00  0.00    +0.000 C 
ATOM     28  C   UNL     1       9.140  12.690  18.992  0.00  0.00    +0.000 C 
ENDBRANCH  22  23
ENDBRANCH  21  22
ENDBRANCH  20  21
ENDBRANCH   4  20
TORSDOF 7
ENDMDL
MODEL 2
REMARK VINA RESULT:      -8.3      0.648      1.335
REMARK  Name = 
REMARK  7 active torsions:
REMARK  status: ('A' for Active; 'I' for Inactive)
REMARK    1  A    between atoms: O_1  and  C_2
REMARK    2  A    between atoms: C_11  and  C_12
REMARK    3  A    between atoms: C_12  and  C_13
REMARK    4  A    between atoms: C_16  and  O_17
REMARK    5  A    between atoms: O_17  and  C_18
REMARK    6  A    between atoms: C_18  and  C_19
REMARK    7  A    between atoms: C_19  and  N_20
REMARK                            x       y       z     vdW  Elec       q    Type
REMARK                         _______ _______ _______ _____ _____    ______ ____
ROOT
ATOM      1  C   UNL     1       5.745   5.458  17.485  0.00  0.00    +0.000 A 
ATOM      2  C   UNL     1       6.614   5.100  18.521  0.00  0.00    +0.000 A 
ATOM      3  C   UNL     1       7.629   5.958  18.941  0.00  0.00    +0.000 A 
ATOM      4  C   UNL     1       7.806   7.194  18.330  0.00  0.00    +0.000 A 
ATOM      5  C   UNL     1       6.922   7.582  17.321  0.00  0.00    +0.000 A 
ATOM      6  C   UNL     1       5.895   6.724  16.904  0.00  0.00    +0.000 A 
ENDROOT
BRANCH   1   7
ATOM      7  C   UNL     1       4.711   4.474  16.981  0.00  0.00    +0.000 C 
BRANCH   7  17
ATOM      8  C   UNL     1       3.593   2.548  18.154  0.00  0.00    +0.000 A 
ATOM      9  C   UNL     1       2.736   1.993  19.098  0.00  0.00    +0.000 A 
ATOM     10  C   UNL     1       1.992   2.828  19.924  0.00  0.00    +0.000 A 
ATOM     11  C   UNL     1       2.103   4.221  19.832  0.00  0.00    +0.000 A 
ATOM     12  C   UNL     1       1.341   5.033  20.689  0.00  0.00    +0.000 A 
ATOM     13  C   UNL     1       1.427   6.422  20.633  0.00  0.00    +0.000 A 
ATOM     14  C   UNL     1       2.292   7.015  19.728  0.00  0.00    +0.000 A 
ATOM     15  C   UNL     1       3.069   6.217  18.884  0.00  0.00    +0.000 A 
ATOM     16  C   UNL     1       2.989   4.802  18.887  0.00  0.00    +0.000 A 
ATOM     17  C   UNL     1       3.742   3.942  18.025  0.00  0.00    +0.000 A 
BRANCH   8  18
ATOM     18  O   UNL     1       4.327   1.717  17.350  0.00  0.00    +0.000 OA
ATOM     19  H   UNL     1       3.882   1.632  16.492  0.00  0.00    +0.000 HD
ENDBRANCH   8  18
ENDBRANCH   7  17
ENDBRANCH   1   7
BRANCH   4  20
ATOM     20  O   UNL     1       8.812   8.078  18.616  0.00  0.00    +0.000 OA
BRANCH  20  21
ATOM     21  C   UNL     1       8.576   9.460  18.316  0.00  0.00    +0.000 C 
BRANCH  21  22
ATOM     22  C   UNL     1       9.175  10.381  19.399  0.00  0.00    +0.000 C 
BRANCH  22  23
ATOM     23  N   UNL     1      10.500  10.950  19.078  0.00  0.00    +0.000 NA
ATOM     24  C   UNL     1      10.983  11.925  20.078  0.00  0.00    +0.000 C 
ATOM     25  C   UNL     1      10.179  13.234  20.091  0.00  0.00    +0.000 C 
ATOM     26  O   UNL     1      10.186  13.860  18.802  0.00  0.00    +0.000 OA
ATOM     27  C   UNL     1       9.686  12.974  17.792  0.00  0.00    +0.000 C 
ATOM     28  C   UNL     1      10.466  11.645  17.766  0.00  0.00    +0.000 C 
ENDBRANCH  22  23
ENDBRANCH  21  22
ENDBRANCH  20  21
ENDBRANCH   4  20
TORSDOF 7
ENDMDL
MODEL 3
REMARK VINA RESULT:      -8.2      5.370      8.527
REMARK  Name = 
REMARK  7 active torsions:
REMARK  status: ('A' for Active; 'I' for Inactive)
REMARK    1  A    between atoms: O_1  and  C_2
REMARK    2  A    between atoms: C_11  and  C_12
REMARK    3  A    between atoms: C_12  and  C_13
REMARK    4  A    between atoms: C_16  and  O_17
REMARK    5  A    between atoms: O_17  and  C_18
REMARK    6  A    between atoms: C_18  and  C_19
REMARK    7  A    between atoms: C_19  and  N_20
REMARK                            x       y       z     vdW  Elec       q    Type
REMARK                         _______ _______ _______ _____ _____    ______ ____
ROOT
ATOM      1  C   UNL     1       2.060   7.459  19.884  0.00  0.00    +0.000 A 
ATOM      2  C   UNL     1       2.265   7.897  18.572  0.00  0.00    +0.000 A 
ATOM      3  C   UNL     1       1.687   9.077  18.106  0.00  0.00    +0.000 A 
ATOM      4  C   UNL     1       0.882   9.845  18.939  0.00  0.00    +0.000 A 
ATOM      5  C   UNL     1       0.698   9.441  20.263  0.00  0.00    +0.000 A 
ATOM      6  C   UNL     1       1.287   8.260  20.736  0.00  0.00    +0.000 A 
ENDROOT
BRANCH   1   7
ATOM      7  C   UNL     1       2.617   6.127  20.341  0.00  0.00    +0.000 C 
BRANCH   7  17
ATOM      8  C   UNL     1       1.597   4.082  19.286  0.00  0.00    +0.000 A 
ATOM      9  C   UNL     1       1.549   3.059  18.345  0.00  0.00    +0.000 A 
ATOM     10  C   UNL     1       2.560   2.950  17.396  0.00  0.00    +0.000 A 
ATOM     11  C   UNL     1       3.620   3.865  17.363  0.00  0.00    +0.000 A 
ATOM     12  C   UNL     1       4.621   3.728  16.385  0.00  0.00    +0.000 A 
ATOM     13  C   UNL     1       5.688   4.619  16.315  0.00  0.00    +0.000 A 
ATOM     14  C   UNL     1       5.759   5.670  17.214  0.00  0.00    +0.000 A 
ATOM     15  C   UNL     1       4.759   5.828  18.178  0.00  0.00    +0.000 A 
ATOM     16  C   UNL     1       3.673   4.927  18.304  0.00  0.00    +0.000 A 
ATOM     17  C   UNL     1       2.641   5.028  19.291  0.00  0.00    +0.000 A 
BRANCH   8  18
ATOM     18  O   UNL     1       0.593   4.186  20.211  0.00  0.00    +0.000 OA
ATOM     19  H   UNL     1       0.093   5.000  20.045  0.00  0.00    +0.000 HD
ENDBRANCH   8  18
ENDBRANCH   7  17
ENDBRANCH   1   7
BRANCH   4  20
ATOM     20  O   UNL     1       0.211  10.978  18.562  0.00  0.00    +0.000 OA
BRANCH  20  21
ATOM     21  C   UNL     1      -0.908  11.376  19.364  0.00  0.00    +0.000 C 
BRANCH  21  22
ATOM     22  C   UNL     1      -2.167  11.603  18.500  0.00  0.00    +0.000 C 
BRANCH  22  23
ATOM     23  N   UNL     1      -2.851  10.373  18.051  0.00  0.00    +0.000 NA
ATOM     24  C   UNL     1      -2.376   9.878  16.742  0.00  0.00    +0.000 C 
ATOM     25  C   UNL     1      -2.767  10.787  15.568  0.00  0.00    +0.000 C 
ATOM     26  O   UNL     1      -4.187  10.968  15.501  0.00  0.00    +0.000 OA
ATOM     27  C   UNL     1      -4.703  11.489  16.733  0.00  0.00    +0.000 C 
ATOM     28  C   UNL     1      -4.313  10.602  17.932  0.00  0.00    +0.000 C 
ENDBRANCH  22  23
ENDBRANCH  21  22
ENDBRANCH  20  21
ENDBRANCH   4  20
TORSDOF 7
ENDMDL
MODEL 4
REMARK VINA RESULT:      -8.0      5.309      8.550
REMARK  Name = 
REMARK  7 active torsions:
REMARK  status: ('A' for Active; 'I' for Inactive)
REMARK    1  A    between atoms: O_1  and  C_2
REMARK    2  A    between atoms: C_11  and  C_12
REMARK    3  A    between atoms: C_12  and  C_13
REMARK    4  A    between atoms: C_16  and  O_17
REMARK    5  A    between atoms: O_17  and  C_18
REMARK    6  A    between atoms: C_18  and  C_19
REMARK    7  A    between atoms: C_19  and  N_20
REMARK                            x       y       z     vdW  Elec       q    Type
REMARK                         _______ _______ _______ _____ _____    ______ ____
ROOT
ATOM      1  C   UNL     1       1.908   7.294  20.220  0.00  0.00    +0.000 A 
ATOM      2  C   UNL     1       1.155   7.939  21.207  0.00  0.00    +0.000 A 
ATOM      3  C   UNL     1       0.602   9.199  20.986  0.00  0.00    +0.000 A 
ATOM      4  C   UNL     1       0.796   9.851  19.773  0.00  0.00    +0.000 A 
ATOM      5  C   UNL     1       1.512   9.204  18.764  0.00  0.00    +0.000 A 
ATOM      6  C   UNL     1       2.060   7.932  18.982  0.00  0.00    +0.000 A 
ENDROOT
BRANCH   1   7
ATOM      7  C   UNL     1       2.578   5.969  20.514  0.00  0.00    +0.000 C 
BRANCH   7  17
ATOM      8  C   UNL     1       1.528   4.027  19.305  0.00  0.00    +0.000 A 
ATOM      9  C   UNL     1       1.458   3.089  18.281  0.00  0.00    +0.000 A 
ATOM     10  C   UNL     1       2.455   3.055  17.311  0.00  0.00    +0.000 A 
ATOM     11  C   UNL     1       3.521   3.963  17.340  0.00  0.00    +0.000 A 
ATOM     12  C   UNL     1       4.506   3.903  16.338  0.00  0.00    +0.000 A 
ATOM     13  C   UNL     1       5.579   4.791  16.328  0.00  0.00    +0.000 A 
ATOM     14  C   UNL     1       5.671   5.761  17.312  0.00  0.00    +0.000 A 
ATOM     15  C   UNL     1       4.686   5.842  18.302  0.00  0.00    +0.000 A 
ATOM     16  C   UNL     1       3.596   4.940  18.367  0.00  0.00    +0.000 A 
ATOM     17  C   UNL     1       2.579   4.963  19.375  0.00  0.00    +0.000 A 
BRANCH   8  18
ATOM     18  O   UNL     1       0.539   4.058  20.251  0.00  0.00    +0.000 OA
ATOM     19  H   UNL     1       0.902   3.758  21.099  0.00  0.00    +0.000 HD
ENDBRANCH   8  18
ENDBRANCH   7  17
ENDBRANCH   1   7
BRANCH   4  20
ATOM     20  O   UNL     1       0.359  11.115  19.479  0.00  0.00    +0.000 OA
BRANCH  20  21
ATOM     21  C   UNL     1      -1.055  11.308  19.348  0.00  0.00    +0.000 C 
BRANCH  21  22
ATOM     22  C   UNL     1      -1.507  11.186  17.878  0.00  0.00    +0.000 C 
BRANCH  22  23
ATOM     23  N   UNL     1      -2.480  10.108  17.607  0.00  0.00    +0.000 NA
ATOM     24  C   UNL     1      -2.521   9.692  16.189  0.00  0.00    +0.000 C 
ATOM     25  C   UNL     1      -3.112  10.760  15.257  0.00  0.00    +0.000 C 
ATOM     26  O   UNL     1      -4.435  11.130  15.663  0.00  0.00    +0.000 OA
ATOM     27  C   UNL     1      -4.453  11.585  17.023  0.00  0.00    +0.000 C 
ATOM     28  C   UNL     1      -3.852  10.537  17.980  0.00  0.00    +0.000 C 
ENDBRANCH  22  23
ENDBRANCH  21  22
ENDBRANCH  20  21
ENDBRANCH   4  20
TORSDOF 7
ENDMDL
MODEL 5
REMARK VINA RESULT:      -8.0      5.199      8.494
REMARK  Name = 
REMARK  7 active torsions:
REMARK  status: ('A' for Active; 'I' for Inactive)
REMARK    1  A    between atoms: O_1  and  C_2
REMARK    2  A    between atoms: C_11  and  C_12
REMARK    3  A    between atoms: C_12  and  C_13
REMARK    4  A    between atoms: C_16  and  O_17
REMARK    5  A    between atoms: O_17  and  C_18
REMARK    6  A    between atoms: C_18  and  C_19
REMARK    7  A    between atoms: C_19  and  N_20
REMARK                            x       y       z     vdW  Elec       q    Type
REMARK                         _______ _______ _______ _____ _____    ______ ____
ROOT
ATOM      1  C   UNL     1       2.288   6.871  19.847  0.00  0.00    +0.000 A 
ATOM      2  C   UNL     1       2.438   7.522  18.618  0.00  0.00    +0.000 A 
ATOM      3  C   UNL     1       1.869   8.773  18.389  0.00  0.00    +0.000 A 
ATOM      4  C   UNL     1       1.127   9.403  19.382  0.00  0.00    +0.000 A 
ATOM      5  C   UNL     1       1.000   8.784  20.628  0.00  0.00    +0.000 A 
ATOM      6  C   UNL     1       1.580   7.529  20.862  0.00  0.00    +0.000 A 
ENDROOT
BRANCH   1   7
ATOM      7  C   UNL     1       2.833   5.472  20.042  0.00  0.00    +0.000 C 
BRANCH   7  17
ATOM      8  C   UNL     1       2.624   4.130  17.923  0.00  0.00    +0.000 A 
ATOM      9  C   UNL     1       3.128   3.532  16.773  0.00  0.00    +0.000 A 
ATOM     10  C   UNL     1       4.490   3.609  16.499  0.00  0.00    +0.000 A 
ATOM     11  C   UNL     1       5.361   4.293  17.357  0.00  0.00    +0.000 A 
ATOM     12  C   UNL     1       6.730   4.356  17.044  0.00  0.00    +0.000 A 
ATOM     13  C   UNL     1       7.628   5.031  17.868  0.00  0.00    +0.000 A 
ATOM     14  C   UNL     1       7.163   5.666  19.008  0.00  0.00    +0.000 A 
ATOM     15  C   UNL     1       5.800   5.626  19.318  0.00  0.00    +0.000 A 
ATOM     16  C   UNL     1       4.858   4.926  18.524  0.00  0.00    +0.000 A 
ATOM     17  C   UNL     1       3.460   4.831  18.814  0.00  0.00    +0.000 A 
BRANCH   8  18
ATOM     18  O   UNL     1       1.281   4.056  18.180  0.00  0.00    +0.000 OA
ATOM     19  H   UNL     1       1.149   3.863  19.121  0.00  0.00    +0.000 HD
ENDBRANCH   8  18
ENDBRANCH   7  17
ENDBRANCH   1   7
BRANCH   4  20
ATOM     20  O   UNL     1       0.468  10.595  19.238  0.00  0.00    +0.000 OA
BRANCH  20  21
ATOM     21  C   UNL     1      -0.949  10.541  19.027  0.00  0.00    +0.000 C 
BRANCH  21  22
ATOM     22  C   UNL     1      -1.290  10.407  17.528  0.00  0.00    +0.000 C 
BRANCH  22  23
ATOM     23  N   UNL     1      -2.511   9.630  17.229  0.00  0.00    +0.000 NA
ATOM     24  C   UNL     1      -2.885   9.645  15.799  0.00  0.00    +0.000 C 
ATOM     25  C   UNL     1      -3.373  11.017  15.311  0.00  0.00    +0.000 C 
ATOM     26  O   UNL     1      -4.491  11.476  16.081  0.00  0.00    +0.000 OA
ATOM     27  C   UNL     1      -4.174  11.524  17.479  0.00  0.00    +0.000 C 
ATOM     28  C   UNL     1      -3.668  10.161  17.993  0.00  0.00    +0.000 C 
ENDBRANCH  22  23
ENDBRANCH  21  22
ENDBRANCH  20  21
ENDBRANCH   4  20
TORSDOF 7
ENDMDL
MODEL 6
REMARK VINA RESULT:      -7.9      1.017      1.308
REMARK  Name = 
REMARK  7 active torsions:
REMARK  status: ('A' for Active; 'I' for Inactive)
REMARK    1  A    between atoms: O_1  and  C_2
REMARK    2  A    between atoms: C_11  and  C_12
REMARK    3  A    between atoms: C_12  and  C_13
REMARK    4  A    between atoms: C_16  and  O_17
REMARK    5  A    between atoms: O_17  and  C_18
REMARK    6  A    between atoms: C_18  and  C_19
REMARK    7  A    between atoms: C_19  and  N_20
REMARK                            x       y       z     vdW  Elec       q    Type
REMARK                         _______ _______ _______ _____ _____    ______ ____
ROOT
ATOM      1  C   UNL     1       4.905   4.724  17.118  0.00  0.00    +0.000 A 
ATOM      2  C   UNL     1       4.979   5.724  16.143  0.00  0.00    +0.000 A 
ATOM      3  C   UNL     1       6.010   6.662  16.147  0.00  0.00    +0.000 A 
ATOM      4  C   UNL     1       6.991   6.628  17.132  0.00  0.00    +0.000 A 
ATOM      5  C   UNL     1       6.953   5.613  18.090  0.00  0.00    +0.000 A 
ATOM      6  C   UNL     1       5.922   4.663  18.081  0.00  0.00    +0.000 A 
ENDROOT
BRANCH   1   7
ATOM      7  C   UNL     1       3.726   3.776  17.152  0.00  0.00    +0.000 C 
BRANCH   7  17
ATOM      8  C   UNL     1       2.567   2.540  19.015  0.00  0.00    +0.000 A 
ATOM      9  C   UNL     1       1.841   2.468  20.198  0.00  0.00    +0.000 A 
ATOM     10  C   UNL     1       1.429   3.641  20.823  0.00  0.00    +0.000 A 
ATOM     11  C   UNL     1       1.748   4.895  20.288  0.00  0.00    +0.000 A 
ATOM     12  C   UNL     1       1.321   6.058  20.951  0.00  0.00    +0.000 A 
ATOM     13  C   UNL     1       1.623   7.324  20.454  0.00  0.00    +0.000 A 
ATOM     14  C   UNL     1       2.371   7.441  19.294  0.00  0.00    +0.000 A 
ATOM     15  C   UNL     1       2.817   6.291  18.637  0.00  0.00    +0.000 A 
ATOM     16  C   UNL     1       2.507   4.985  19.091  0.00  0.00    +0.000 A 
ATOM     17  C   UNL     1       2.915   3.778  18.439  0.00  0.00    +0.000 A 
BRANCH   8  18
ATOM     18  O   UNL     1       2.975   1.381  18.411  0.00  0.00    +0.000 OA
ATOM     19  H   UNL     1       2.207   0.802  18.285  0.00  0.00    +0.000 HD
ENDBRANCH   8  18
ENDBRANCH   7  17
ENDBRANCH   1   7
BRANCH   4  20
ATOM     20  O   UNL     1       8.003   7.540  17.268  0.00  0.00    +0.000 OA
BRANCH  20  21
ATOM     21  C   UNL     1       7.661   8.826  17.801  0.00  0.00    +0.000 C 
BRANCH  21  22
ATOM     22  C   UNL     1       8.915   9.589  18.281  0.00  0.00    +0.000 C 
BRANCH  22  23
ATOM     23  N   UNL     1       8.658  10.937  18.829  0.00  0.00    +0.000 NA
ATOM     24  C   UNL     1       8.986  12.029  17.888  0.00  0.00    +0.000 C 
ATOM     25  C   UNL     1      10.492  12.179  17.630  0.00  0.00    +0.000 C 
ATOM     26  O   UNL     1      11.210  12.397  18.852  0.00  0.00    +0.000 OA
ATOM     27  C   UNL     1      10.965  11.343  19.792  0.00  0.00    +0.000 C 
ATOM     28  C   UNL     1       9.458  11.160  20.060  0.00  0.00    +0.000 C 
ENDBRANCH  22  23
ENDBRANCH  21  22
ENDBRANCH  20  21
ENDBRANCH   4  20
TORSDOF 7
ENDMDL
MODEL 7
REMARK VINA RESULT:      -7.8      5.419      9.311
REMARK  Name = 
REMARK  7 active torsions:
REMARK  status: ('A' for Active; 'I' for Inactive)
REMARK    1  A    between atoms: O_1  and  C_2
REMARK    2  A    between atoms: C_11  and  C_12
REMARK    3  A    between atoms: C_12  and  C_13
REMARK    4  A    between atoms: C_16  and  O_17
REMARK    5  A    between atoms: O_17  and  C_18
REMARK    6  A    between atoms: C_18  and  C_19
REMARK    7  A    between atoms: C_19  and  N_20
REMARK                            x       y       z     vdW  Elec       q    Type
REMARK                         _______ _______ _______ _____ _____    ______ ____
ROOT
ATOM      1  C   UNL     1       1.392   9.696  18.813  0.00  0.00    +0.000 A 
ATOM      2  C   UNL     1       2.072   8.874  17.909  0.00  0.00    +0.000 A 
ATOM      3  C   UNL     1       2.530   7.611  18.284  0.00  0.00    +0.000 A 
ATOM      4  C   UNL     1       2.325   7.142  19.577  0.00  0.00    +0.000 A 
ATOM      5  C   UNL     1       1.614   7.935  20.480  0.00  0.00    +0.000 A 
ATOM      6  C   UNL     1       1.145   9.201  20.101  0.00  0.00    +0.000 A 
ENDROOT
BRANCH   1   7
ATOM      7  C   UNL     1       0.989  11.100  18.414  0.00  0.00    +0.000 C 
BRANCH   7  17
ATOM      8  C   UNL     1      -0.409  12.429  20.031  0.00  0.00    +0.000 A 
ATOM      9  C   UNL     1      -1.614  12.905  20.537  0.00  0.00    +0.000 A 
ATOM     10  C   UNL     1      -2.810  12.507  19.949  0.00  0.00    +0.000 A 
ATOM     11  C   UNL     1      -2.820  11.646  18.845  0.00  0.00    +0.000 A 
ATOM     12  C   UNL     1      -4.049  11.271  18.272  0.00  0.00    +0.000 A 
ATOM     13  C   UNL     1      -4.101  10.421  17.170  0.00  0.00    +0.000 A 
ATOM     14  C   UNL     1      -2.923   9.949  16.616  0.00  0.00    +0.000 A 
ATOM     15  C   UNL     1      -1.695  10.331  17.165  0.00  0.00    +0.000 A 
ATOM     16  C   UNL     1      -1.597  11.168  18.304  0.00  0.00    +0.000 A 
ATOM     17  C   UNL     1      -0.367  11.565  18.920  0.00  0.00    +0.000 A 
BRANCH   8  18
ATOM     18  O   UNL     1       0.764  12.833  20.611  0.00  0.00    +0.000 OA
ATOM     19  H   UNL     1       0.613  12.983  21.558  0.00  0.00    +0.000 HD
ENDBRANCH   8  18
ENDBRANCH   7  17
ENDBRANCH   1   7
BRANCH   4  20
ATOM     20  O   UNL     1       2.793   5.953  20.067  0.00  0.00    +0.000 OA
BRANCH  20  21
ATOM     21  C   UNL     1       3.976   5.412  19.463  0.00  0.00    +0.000 C 
BRANCH  21  22
ATOM     22  C   UNL     1       4.025   3.876  19.598  0.00  0.00    +0.000 C 
BRANCH  22  23
ATOM     23  N   UNL     1       3.801   3.128  18.343  0.00  0.00    +0.000 NA
ATOM     24  C   UNL     1       2.902   3.821  17.396  0.00  0.00    +0.000 C 
ATOM     25  C   UNL     1       1.444   3.886  17.876  0.00  0.00    +0.000 C 
ATOM     26  O   UNL     1       0.921   2.576  18.129  0.00  0.00    +0.000 OA
ATOM     27  C   UNL     1       1.730   1.868  19.078  0.00  0.00    +0.000 C 
ATOM     28  C   UNL     1       3.203   1.799  18.627  0.00  0.00    +0.000 C 
ENDBRANCH  22  23
ENDBRANCH  21  22
ENDBRANCH  20  21
ENDBRANCH   4  20
TORSDOF 7
ENDMDL
MODEL 8
REMARK VINA RESULT:      -7.8      0.636      1.121
REMARK  Name = 
REMARK  7 active torsions:
REMARK  status: ('A' for Active; 'I' for Inactive)
REMARK    1  A    between atoms: O_1  and  C_2
REMARK    2  A    between atoms: C_11  and  C_12
REMARK    3  A    between atoms: C_12  and  C_13
REMARK    4  A    between atoms: C_16  and  O_17
REMARK    5  A    between atoms: O_17  and  C_18
REMARK    6  A    between atoms: C_18  and  C_19
REMARK    7  A    between atoms: C_19  and  N_20
REMARK                            x       y       z     vdW  Elec       q    Type
REMARK                         _______ _______ _______ _____ _____    ______ ____
ROOT
ATOM      1  C   UNL     1       5.343   5.072  17.323  0.00  0.00    +0.000 A 
ATOM      2  C   UNL     1       6.345   5.037  18.298  0.00  0.00    +0.000 A 
ATOM      3  C   UNL     1       7.323   6.028  18.366  0.00  0.00    +0.000 A 
ATOM      4  C   UNL     1       7.329   7.076  17.453  0.00  0.00    +0.000 A 
ATOM      5  C   UNL     1       6.313   7.147  16.497  0.00  0.00    +0.000 A 
ATOM      6  C   UNL     1       5.323   6.156  16.434  0.00  0.00    +0.000 A 
ENDROOT
BRANCH   1   7
ATOM      7  C   UNL     1       4.348   3.937  17.208  0.00  0.00    +0.000 C 
BRANCH   7  17
ATOM      8  C   UNL     1       3.192   2.425  18.854  0.00  0.00    +0.000 A 
ATOM      9  C   UNL     1       2.378   2.171  19.953  0.00  0.00    +0.000 A 
ATOM     10  C   UNL     1       1.770   3.232  20.617  0.00  0.00    +0.000 A 
ATOM     11  C   UNL     1       1.978   4.555  20.207  0.00  0.00    +0.000 A 
ATOM     12  C   UNL     1       1.354   5.602  20.907  0.00  0.00    +0.000 A 
ATOM     13  C   UNL     1       1.540   6.931  20.534  0.00  0.00    +0.000 A 
ATOM     14  C   UNL     1       2.367   7.230  19.464  0.00  0.00    +0.000 A 
ATOM     15  C   UNL     1       3.008   6.197  18.773  0.00  0.00    +0.000 A 
ATOM     16  C   UNL     1       2.823   4.831  19.099  0.00  0.00    +0.000 A 
ATOM     17  C   UNL     1       3.434   3.738  18.406  0.00  0.00    +0.000 A 
BRANCH   8  18
ATOM     18  O   UNL     1       3.791   1.375  18.212  0.00  0.00    +0.000 OA
ATOM     19  H   UNL     1       4.700   1.281  18.539  0.00  0.00    +0.000 HD
ENDBRANCH   8  18
ENDBRANCH   7  17
ENDBRANCH   1   7
BRANCH   4  20
ATOM     20  O   UNL     1       8.281   8.059  17.386  0.00  0.00    +0.000 OA
BRANCH  20  21
ATOM     21  C   UNL     1       7.953   9.331  17.959  0.00  0.00    +0.000 C 
BRANCH  21  22
ATOM     22  C   UNL     1       9.168   9.953  18.680  0.00  0.00    +0.000 C 
BRANCH  22  23
ATOM     23  N   UNL     1       9.360  11.400  18.451  0.00  0.00    +0.000 NA
ATOM     24  C   UNL     1      10.700  11.742  17.929  0.00  0.00    +0.000 C 
ATOM     25  C   UNL     1      11.826  11.530  18.952  0.00  0.00    +0.000 C 
ATOM     26  O   UNL     1      11.593  12.288  20.146  0.00  0.00    +0.000 OA
ATOM     27  C   UNL     1      10.321  11.967  20.725  0.00  0.00    +0.000 C 
ATOM     28  C   UNL     1       9.173  12.158  19.714  0.00  0.00    +0.000 C 
ENDBRANCH  22  23
ENDBRANCH  21  22
ENDBRANCH  20  21
ENDBRANCH   4  20
TORSDOF 7
ENDMDL
MODEL 9
REMARK VINA RESULT:      -7.8      1.039      1.297
REMARK  Name = 
REMARK  7 active torsions:
REMARK  status: ('A' for Active; 'I' for Inactive)
REMARK    1  A    between atoms: O_1  and  C_2
REMARK    2  A    between atoms: C_11  and  C_12
REMARK    3  A    between atoms: C_12  and  C_13
REMARK    4  A    between atoms: C_16  and  O_17
REMARK    5  A    between atoms: O_17  and  C_18
REMARK    6  A    between atoms: C_18  and  C_19
REMARK    7  A    between atoms: C_19  and  N_20
REMARK                            x       y       z     vdW  Elec       q    Type
REMARK                         _______ _______ _______ _____ _____    ______ ____
ROOT
ATOM      1  C   UNL     1       5.982   5.051  17.715  0.00  0.00    +0.000 A 
ATOM      2  C   UNL     1       6.001   5.858  16.573  0.00  0.00    +0.000 A 
ATOM      3  C   UNL     1       6.857   6.954  16.476  0.00  0.00    +0.000 A 
ATOM      4  C   UNL     1       7.711   7.276  17.524  0.00  0.00    +0.000 A 
ATOM      5  C   UNL     1       7.733   6.457  18.656  0.00  0.00    +0.000 A 
ATOM      6  C   UNL     1       6.880   5.349  18.750  0.00  0.00    +0.000 A 
ENDROOT
BRANCH   1   7
ATOM      7  C   UNL     1       4.979   3.924  17.838  0.00  0.00    +0.000 C 
BRANCH   7  17
ATOM      8  C   UNL     1       3.982   2.887  19.904  0.00  0.00    +0.000 A 
ATOM      9  C   UNL     1       3.166   2.892  21.029  0.00  0.00    +0.000 A 
ATOM     10  C   UNL     1       2.381   4.007  21.304  0.00  0.00    +0.000 A 
ATOM     11  C   UNL     1       2.412   5.134  20.473  0.00  0.00    +0.000 A 
ATOM     12  C   UNL     1       1.611   6.246  20.786  0.00  0.00    +0.000 A 
ATOM     13  C   UNL     1       1.618   7.387  19.988  0.00  0.00    +0.000 A 
ATOM     14  C   UNL     1       2.440   7.436  18.875  0.00  0.00    +0.000 A 
ATOM     15  C   UNL     1       3.255   6.344  18.565  0.00  0.00    +0.000 A 
ATOM     16  C   UNL     1       3.256   5.152  19.331  0.00  0.00    +0.000 A 
ATOM     17  C   UNL     1       4.050   3.997  19.040  0.00  0.00    +0.000 A 
BRANCH   8  18
ATOM     18  O   UNL     1       4.757   1.788  19.646  0.00  0.00    +0.000 OA
ATOM     19  H   UNL     1       4.630   1.138  20.355  0.00  0.00    +0.000 HD
ENDBRANCH   8  18
ENDBRANCH   7  17
ENDBRANCH   1   7
BRANCH   4  20
ATOM     20  O   UNL     1       8.537   8.367  17.561  0.00  0.00    +0.000 OA
BRANCH  20  21
ATOM     21  C   UNL     1       8.096   9.501  18.320  0.00  0.00    +0.000 C 
BRANCH  21  22
ATOM     22  C   UNL     1       9.235  10.077  19.187  0.00  0.00    +0.000 C 
BRANCH  22  23
ATOM     23  N   UNL     1       9.262  11.551  19.288  0.00  0.00    +0.000 NA
ATOM     24  C   UNL     1       9.609  12.224  18.019  0.00  0.00    +0.000 C 
ATOM     25  C   UNL     1      11.068  12.006  17.592  0.00  0.00    +0.000 C 
ATOM     26  O   UNL     1      11.978  12.448  18.608  0.00  0.00    +0.000 OA
ATOM     27  C   UNL     1      11.718  11.795  19.858  0.00  0.00    +0.000 C 
ATOM     28  C   UNL     1      10.254  11.986  20.303  0.00  0.00    +0.000 C 
ENDBRANCH  22  23
ENDBRANCH  21  22
ENDBRANCH  20  21
ENDBRANCH   4  20
TORSDOF 7
ENDMDL
