MODEL 1
REMARK VINA RESULT:      -8.4      0.000      0.000
REMARK  Name = 
REMARK  6 active torsions:
REMARK  status: ('A' for Active; 'I' for Inactive)
REMARK    1  A    between atoms: C_1  and  N_2
REMARK    2  A    between atoms: N_2  and  C_3
REMARK    3  A    between atoms: N_2  and  C_4
REMARK    4  A    between atoms: C_4  and  C_5
REMARK    5  A    between atoms: C_5  and  N_6
REMARK    6  A    between atoms: C_9  and  C_10
REMARK                            x       y       z     vdW  Elec       q    Type
REMARK                         _______ _______ _______ _____ _____    ______ ____
ROOT
ATOM      1  N   UNL     1       6.307   5.682  15.857  0.00  0.00    +0.000 N 
ATOM      2  C   UNL     1       5.168   5.382  16.654  0.00  0.00    +0.000 A 
ATOM      3  C   UNL     1       4.414   6.414  17.205  0.00  0.00    +0.000 A 
ATOM      4  C   UNL     1       3.242   6.143  17.946  0.00  0.00    +0.000 A 
ATOM      5  C   UNL     1       2.865   4.771  18.127  0.00  0.00    +0.000 A 
ATOM      6  C   UNL     1       1.682   4.346  18.780  0.00  0.00    +0.000 A 
ATOM      7  C   UNL     1       1.390   2.991  18.943  0.00  0.00    +0.000 A 
ATOM      8  C   UNL     1       2.255   2.020  18.444  0.00  0.00    +0.000 A 
ATOM      9  C   UNL     1       3.400   2.403  17.752  0.00  0.00    +0.000 A 
ATOM     10  C   UNL     1       3.703   3.760  17.579  0.00  0.00    +0.000 A 
ATOM     11  N   UNL     1       4.801   4.094  16.858  0.00  0.00    +0.000 NA
ATOM     12  H   UNL     1       6.725   6.624  15.894  0.00  0.00    +0.000 HD
ENDROOT
BRANCH   4  13
ATOM     13  C   UNL     1       2.469   7.325  18.471  0.00  0.00    +0.000 A 
ATOM     14  C   UNL     1       2.135   7.393  19.845  0.00  0.00    +0.000 A 
ATOM     15  C   UNL     1       1.443   8.490  20.365  0.00  0.00    +0.000 A 
ATOM     16  C   UNL     1       1.062   9.536  19.530  0.00  0.00    +0.000 A 
ATOM     17  C   UNL     1       1.351   9.480  18.168  0.00  0.00    +0.000 A 
ATOM     18  C   UNL     1       2.038   8.383  17.640  0.00  0.00    +0.000 A 
ENDBRANCH   4  13
BRANCH   1  19
ATOM     19  C   UNL     1       6.795   4.754  14.858  0.00  0.00    +0.000 C 
BRANCH  19  20
ATOM     20  C   UNL     1       5.621   4.288  13.970  0.00  0.00    +0.000 C 
BRANCH  20  22
ATOM     21  C   UNL     1       4.993   3.212  11.855  0.00  0.00    +0.000 C 
ATOM     22  N   UNL     1       6.086   3.504  12.797  0.00  0.00    +0.000 NA
ATOM     23  C   UNL     1       7.162   4.225  12.095  0.00  0.00    +0.000 C 
ENDBRANCH  20  22
ENDBRANCH  19  20
ENDBRANCH   1  19
TORSDOF 4
ENDMDL
MODEL 2
REMARK VINA RESULT:      -8.3      0.656      1.217
REMARK  Name = 
REMARK  6 active torsions:
REMARK  status: ('A' for Active; 'I' for Inactive)
REMARK    1  A    between atoms: C_1  and  N_2
REMARK    2  A    between atoms: N_2  and  C_3
REMARK    3  A    between atoms: N_2  and  C_4
REMARK    4  A    between atoms: C_4  and  C_5
REMARK    5  A    between atoms: C_5  and  N_6
REMARK    6  A    between atoms: C_9  and  C_10
REMARK                            x       y       z     vdW  Elec       q    Type
REMARK                         _______ _______ _______ _____ _____    ______ ____
ROOT
ATOM      1  N   UNL     1       6.207   5.384  16.528  0.00  0.00    +0.000 N 
ATOM      2  C   UNL     1       5.037   5.174  17.307  0.00  0.00    +0.000 A 
ATOM      3  C   UNL     1       4.300   6.263  17.762  0.00  0.00    +0.000 A 
ATOM      4  C   UNL     1       3.099   6.079  18.483  0.00  0.00    +0.000 A 
ATOM      5  C   UNL     1       2.674   4.734  18.746  0.00  0.00    +0.000 A 
ATOM      6  C   UNL     1       1.459   4.391  19.390  0.00  0.00    +0.000 A 
ATOM      7  C   UNL     1       1.120   3.059  19.636  0.00  0.00    +0.000 A 
ATOM      8  C   UNL     1       1.969   2.032  19.233  0.00  0.00    +0.000 A 
ATOM      9  C   UNL     1       3.145   2.331  18.553  0.00  0.00    +0.000 A 
ATOM     10  C   UNL     1       3.495   3.663  18.295  0.00  0.00    +0.000 A 
ATOM     11  N   UNL     1       4.624   3.914  17.588  0.00  0.00    +0.000 NA
ATOM     12  H   UNL     1       6.654   6.313  16.514  0.00  0.00    +0.000 HD
ENDROOT
BRANCH   4  13
ATOM     13  C   UNL     1       2.348   7.316  18.901  0.00  0.00    +0.000 A 
ATOM     14  C   UNL     1       2.038   8.309  17.940  0.00  0.00    +0.000 A 
ATOM     15  C   UNL     1       1.318   9.453  18.293  0.00  0.00    +0.000 A 
ATOM     16  C   UNL     1       0.898   9.638  19.608  0.00  0.00    +0.000 A 
ATOM     17  C   UNL     1       1.216   8.690  20.579  0.00  0.00    +0.000 A 
ATOM     18  C   UNL     1       1.941   7.546  20.234  0.00  0.00    +0.000 A 
ENDBRANCH   4  13
BRANCH   1  19
ATOM     19  C   UNL     1       6.695   4.374  15.611  0.00  0.00    +0.000 C 
BRANCH  19  20
ATOM     20  C   UNL     1       5.930   4.479  14.274  0.00  0.00    +0.000 C 
BRANCH  20  22
ATOM     21  C   UNL     1       5.809   3.231  12.164  0.00  0.00    +0.000 C 
ATOM     22  N   UNL     1       6.691   3.881  13.148  0.00  0.00    +0.000 NA
ATOM     23  C   UNL     1       7.504   4.909  12.477  0.00  0.00    +0.000 C 
ENDBRANCH  20  22
ENDBRANCH  19  20
ENDBRANCH   1  19
TORSDOF 4
ENDMDL
MODEL 3
REMARK VINA RESULT:      -8.1      3.289      7.330
REMARK  Name = 
REMARK  6 active torsions:
REMARK  status: ('A' for Active; 'I' for Inactive)
REMARK    1  A    between atoms: C_1  and  N_2
REMARK    2  A    between atoms: N_2  and  C_3
REMARK    3  A    between atoms: N_2  and  C_4
REMARK    4  A    between atoms: C_4  and  C_5
REMARK    5  A    between atoms: C_5  and  N_6
REMARK    6  A    between atoms: C_9  and  C_10
REMARK                            x       y       z     vdW  Elec       q    Type
REMARK                         _______ _______ _______ _____ _____    ______ ____
ROOT
ATOM      1  N   UNL     1       1.595   8.372  19.849  0.00  0.00    +0.000 N 
ATOM      2  C   UNL     1       2.188   7.086  19.718  0.00  0.00    +0.000 A 
ATOM      3  C   UNL     1       3.146   6.859  18.736  0.00  0.00    +0.000 A 
ATOM      4  C   UNL     1       3.797   5.609  18.628  0.00  0.00    +0.000 A 
ATOM      5  C   UNL     1       3.424   4.578  19.553  0.00  0.00    +0.000 A 
ATOM      6  C   UNL     1       4.037   3.302  19.618  0.00  0.00    +0.000 A 
ATOM      7  C   UNL     1       3.606   2.336  20.529  0.00  0.00    +0.000 A 
ATOM      8  C   UNL     1       2.568   2.616  21.413  0.00  0.00    +0.000 A 
ATOM      9  C   UNL     1       1.978   3.877  21.411  0.00  0.00    +0.000 A 
ATOM     10  C   UNL     1       2.404   4.857  20.505  0.00  0.00    +0.000 A 
ATOM     11  N   UNL     1       1.840   6.088  20.566  0.00  0.00    +0.000 NA
ATOM     12  H   UNL     1       1.671   9.052  19.077  0.00  0.00    +0.000 HD
ENDROOT
BRANCH   4  13
ATOM     13  C   UNL     1       4.849   5.468  17.559  0.00  0.00    +0.000 A 
ATOM     14  C   UNL     1       6.128   6.044  17.750  0.00  0.00    +0.000 A 
ATOM     15  C   UNL     1       7.131   5.904  16.789  0.00  0.00    +0.000 A 
ATOM     16  C   UNL     1       6.883   5.197  15.615  0.00  0.00    +0.000 A 
ATOM     17  C   UNL     1       5.623   4.647  15.389  0.00  0.00    +0.000 A 
ATOM     18  C   UNL     1       4.612   4.787  16.344  0.00  0.00    +0.000 A 
ENDBRANCH   4  13
BRANCH   1  19
ATOM     19  C   UNL     1       1.033   8.821  21.106  0.00  0.00    +0.000 C 
BRANCH  19  20
ATOM     20  C   UNL     1       0.599  10.297  20.978  0.00  0.00    +0.000 C 
BRANCH  20  22
ATOM     21  C   UNL     1      -0.665  12.048  22.144  0.00  0.00    +0.000 C 
ATOM     22  N   UNL     1       0.223  10.883  22.290  0.00  0.00    +0.000 NA
ATOM     23  C   UNL     1      -0.430   9.868  23.134  0.00  0.00    +0.000 C 
ENDBRANCH  20  22
ENDBRANCH  19  20
ENDBRANCH   1  19
TORSDOF 4
ENDMDL
MODEL 4
REMARK VINA RESULT:      -8.1      1.484      2.178
REMARK  Name = 
REMARK  6 active torsions:
REMARK  status: ('A' for Active; 'I' for Inactive)
REMARK    1  A    between atoms: C_1  and  N_2
REMARK    2  A    between atoms: N_2  and  C_3
REMARK    3  A    between atoms: N_2  and  C_4
REMARK    4  A    between atoms: C_4  and  C_5
REMARK    5  A    between atoms: C_5  and  N_6
REMARK    6  A    between atoms: C_9  and  C_10
REMARK                            x       y       z     vdW  Elec       q    Type
REMARK                         _______ _______ _______ _____ _____    ______ ____
ROOT
ATOM      1  N   UNL     1       6.668   5.379  18.378  0.00  0.00    +0.000 N 
ATOM      2  C   UNL     1       5.316   5.143  18.751  0.00  0.00    +0.000 A 
ATOM      3  C   UNL     1       4.477   6.215  19.039  0.00  0.00    +0.000 A 
ATOM      4  C   UNL     1       3.114   6.010  19.349  0.00  0.00    +0.000 A 
ATOM      5  C   UNL     1       2.628   4.660  19.375  0.00  0.00    +0.000 A 
ATOM      6  C   UNL     1       1.275   4.302  19.596  0.00  0.00    +0.000 A 
ATOM      7  C   UNL     1       0.877   2.964  19.632  0.00  0.00    +0.000 A 
ATOM      8  C   UNL     1       1.806   1.948  19.432  0.00  0.00    +0.000 A 
ATOM      9  C   UNL     1       3.134   2.266  19.162  0.00  0.00    +0.000 A 
ATOM     10  C   UNL     1       3.546   3.604  19.118  0.00  0.00    +0.000 A 
ATOM     11  N   UNL     1       4.836   3.877  18.804  0.00  0.00    +0.000 NA
ATOM     12  H   UNL     1       7.098   6.297  18.566  0.00  0.00    +0.000 HD
ENDROOT
BRANCH   4  13
ATOM     13  C   UNL     1       2.273   7.233  19.608  0.00  0.00    +0.000 A 
ATOM     14  C   UNL     1       2.094   8.193  18.584  0.00  0.00    +0.000 A 
ATOM     15  C   UNL     1       1.296   9.322  18.786  0.00  0.00    +0.000 A 
ATOM     16  C   UNL     1       0.667   9.524  20.011  0.00  0.00    +0.000 A 
ATOM     17  C   UNL     1       0.852   8.609  21.046  0.00  0.00    +0.000 A 
ATOM     18  C   UNL     1       1.653   7.480  20.853  0.00  0.00    +0.000 A 
ENDBRANCH   4  13
BRANCH   1  19
ATOM     19  C   UNL     1       7.409   4.423  17.582  0.00  0.00    +0.000 C 
BRANCH  19  20
ATOM     20  C   UNL     1       7.394   4.864  16.102  0.00  0.00    +0.000 C 
BRANCH  20  22
ATOM     21  C   UNL     1       5.310   5.809  15.213  0.00  0.00    +0.000 C 
ATOM     22  N   UNL     1       6.090   4.582  15.451  0.00  0.00    +0.000 NA
ATOM     23  C   UNL     1       6.298   3.877  14.174  0.00  0.00    +0.000 C 
ENDBRANCH  20  22
ENDBRANCH  19  20
ENDBRANCH   1  19
TORSDOF 4
ENDMDL
MODEL 5
REMARK VINA RESULT:      -8.0      1.433      1.653
REMARK  Name = 
REMARK  6 active torsions:
REMARK  status: ('A' for Active; 'I' for Inactive)
REMARK    1  A    between atoms: C_1  and  N_2
REMARK    2  A    between atoms: N_2  and  C_3
REMARK    3  A    between atoms: N_2  and  C_4
REMARK    4  A    between atoms: C_4  and  C_5
REMARK    5  A    between atoms: C_5  and  N_6
REMARK    6  A    between atoms: C_9  and  C_10
REMARK                            x       y       z     vdW  Elec       q    Type
REMARK                         _______ _______ _______ _____ _____    ______ ____
ROOT
ATOM      1  N   UNL     1       6.174   5.502  17.011  0.00  0.00    +0.000 N 
ATOM      2  C   UNL     1       5.079   5.413  17.913  0.00  0.00    +0.000 A 
ATOM      3  C   UNL     1       4.233   6.504  18.088  0.00  0.00    +0.000 A 
ATOM      4  C   UNL     1       3.101   6.419  18.930  0.00  0.00    +0.000 A 
ATOM      5  C   UNL     1       2.863   5.179  19.611  0.00  0.00    +0.000 A 
ATOM      6  C   UNL     1       1.734   4.918  20.427  0.00  0.00    +0.000 A 
ATOM      7  C   UNL     1       1.580   3.694  21.081  0.00  0.00    +0.000 A 
ATOM      8  C   UNL     1       2.531   2.690  20.928  0.00  0.00    +0.000 A 
ATOM      9  C   UNL     1       3.626   2.894  20.093  0.00  0.00    +0.000 A 
ATOM     10  C   UNL     1       3.791   4.116  19.427  0.00  0.00    +0.000 A 
ATOM     11  N   UNL     1       4.843   4.260  18.585  0.00  0.00    +0.000 NA
ATOM     12  H   UNL     1       6.498   6.426  16.687  0.00  0.00    +0.000 HD
ENDROOT
BRANCH   4  13
ATOM     13  C   UNL     1       2.220   7.637  19.027  0.00  0.00    +0.000 A 
ATOM     14  C   UNL     1       1.708   8.036  20.285  0.00  0.00    +0.000 A 
ATOM     15  C   UNL     1       0.912   9.178  20.410  0.00  0.00    +0.000 A 
ATOM     16  C   UNL     1       0.602   9.940  19.288  0.00  0.00    +0.000 A 
ATOM     17  C   UNL     1       1.067   9.552  18.033  0.00  0.00    +0.000 A 
ATOM     18  C   UNL     1       1.859   8.408  17.900  0.00  0.00    +0.000 A 
ENDBRANCH   4  13
BRANCH   1  19
ATOM     19  C   UNL     1       6.741   4.321  16.393  0.00  0.00    +0.000 C 
BRANCH  19  20
ATOM     20  C   UNL     1       5.799   3.820  15.278  0.00  0.00    +0.000 C 
BRANCH  20  22
ATOM     21  C   UNL     1       7.463   4.997  13.909  0.00  0.00    +0.000 C 
ATOM     22  N   UNL     1       6.092   4.461  13.971  0.00  0.00    +0.000 NA
ATOM     23  C   UNL     1       5.889   3.502  12.873  0.00  0.00    +0.000 C 
ENDBRANCH  20  22
ENDBRANCH  19  20
ENDBRANCH   1  19
TORSDOF 4
ENDMDL
MODEL 6
REMARK VINA RESULT:      -7.9      2.973      7.227
REMARK  Name = 
REMARK  6 active torsions:
REMARK  status: ('A' for Active; 'I' for Inactive)
REMARK    1  A    between atoms: C_1  and  N_2
REMARK    2  A    between atoms: N_2  and  C_3
REMARK    3  A    between atoms: N_2  and  C_4
REMARK    4  A    between atoms: C_4  and  C_5
REMARK    5  A    between atoms: C_5  and  N_6
REMARK    6  A    between atoms: C_9  and  C_10
REMARK                            x       y       z     vdW  Elec       q    Type
REMARK                         _______ _______ _______ _____ _____    ______ ____
ROOT
ATOM      1  N   UNL     1       2.044   8.180  19.803  0.00  0.00    +0.000 N 
ATOM      2  C   UNL     1       2.332   6.839  19.430  0.00  0.00    +0.000 A 
ATOM      3  C   UNL     1       3.410   6.567  18.593  0.00  0.00    +0.000 A 
ATOM      4  C   UNL     1       3.756   5.238  18.260  0.00  0.00    +0.000 A 
ATOM      5  C   UNL     1       2.949   4.181  18.799  0.00  0.00    +0.000 A 
ATOM      6  C   UNL     1       3.214   2.801  18.616  0.00  0.00    +0.000 A 
ATOM      7  C   UNL     1       2.371   1.824  19.149  0.00  0.00    +0.000 A 
ATOM      8  C   UNL     1       1.253   2.190  19.894  0.00  0.00    +0.000 A 
ATOM      9  C   UNL     1       0.992   3.535  20.136  0.00  0.00    +0.000 A 
ATOM     10  C   UNL     1       1.832   4.526  19.611  0.00  0.00    +0.000 A 
ATOM     11  N   UNL     1       1.575   5.822  19.908  0.00  0.00    +0.000 NA
ATOM     12  H   UNL     1       2.452   8.961  19.267  0.00  0.00    +0.000 HD
ENDROOT
BRANCH   4  13
ATOM     13  C   UNL     1       4.961   5.038  17.380  0.00  0.00    +0.000 A 
ATOM     14  C   UNL     1       4.811   5.032  15.972  0.00  0.00    +0.000 A 
ATOM     15  C   UNL     1       5.916   4.877  15.131  0.00  0.00    +0.000 A 
ATOM     16  C   UNL     1       7.189   4.717  15.670  0.00  0.00    +0.000 A 
ATOM     17  C   UNL     1       7.360   4.688  17.052  0.00  0.00    +0.000 A 
ATOM     18  C   UNL     1       6.259   4.837  17.900  0.00  0.00    +0.000 A 
ENDBRANCH   4  13
BRANCH   1  19
ATOM     19  C   UNL     1       1.330   8.487  21.026  0.00  0.00    +0.000 C 
BRANCH  19  20
ATOM     20  C   UNL     1       0.684   9.884  20.908  0.00  0.00    +0.000 C 
BRANCH  20  22
ATOM     21  C   UNL     1      -0.570  11.570  22.178  0.00  0.00    +0.000 C 
ATOM     22  N   UNL     1       0.440  10.499  22.237  0.00  0.00    +0.000 NA
ATOM     23  C   UNL     1       0.013   9.474  23.204  0.00  0.00    +0.000 C 
ENDBRANCH  20  22
ENDBRANCH  19  20
ENDBRANCH   1  19
TORSDOF 4
ENDMDL
MODEL 7
REMARK VINA RESULT:      -7.9      3.188      6.178
REMARK  Name = 
REMARK  6 active torsions:
REMARK  status: ('A' for Active; 'I' for Inactive)
REMARK    1  A    between atoms: C_1  and  N_2
REMARK    2  A    between atoms: N_2  and  C_3
REMARK    3  A    between atoms: N_2  and  C_4
REMARK    4  A    between atoms: C_4  and  C_5
REMARK    5  A    between atoms: C_5  and  N_6
REMARK    6  A    between atoms: C_9  and  C_10
REMARK                            x       y       z     vdW  Elec       q    Type
REMARK                         _______ _______ _______ _____ _____    ______ ____
ROOT
ATOM      1  N   UNL     1       7.438   7.460  18.151  0.00  0.00    +0.000 N 
ATOM      2  C   UNL     1       6.870   6.472  17.300  0.00  0.00    +0.000 A 
ATOM      3  C   UNL     1       5.762   5.744  17.723  0.00  0.00    +0.000 A 
ATOM      4  C   UNL     1       5.141   4.804  16.871  0.00  0.00    +0.000 A 
ATOM      5  C   UNL     1       5.700   4.611  15.564  0.00  0.00    +0.000 A 
ATOM      6  C   UNL     1       5.146   3.761  14.575  0.00  0.00    +0.000 A 
ATOM      7  C   UNL     1       5.759   3.602  13.330  0.00  0.00    +0.000 A 
ATOM      8  C   UNL     1       6.926   4.297  13.027  0.00  0.00    +0.000 A 
ATOM      9  C   UNL     1       7.468   5.180  13.956  0.00  0.00    +0.000 A 
ATOM     10  C   UNL     1       6.862   5.352  15.208  0.00  0.00    +0.000 A 
ATOM     11  N   UNL     1       7.390   6.255  16.068  0.00  0.00    +0.000 NA
ATOM     12  H   UNL     1       7.208   7.464  19.156  0.00  0.00    +0.000 HD
ENDROOT
BRANCH   4  13
ATOM     13  C   UNL     1       3.923   4.091  17.400  0.00  0.00    +0.000 A 
ATOM     14  C   UNL     1       2.728   4.815  17.626  0.00  0.00    +0.000 A 
ATOM     15  C   UNL     1       1.575   4.175  18.089  0.00  0.00    +0.000 A 
ATOM     16  C   UNL     1       1.589   2.807  18.344  0.00  0.00    +0.000 A 
ATOM     17  C   UNL     1       2.762   2.077  18.159  0.00  0.00    +0.000 A 
ATOM     18  C   UNL     1       3.920   2.711  17.701  0.00  0.00    +0.000 A 
ENDBRANCH   4  13
BRANCH   1  19
ATOM     19  C   UNL     1       8.196   8.572  17.616  0.00  0.00    +0.000 C 
BRANCH  19  20
ATOM     20  C   UNL     1       8.748   9.426  18.778  0.00  0.00    +0.000 C 
BRANCH  20  22
ATOM     21  C   UNL     1       8.564  11.675  17.813  0.00  0.00    +0.000 C 
ATOM     22  N   UNL     1       9.477  10.624  18.292  0.00  0.00    +0.000 NA
ATOM     23  C   UNL     1      10.337  11.167  19.357  0.00  0.00    +0.000 C 
ENDBRANCH  20  22
ENDBRANCH  19  20
ENDBRANCH   1  19
TORSDOF 4
ENDMDL
MODEL 8
REMARK VINA RESULT:      -7.9      1.610      2.044
REMARK  Name = 
REMARK  6 active torsions:
REMARK  status: ('A' for Active; 'I' for Inactive)
REMARK    1  A    between atoms: C_1  and  N_2
REMARK    2  A    between atoms: N_2  and  C_3
REMARK    3  A    between atoms: N_2  and  C_4
REMARK    4  A    between atoms: C_4  and  C_5
REMARK    5  A    between atoms: C_5  and  N_6
REMARK    6  A    between atoms: C_9  and  C_10
REMARK                            x       y       z     vdW  Elec       q    Type
REMARK                         _______ _______ _______ _____ _____    ______ ____
ROOT
ATOM      1  N   UNL     1       6.557   5.558  18.318  0.00  0.00    +0.000 N 
ATOM      2  C   UNL     1       5.237   5.364  18.811  0.00  0.00    +0.000 A 
ATOM      3  C   UNL     1       4.383   6.453  18.956  0.00  0.00    +0.000 A 
ATOM      4  C   UNL     1       3.047   6.278  19.381  0.00  0.00    +0.000 A 
ATOM      5  C   UNL     1       2.606   4.945  19.675  0.00  0.00    +0.000 A 
ATOM      6  C   UNL     1       1.280   4.604  20.039  0.00  0.00    +0.000 A 
ATOM      7  C   UNL     1       0.926   3.286  20.336  0.00  0.00    +0.000 A 
ATOM      8  C   UNL     1       1.874   2.269  20.261  0.00  0.00    +0.000 A 
ATOM      9  C   UNL     1       3.173   2.562  19.856  0.00  0.00    +0.000 A 
ATOM     10  C   UNL     1       3.540   3.879  19.552  0.00  0.00    +0.000 A 
ATOM     11  N   UNL     1       4.801   4.118  19.115  0.00  0.00    +0.000 NA
ATOM     12  H   UNL     1       6.969   6.503  18.314  0.00  0.00    +0.000 HD
ENDROOT
BRANCH   4  13
ATOM     13  C   UNL     1       2.184   7.510  19.472  0.00  0.00    +0.000 A 
ATOM     14  C   UNL     1       1.582   7.857  20.705  0.00  0.00    +0.000 A 
ATOM     15  C   UNL     1       0.800   9.009  20.826  0.00  0.00    +0.000 A 
ATOM     16  C   UNL     1       0.595   9.834  19.723  0.00  0.00    +0.000 A 
ATOM     17  C   UNL     1       1.151   9.498  18.491  0.00  0.00    +0.000 A 
ATOM     18  C   UNL     1       1.930   8.345  18.361  0.00  0.00    +0.000 A 
ENDBRANCH   4  13
BRANCH   1  19
ATOM     19  C   UNL     1       7.281   4.491  17.659  0.00  0.00    +0.000 C 
BRANCH  19  20
ATOM     20  C   UNL     1       7.355   4.779  16.144  0.00  0.00    +0.000 C 
BRANCH  20  22
ATOM     21  C   UNL     1       5.340   5.823  15.208  0.00  0.00    +0.000 C 
ATOM     22  N   UNL     1       6.050   4.559  15.470  0.00  0.00    +0.000 NA
ATOM     23  C   UNL     1       6.244   3.833  14.204  0.00  0.00    +0.000 C 
ENDBRANCH  20  22
ENDBRANCH  19  20
ENDBRANCH   1  19
TORSDOF 4
ENDMDL
MODEL 9
REMARK VINA RESULT:      -7.9      3.193      6.150
REMARK  Name = 
REMARK  6 active torsions:
REMARK  status: ('A' for Active; 'I' for Inactive)
REMARK    1  A    between atoms: C_1  and  N_2
REMARK    2  A    between atoms: N_2  and  C_3
REMARK    3  A    between atoms: N_2  and  C_4
REMARK    4  A    between atoms: C_4  and  C_5
REMARK    5  A    between atoms: C_5  and  N_6
REMARK    6  A    between atoms: C_9  and  C_10
REMARK                            x       y       z     vdW  Elec       q    Type
REMARK                         _______ _______ _______ _____ _____    ______ ____
ROOT
ATOM      1  N   UNL     1       7.387   7.498  18.158  0.00  0.00    +0.000 N 
ATOM      2  C   UNL     1       6.831   6.506  17.305  0.00  0.00    +0.000 A 
ATOM      3  C   UNL     1       5.711   5.788  17.712  0.00  0.00    +0.000 A 
ATOM      4  C   UNL     1       5.101   4.843  16.856  0.00  0.00    +0.000 A 
ATOM      5  C   UNL     1       5.685   4.636  15.562  0.00  0.00    +0.000 A 
ATOM      6  C   UNL     1       5.146   3.781  14.569  0.00  0.00    +0.000 A 
ATOM      7  C   UNL     1       5.782   3.608  13.339  0.00  0.00    +0.000 A 
ATOM      8  C   UNL     1       6.959   4.294  13.052  0.00  0.00    +0.000 A 
ATOM      9  C   UNL     1       7.488   5.182  13.985  0.00  0.00    +0.000 A 
ATOM     10  C   UNL     1       6.858   5.368  15.222  0.00  0.00    +0.000 A 
ATOM     11  N   UNL     1       7.374   6.276  16.085  0.00  0.00    +0.000 NA
ATOM     12  H   UNL     1       7.137   7.512  19.159  0.00  0.00    +0.000 HD
ENDROOT
BRANCH   4  13
ATOM     13  C   UNL     1       3.870   4.142  17.367  0.00  0.00    +0.000 A 
ATOM     14  C   UNL     1       3.896   2.743  17.584  0.00  0.00    +0.000 A 
ATOM     15  C   UNL     1       2.778   2.071  18.083  0.00  0.00    +0.000 A 
ATOM     16  C   UNL     1       1.610   2.772  18.370  0.00  0.00    +0.000 A 
ATOM     17  C   UNL     1       1.548   4.144  18.137  0.00  0.00    +0.000 A 
ATOM     18  C   UNL     1       2.661   4.823  17.632  0.00  0.00    +0.000 A 
ENDBRANCH   4  13
BRANCH   1  19
ATOM     19  C   UNL     1       8.162   8.601  17.629  0.00  0.00    +0.000 C 
BRANCH  19  20
ATOM     20  C   UNL     1       8.769   9.410  18.795  0.00  0.00    +0.000 C 
BRANCH  20  22
ATOM     21  C   UNL     1       8.591  11.666  17.844  0.00  0.00    +0.000 C 
ATOM     22  N   UNL     1       9.502  10.610  18.319  0.00  0.00    +0.000 NA
ATOM     23  C   UNL     1      10.359  11.146  19.390  0.00  0.00    +0.000 C 
ENDBRANCH  20  22
ENDBRANCH  19  20
ENDBRANCH   1  19
TORSDOF 4
ENDMDL
