MODEL 1
REMARK VINA RESULT:      -8.5      0.000      0.000
REMARK  Name = 
REMARK  8 active torsions:
REMARK  status: ('A' for Active; 'I' for Inactive)
REMARK    1  A    between atoms: C_1  and  C_2
REMARK    2  A    between atoms: N_5  and  S_6
REMARK    3  A    between atoms: S_6  and  C_9
REMARK    4  A    between atoms: C_10  and  C_11
REMARK    5  A    between atoms: C_20  and  C_21
REMARK    6  A    between atoms: C_21  and  O_23
REMARK    7  A    between atoms: O_23  and  C_24
REMARK    8  A    between atoms: C_24  and  C_25
REMARK                            x       y       z     vdW  Elec       q    Type
REMARK                         _______ _______ _______ _____ _____    ______ ____
ROOT
ATOM      1  C   UNL     1       4.193   7.300  17.512  0.00  0.00    +0.000 C 
ATOM      2  C   UNL     1       2.681   7.434  17.591  0.00  0.00    +0.000 C 
ATOM      3  C   UNL     1       2.202   8.783  18.187  0.00  0.00    +0.000 C 
ATOM      4  O   UNL     1       2.140   9.851  17.603  0.00  0.00    +0.000 OA
ATOM      5  N   UNL     1       1.854   8.560  19.554  0.00  0.00    +0.000 N 
ATOM      6  C   UNL     1       2.209   7.196  19.927  0.00  0.00    +0.000 C 
ATOM      7  C   UNL     1       1.460   6.286  20.853  0.00  0.00    +0.000 C 
ATOM      8  C   UNL     1       1.938   4.895  20.373  0.00  0.00    +0.000 C 
ATOM      9  C   UNL     1       2.445   5.061  18.907  0.00  0.00    +0.000 C 
ATOM     10  C   UNL     1       2.011   6.484  18.588  0.00  0.00    +0.000 C 
ENDROOT
BRANCH   5  11
ATOM     11  S   UNL     1       0.696   9.445  20.381  0.00  0.00    +0.000 S 
ATOM     12  O   UNL     1       0.356   8.674  21.556  0.00  0.00    +0.000 OA
ATOM     13  O   UNL     1       1.226  10.785  20.547  0.00  0.00    +0.000 OA
BRANCH  11  14
ATOM     14  C   UNL     1      -0.719   9.549  19.378  0.00  0.00    +0.000 C 
ATOM     15  C   UNL     1      -0.926  10.601  18.565  0.00  0.00    +0.000 C 
BRANCH  15  16
ATOM     16  C   UNL     1      -2.161  10.787  17.774  0.00  0.00    +0.000 A 
ATOM     17  C   UNL     1      -2.247  10.274  16.471  0.00  0.00    +0.000 A 
ATOM     18  C   UNL     1      -3.401  10.462  15.698  0.00  0.00    +0.000 A 
ATOM     19  C   UNL     1      -4.489  11.154  16.221  0.00  0.00    +0.000 A 
ATOM     20  C   UNL     1      -4.431  11.645  17.523  0.00  0.00    +0.000 A 
ATOM     21  C   UNL     1      -3.280  11.454  18.294  0.00  0.00    +0.000 A 
ENDBRANCH  15  16
ENDBRANCH  11  14
ENDBRANCH   5  11
BRANCH   9  22
ATOM     22  C   UNL     1       1.845   3.999  18.001  0.00  0.00    +0.000 C 
ATOM     23  O   UNL     1       0.737   3.510  18.174  0.00  0.00    +0.000 OA
BRANCH  22  24
ATOM     24  O   UNL     1       2.723   3.621  17.037  0.00  0.00    +0.000 OA
BRANCH  24  25
ATOM     25  C   UNL     1       3.952   3.040  17.497  0.00  0.00    +0.000 C 
BRANCH  25  26
ATOM     26  C   UNL     1       5.093   3.857  16.948  0.00  0.00    +0.000 A 
ATOM     27  C   UNL     1       5.154   4.182  15.586  0.00  0.00    +0.000 A 
ATOM     28  C   UNL     1       6.231   4.912  15.081  0.00  0.00    +0.000 A 
ATOM     29  C   UNL     1       7.257   5.322  15.931  0.00  0.00    +0.000 A 
ATOM     30  C   UNL     1       7.208   5.004  17.287  0.00  0.00    +0.000 A 
ATOM     31  C   UNL     1       6.133   4.271  17.793  0.00  0.00    +0.000 A 
ENDBRANCH  25  26
ENDBRANCH  24  25
ENDBRANCH  22  24
ENDBRANCH   9  22
TORSDOF 7
ENDMDL
MODEL 2
REMARK VINA RESULT:      -8.4      0.419      1.284
REMARK  Name = 
REMARK  8 active torsions:
REMARK  status: ('A' for Active; 'I' for Inactive)
REMARK    1  A    between atoms: C_1  and  C_2
REMARK    2  A    between atoms: N_5  and  S_6
REMARK    3  A    between atoms: S_6  and  C_9
REMARK    4  A    between atoms: C_10  and  C_11
REMARK    5  A    between atoms: C_20  and  C_21
REMARK    6  A    between atoms: C_21  and  O_23
REMARK    7  A    between atoms: O_23  and  C_24
REMARK    8  A    between atoms: C_24  and  C_25
REMARK                            x       y       z     vdW  Elec       q    Type
REMARK                         _______ _______ _______ _____ _____    ______ ____
ROOT
ATOM      1  C   UNL     1       4.347   7.415  17.497  0.00  0.00    +0.000 C 
ATOM      2  C   UNL     1       2.830   7.531  17.499  0.00  0.00    +0.000 C 
ATOM      3  C   UNL     1       2.304   8.862  18.095  0.00  0.00    +0.000 C 
ATOM      4  O   UNL     1       2.260   9.940  17.529  0.00  0.00    +0.000 OA
ATOM      5  N   UNL     1       1.888   8.608  19.437  0.00  0.00    +0.000 N 
ATOM      6  C   UNL     1       2.240   7.241  19.802  0.00  0.00    +0.000 C 
ATOM      7  C   UNL     1       1.455   6.305  20.669  0.00  0.00    +0.000 C 
ATOM      8  C   UNL     1       1.975   4.929  20.189  0.00  0.00    +0.000 C 
ATOM      9  C   UNL     1       2.556   5.129  18.755  0.00  0.00    +0.000 C 
ATOM     10  C   UNL     1       2.121   6.553  18.441  0.00  0.00    +0.000 C 
ENDROOT
BRANCH   5  11
ATOM     11  S   UNL     1       0.677   9.463  20.218  0.00  0.00    +0.000 S 
ATOM     12  O   UNL     1       0.244   8.638  21.325  0.00  0.00    +0.000 OA
ATOM     13  O   UNL     1       1.202  10.788  20.491  0.00  0.00    +0.000 OA
BRANCH  11  14
ATOM     14  C   UNL     1      -0.658   9.632  19.119  0.00  0.00    +0.000 C 
ATOM     15  C   UNL     1      -1.199  10.835  18.854  0.00  0.00    +0.000 C 
BRANCH  15  16
ATOM     16  C   UNL     1      -2.399  11.019  18.010  0.00  0.00    +0.000 A 
ATOM     17  C   UNL     1      -3.539  11.648  18.534  0.00  0.00    +0.000 A 
ATOM     18  C   UNL     1      -4.694  11.809  17.756  0.00  0.00    +0.000 A 
ATOM     19  C   UNL     1      -4.720  11.355  16.441  0.00  0.00    +0.000 A 
ATOM     20  C   UNL     1      -3.589  10.755  15.896  0.00  0.00    +0.000 A 
ATOM     21  C   UNL     1      -2.436  10.596  16.673  0.00  0.00    +0.000 A 
ENDBRANCH  15  16
ENDBRANCH  11  14
ENDBRANCH   5  11
BRANCH   9  22
ATOM     22  C   UNL     1       2.017   4.079  17.798  0.00  0.00    +0.000 C 
ATOM     23  O   UNL     1       0.827   3.933  17.555  0.00  0.00    +0.000 OA
BRANCH  22  24
ATOM     24  O   UNL     1       3.014   3.291  17.321  0.00  0.00    +0.000 OA
BRANCH  24  25
ATOM     25  C   UNL     1       4.298   3.456  17.940  0.00  0.00    +0.000 C 
BRANCH  25  26
ATOM     26  C   UNL     1       5.256   3.986  16.904  0.00  0.00    +0.000 A 
ATOM     27  C   UNL     1       6.559   4.363  17.257  0.00  0.00    +0.000 A 
ATOM     28  C   UNL     1       7.429   4.883  16.297  0.00  0.00    +0.000 A 
ATOM     29  C   UNL     1       7.004   5.031  14.977  0.00  0.00    +0.000 A 
ATOM     30  C   UNL     1       5.711   4.660  14.615  0.00  0.00    +0.000 A 
ATOM     31  C   UNL     1       4.839   4.144  15.575  0.00  0.00    +0.000 A 
ENDBRANCH  25  26
ENDBRANCH  24  25
ENDBRANCH  22  24
ENDBRANCH   9  22
TORSDOF 7
ENDMDL
MODEL 3
REMARK VINA RESULT:      -7.8      2.333      3.149
REMARK  Name = 
REMARK  8 active torsions:
REMARK  status: ('A' for Active; 'I' for Inactive)
REMARK    1  A    between atoms: C_1  and  C_2
REMARK    2  A    between atoms: N_5  and  S_6
REMARK    3  A    between atoms: S_6  and  C_9
REMARK    4  A    between atoms: C_10  and  C_11
REMARK    5  A    between atoms: C_20  and  C_21
REMARK    6  A    between atoms: C_21  and  O_23
REMARK    7  A    between atoms: O_23  and  C_24
REMARK    8  A    between atoms: C_24  and  C_25
REMARK                            x       y       z     vdW  Elec       q    Type
REMARK                         _______ _______ _______ _____ _____    ______ ____
ROOT
ATOM      1  C   UNL     1       4.264   7.366  17.488  0.00  0.00    +0.000 C 
ATOM      2  C   UNL     1       2.748   7.475  17.495  0.00  0.00    +0.000 C 
ATOM      3  C   UNL     1       2.221   8.846  17.991  0.00  0.00    +0.000 C 
ATOM      4  O   UNL     1       2.166   9.877  17.344  0.00  0.00    +0.000 OA
ATOM      5  N   UNL     1       1.818   8.695  19.352  0.00  0.00    +0.000 N 
ATOM      6  C   UNL     1       2.180   7.362  19.819  0.00  0.00    +0.000 C 
ATOM      7  C   UNL     1       1.407   6.493  20.764  0.00  0.00    +0.000 C 
ATOM      8  C   UNL     1       1.929   5.086  20.387  0.00  0.00    +0.000 C 
ATOM      9  C   UNL     1       2.496   5.177  18.936  0.00  0.00    +0.000 C 
ATOM     10  C   UNL     1       2.051   6.571  18.517  0.00  0.00    +0.000 C 
ENDROOT
BRANCH   5  11
ATOM     11  S   UNL     1       0.610   9.604  20.077  0.00  0.00    +0.000 S 
ATOM     12  O   UNL     1      -0.583   9.399  19.286  0.00  0.00    +0.000 OA
ATOM     13  O   UNL     1       0.594   9.242  21.482  0.00  0.00    +0.000 OA
BRANCH  11  14
ATOM     14  C   UNL     1       1.053  11.279  19.959  0.00  0.00    +0.000 C 
ATOM     15  C   UNL     1       0.346  12.140  19.205  0.00  0.00    +0.000 C 
BRANCH  15  16
ATOM     16  C   UNL     1       0.742  13.548  18.989  0.00  0.00    +0.000 A 
ATOM     17  C   UNL     1      -0.224  14.565  19.024  0.00  0.00    +0.000 A 
ATOM     18  C   UNL     1       0.131  15.902  18.797  0.00  0.00    +0.000 A 
ATOM     19  C   UNL     1       1.457  16.242  18.545  0.00  0.00    +0.000 A 
ATOM     20  C   UNL     1       2.432  15.248  18.535  0.00  0.00    +0.000 A 
ATOM     21  C   UNL     1       2.078  13.915  18.763  0.00  0.00    +0.000 A 
ENDBRANCH  15  16
ENDBRANCH  11  14
ENDBRANCH   5  11
BRANCH   9  22
ATOM     22  C   UNL     1       1.954   4.053  18.069  0.00  0.00    +0.000 C 
ATOM     23  O   UNL     1       0.760   3.830  17.921  0.00  0.00    +0.000 OA
BRANCH  22  24
ATOM     24  O   UNL     1       2.959   3.300  17.554  0.00  0.00    +0.000 OA
BRANCH  24  25
ATOM     25  C   UNL     1       4.227   3.405  18.217  0.00  0.00    +0.000 C 
BRANCH  25  26
ATOM     26  C   UNL     1       5.225   3.968  17.238  0.00  0.00    +0.000 A 
ATOM     27  C   UNL     1       6.466   4.451  17.675  0.00  0.00    +0.000 A 
ATOM     28  C   UNL     1       7.371   5.000  16.765  0.00  0.00    +0.000 A 
ATOM     29  C   UNL     1       7.044   5.072  15.411  0.00  0.00    +0.000 A 
ATOM     30  C   UNL     1       5.813   4.595  14.966  0.00  0.00    +0.000 A 
ATOM     31  C   UNL     1       4.905   4.049  15.875  0.00  0.00    +0.000 A 
ENDBRANCH  25  26
ENDBRANCH  24  25
ENDBRANCH  22  24
ENDBRANCH   9  22
TORSDOF 7
ENDMDL
MODEL 4
REMARK VINA RESULT:      -7.6      3.489      5.805
REMARK  Name = 
REMARK  8 active torsions:
REMARK  status: ('A' for Active; 'I' for Inactive)
REMARK    1  A    between atoms: C_1  and  C_2
REMARK    2  A    between atoms: N_5  and  S_6
REMARK    3  A    between atoms: S_6  and  C_9
REMARK    4  A    between atoms: C_10  and  C_11
REMARK    5  A    between atoms: C_20  and  C_21
REMARK    6  A    between atoms: C_21  and  O_23
REMARK    7  A    between atoms: O_23  and  C_24
REMARK    8  A    between atoms: C_24  and  C_25
REMARK                            x       y       z     vdW  Elec       q    Type
REMARK                         _______ _______ _______ _____ _____    ______ ____
ROOT
ATOM      1  C   UNL     1      -0.234   7.891  21.539  0.00  0.00    +0.000 C 
ATOM      2  C   UNL     1       0.551   9.192  21.489  0.00  0.00    +0.000 C 
ATOM      3  C   UNL     1      -0.065  10.329  22.345  0.00  0.00    +0.000 C 
ATOM      4  O   UNL     1       0.035  10.462  23.552  0.00  0.00    +0.000 OA
ATOM      5  N   UNL     1      -0.787  11.196  21.470  0.00  0.00    +0.000 N 
ATOM      6  C   UNL     1      -0.805  10.623  20.129  0.00  0.00    +0.000 C 
ATOM      7  C   UNL     1      -0.734  11.364  18.827  0.00  0.00    +0.000 C 
ATOM      8  C   UNL     1      -0.188  10.269  17.879  0.00  0.00    +0.000 C 
ATOM      9  C   UNL     1       0.533   9.207  18.765  0.00  0.00    +0.000 C 
ATOM     10  C   UNL     1       0.537   9.890  20.125  0.00  0.00    +0.000 C 
ENDROOT
BRANCH   5  11
ATOM     11  S   UNL     1      -1.015  12.832  21.751  0.00  0.00    +0.000 S 
ATOM     12  O   UNL     1      -2.437  13.071  21.637  0.00  0.00    +0.000 OA
ATOM     13  O   UNL     1      -0.346  13.143  23.001  0.00  0.00    +0.000 OA
BRANCH  11  14
ATOM     14  C   UNL     1      -0.218  13.712  20.484  0.00  0.00    +0.000 C 
ATOM     15  C   UNL     1       1.118  13.870  20.472  0.00  0.00    +0.000 C 
BRANCH  15  16
ATOM     16  C   UNL     1       1.831  14.697  19.476  0.00  0.00    +0.000 A 
ATOM     17  C   UNL     1       2.968  14.194  18.827  0.00  0.00    +0.000 A 
ATOM     18  C   UNL     1       3.671  14.974  17.897  0.00  0.00    +0.000 A 
ATOM     19  C   UNL     1       3.239  16.262  17.596  0.00  0.00    +0.000 A 
ATOM     20  C   UNL     1       2.096  16.766  18.210  0.00  0.00    +0.000 A 
ATOM     21  C   UNL     1       1.394  15.986  19.135  0.00  0.00    +0.000 A 
ENDBRANCH  15  16
ENDBRANCH  11  14
ENDBRANCH   5  11
BRANCH   9  22
ATOM     22  C   UNL     1       1.913   8.886  18.215  0.00  0.00    +0.000 C 
ATOM     23  O   UNL     1       2.410   9.465  17.258  0.00  0.00    +0.000 OA
BRANCH  22  24
ATOM     24  O   UNL     1       2.473   7.838  18.871  0.00  0.00    +0.000 OA
BRANCH  24  25
ATOM     25  C   UNL     1       2.801   6.695  18.068  0.00  0.00    +0.000 C 
BRANCH  25  26
ATOM     26  C   UNL     1       2.152   5.483  18.686  0.00  0.00    +0.000 A 
ATOM     27  C   UNL     1       1.923   5.417  20.067  0.00  0.00    +0.000 A 
ATOM     28  C   UNL     1       1.350   4.278  20.635  0.00  0.00    +0.000 A 
ATOM     29  C   UNL     1       1.002   3.195  19.828  0.00  0.00    +0.000 A 
ATOM     30  C   UNL     1       1.226   3.249  18.454  0.00  0.00    +0.000 A 
ATOM     31  C   UNL     1       1.802   4.386  17.885  0.00  0.00    +0.000 A 
ENDBRANCH  25  26
ENDBRANCH  24  25
ENDBRANCH  22  24
ENDBRANCH   9  22
TORSDOF 7
ENDMDL
MODEL 5
REMARK VINA RESULT:      -7.6      3.381      5.586
REMARK  Name = 
REMARK  8 active torsions:
REMARK  status: ('A' for Active; 'I' for Inactive)
REMARK    1  A    between atoms: C_1  and  C_2
REMARK    2  A    between atoms: N_5  and  S_6
REMARK    3  A    between atoms: S_6  and  C_9
REMARK    4  A    between atoms: C_10  and  C_11
REMARK    5  A    between atoms: C_20  and  C_21
REMARK    6  A    between atoms: C_21  and  O_23
REMARK    7  A    between atoms: O_23  and  C_24
REMARK    8  A    between atoms: C_24  and  C_25
REMARK                            x       y       z     vdW  Elec       q    Type
REMARK                         _______ _______ _______ _____ _____    ______ ____
ROOT
ATOM      1  C   UNL     1       0.240   7.508  21.460  0.00  0.00    +0.000 C 
ATOM      2  C   UNL     1       0.937   8.858  21.391  0.00  0.00    +0.000 C 
ATOM      3  C   UNL     1       0.282   9.947  22.279  0.00  0.00    +0.000 C 
ATOM      4  O   UNL     1       0.420  10.079  23.482  0.00  0.00    +0.000 OA
ATOM      5  N   UNL     1      -0.529  10.769  21.439  0.00  0.00    +0.000 N 
ATOM      6  C   UNL     1      -0.561  10.204  20.095  0.00  0.00    +0.000 C 
ATOM      7  C   UNL     1      -0.589  10.955  18.799  0.00  0.00    +0.000 C 
ATOM      8  C   UNL     1      -0.011   9.904  17.821  0.00  0.00    +0.000 C 
ATOM      9  C   UNL     1       0.812   8.887  18.670  0.00  0.00    +0.000 C 
ATOM     10  C   UNL     1       0.824   9.560  20.034  0.00  0.00    +0.000 C 
ENDROOT
BRANCH   5  11
ATOM     11  S   UNL     1      -0.852  12.385  21.743  0.00  0.00    +0.000 S 
ATOM     12  O   UNL     1      -2.091  12.688  21.062  0.00  0.00    +0.000 OA
ATOM     13  O   UNL     1      -0.776  12.569  23.181  0.00  0.00    +0.000 OA
BRANCH  11  14
ATOM     14  C   UNL     1       0.408  13.332  21.014  0.00  0.00    +0.000 C 
ATOM     15  C   UNL     1       0.176  14.093  19.929  0.00  0.00    +0.000 C 
BRANCH  15  16
ATOM     16  C   UNL     1       1.235  14.832  19.211  0.00  0.00    +0.000 A 
ATOM     17  C   UNL     1       1.241  16.235  19.213  0.00  0.00    +0.000 A 
ATOM     18  C   UNL     1       2.224  16.952  18.516  0.00  0.00    +0.000 A 
ATOM     19  C   UNL     1       3.221  16.276  17.820  0.00  0.00    +0.000 A 
ATOM     20  C   UNL     1       3.247  14.884  17.831  0.00  0.00    +0.000 A 
ATOM     21  C   UNL     1       2.267  14.170  18.528  0.00  0.00    +0.000 A 
ENDBRANCH  15  16
ENDBRANCH  11  14
ENDBRANCH   5  11
BRANCH   9  22
ATOM     22  C   UNL     1       2.187   8.660  18.064  0.00  0.00    +0.000 C 
ATOM     23  O   UNL     1       2.601   9.262  17.083  0.00  0.00    +0.000 OA
BRANCH  22  24
ATOM     24  O   UNL     1       2.848   7.663  18.705  0.00  0.00    +0.000 OA
BRANCH  24  25
ATOM     25  C   UNL     1       3.082   6.470  17.941  0.00  0.00    +0.000 C 
BRANCH  25  26
ATOM     26  C   UNL     1       2.373   5.328  18.623  0.00  0.00    +0.000 A 
ATOM     27  C   UNL     1       1.684   4.363  17.877  0.00  0.00    +0.000 A 
ATOM     28  C   UNL     1       1.004   3.326  18.519  0.00  0.00    +0.000 A 
ATOM     29  C   UNL     1       1.005   3.246  19.911  0.00  0.00    +0.000 A 
ATOM     30  C   UNL     1       1.687   4.202  20.663  0.00  0.00    +0.000 A 
ATOM     31  C   UNL     1       2.364   5.240  20.023  0.00  0.00    +0.000 A 
ENDBRANCH  25  26
ENDBRANCH  24  25
ENDBRANCH  22  24
ENDBRANCH   9  22
TORSDOF 7
ENDMDL
MODEL 6
REMARK VINA RESULT:      -7.6      3.094      5.287
REMARK  Name = 
REMARK  8 active torsions:
REMARK  status: ('A' for Active; 'I' for Inactive)
REMARK    1  A    between atoms: C_1  and  C_2
REMARK    2  A    between atoms: N_5  and  S_6
REMARK    3  A    between atoms: S_6  and  C_9
REMARK    4  A    between atoms: C_10  and  C_11
REMARK    5  A    between atoms: C_20  and  C_21
REMARK    6  A    between atoms: C_21  and  O_23
REMARK    7  A    between atoms: O_23  and  C_24
REMARK    8  A    between atoms: C_24  and  C_25
REMARK                            x       y       z     vdW  Elec       q    Type
REMARK                         _______ _______ _______ _____ _____    ______ ____
ROOT
ATOM      1  C   UNL     1      -0.150   7.840  21.412  0.00  0.00    +0.000 C 
ATOM      2  C   UNL     1       0.585   9.171  21.406  0.00  0.00    +0.000 C 
ATOM      3  C   UNL     1      -0.005  10.217  22.387  0.00  0.00    +0.000 C 
ATOM      4  O   UNL     1       0.180  10.264  23.591  0.00  0.00    +0.000 OA
ATOM      5  N   UNL     1      -0.819  11.116  21.634  0.00  0.00    +0.000 N 
ATOM      6  C   UNL     1      -0.916  10.643  20.258  0.00  0.00    +0.000 C 
ATOM      7  C   UNL     1      -0.967  11.480  19.016  0.00  0.00    +0.000 C 
ATOM      8  C   UNL     1      -0.457  10.480  17.950  0.00  0.00    +0.000 C 
ATOM      9  C   UNL     1       0.364   9.385  18.699  0.00  0.00    +0.000 C 
ATOM     10  C   UNL     1       0.446   9.966  20.103  0.00  0.00    +0.000 C 
ENDROOT
BRANCH   5  11
ATOM     11  S   UNL     1      -1.081  12.717  22.055  0.00  0.00    +0.000 S 
ATOM     12  O   UNL     1      -1.200  12.745  23.496  0.00  0.00    +0.000 OA
ATOM     13  O   UNL     1      -0.037  13.498  21.419  0.00  0.00    +0.000 OA
BRANCH  11  14
ATOM     14  C   UNL     1      -2.604  13.209  21.380  0.00  0.00    +0.000 C 
ATOM     15  C   UNL     1      -3.764  12.674  21.803  0.00  0.00    +0.000 C 
BRANCH  15  16
ATOM     16  C   UNL     1      -5.073  12.981  21.190  0.00  0.00    +0.000 A 
ATOM     17  C   UNL     1      -6.146  13.400  21.991  0.00  0.00    +0.000 A 
ATOM     18  C   UNL     1      -7.401  13.672  21.429  0.00  0.00    +0.000 A 
ATOM     19  C   UNL     1      -7.597  13.540  20.058  0.00  0.00    +0.000 A 
ATOM     20  C   UNL     1      -6.536  13.153  19.244  0.00  0.00    +0.000 A 
ATOM     21  C   UNL     1      -5.283  12.884  19.806  0.00  0.00    +0.000 A 
ENDBRANCH  15  16
ENDBRANCH  11  14
ENDBRANCH   5  11
BRANCH   9  22
ATOM     22  C   UNL     1       1.710   9.161  18.029  0.00  0.00    +0.000 C 
ATOM     23  O   UNL     1       2.419  10.068  17.618  0.00  0.00    +0.000 OA
BRANCH  22  24
ATOM     24  O   UNL     1       1.972   7.837  17.884  0.00  0.00    +0.000 OA
BRANCH  24  25
ATOM     25  C   UNL     1       2.682   7.214  18.965  0.00  0.00    +0.000 C 
BRANCH  25  26
ATOM     26  C   UNL     1       2.168   5.806  19.116  0.00  0.00    +0.000 A 
ATOM     27  C   UNL     1       1.967   4.990  17.995  0.00  0.00    +0.000 A 
ATOM     28  C   UNL     1       1.460   3.698  18.142  0.00  0.00    +0.000 A 
ATOM     29  C   UNL     1       1.149   3.209  19.411  0.00  0.00    +0.000 A 
ATOM     30  C   UNL     1       1.345   4.012  20.533  0.00  0.00    +0.000 A 
ATOM     31  C   UNL     1       1.848   5.306  20.387  0.00  0.00    +0.000 A 
ENDBRANCH  25  26
ENDBRANCH  24  25
ENDBRANCH  22  24
ENDBRANCH   9  22
TORSDOF 7
ENDMDL
MODEL 7
REMARK VINA RESULT:      -7.6      3.388      4.941
REMARK  Name = 
REMARK  8 active torsions:
REMARK  status: ('A' for Active; 'I' for Inactive)
REMARK    1  A    between atoms: C_1  and  C_2
REMARK    2  A    between atoms: N_5  and  S_6
REMARK    3  A    between atoms: S_6  and  C_9
REMARK    4  A    between atoms: C_10  and  C_11
REMARK    5  A    between atoms: C_20  and  C_21
REMARK    6  A    between atoms: C_21  and  O_23
REMARK    7  A    between atoms: O_23  and  C_24
REMARK    8  A    between atoms: C_24  and  C_25
REMARK                            x       y       z     vdW  Elec       q    Type
REMARK                         _______ _______ _______ _____ _____    ______ ____
ROOT
ATOM      1  C   UNL     1       4.263   3.175  16.573  0.00  0.00    +0.000 C 
ATOM      2  C   UNL     1       4.525   3.730  17.964  0.00  0.00    +0.000 C 
ATOM      3  C   UNL     1       3.408   3.406  18.989  0.00  0.00    +0.000 C 
ATOM      4  O   UNL     1       3.249   2.351  19.577  0.00  0.00    +0.000 OA
ATOM      5  N   UNL     1       2.581   4.563  19.118  0.00  0.00    +0.000 N 
ATOM      6  C   UNL     1       2.996   5.565  18.142  0.00  0.00    +0.000 C 
ATOM      7  C   UNL     1       3.014   7.052  18.325  0.00  0.00    +0.000 C 
ATOM      8  C   UNL     1       4.068   7.479  17.275  0.00  0.00    +0.000 C 
ATOM      9  C   UNL     1       4.962   6.234  16.984  0.00  0.00    +0.000 C 
ATOM     10  C   UNL     1       4.492   5.259  18.054  0.00  0.00    +0.000 C 
ENDROOT
BRANCH   5  11
ATOM     11  S   UNL     1       1.737   4.960  20.510  0.00  0.00    +0.000 S 
ATOM     12  O   UNL     1       0.435   4.343  20.387  0.00  0.00    +0.000 OA
ATOM     13  O   UNL     1       2.582   4.602  21.634  0.00  0.00    +0.000 OA
BRANCH  11  14
ATOM     14  C   UNL     1       1.516   6.683  20.533  0.00  0.00    +0.000 C 
ATOM     15  C   UNL     1       0.766   7.281  21.476  0.00  0.00    +0.000 C 
BRANCH  15  16
ATOM     16  C   UNL     1       0.462   8.727  21.478  0.00  0.00    +0.000 A 
ATOM     17  C   UNL     1       0.870   9.534  20.405  0.00  0.00    +0.000 A 
ATOM     18  C   UNL     1       0.611  10.913  20.402  0.00  0.00    +0.000 A 
ATOM     19  C   UNL     1      -0.070  11.499  21.464  0.00  0.00    +0.000 A 
ATOM     20  C   UNL     1      -0.507  10.708  22.523  0.00  0.00    +0.000 A 
ATOM     21  C   UNL     1      -0.250   9.333  22.524  0.00  0.00    +0.000 A 
ENDBRANCH  15  16
ENDBRANCH  11  14
ENDBRANCH   5  11
BRANCH   9  22
ATOM     22  C   UNL     1       6.436   6.594  17.062  0.00  0.00    +0.000 C 
ATOM     23  O   UNL     1       6.943   7.168  18.016  0.00  0.00    +0.000 OA
BRANCH  22  24
ATOM     24  O   UNL     1       7.084   6.265  15.915  0.00  0.00    +0.000 OA
BRANCH  24  25
ATOM     25  C   UNL     1       7.316   4.865  15.702  0.00  0.00    +0.000 C 
BRANCH  25  26
ATOM     26  C   UNL     1       7.106   4.569  14.240  0.00  0.00    +0.000 A 
ATOM     27  C   UNL     1       7.829   5.258  13.257  0.00  0.00    +0.000 A 
ATOM     28  C   UNL     1       7.605   5.000  11.903  0.00  0.00    +0.000 A 
ATOM     29  C   UNL     1       6.655   4.054  11.520  0.00  0.00    +0.000 A 
ATOM     30  C   UNL     1       5.929   3.364  12.489  0.00  0.00    +0.000 A 
ATOM     31  C   UNL     1       6.149   3.623  13.843  0.00  0.00    +0.000 A 
ENDBRANCH  25  26
ENDBRANCH  24  25
ENDBRANCH  22  24
ENDBRANCH   9  22
TORSDOF 7
ENDMDL
MODEL 8
REMARK VINA RESULT:      -7.6      3.577      5.851
REMARK  Name = 
REMARK  8 active torsions:
REMARK  status: ('A' for Active; 'I' for Inactive)
REMARK    1  A    between atoms: C_1  and  C_2
REMARK    2  A    between atoms: N_5  and  S_6
REMARK    3  A    between atoms: S_6  and  C_9
REMARK    4  A    between atoms: C_10  and  C_11
REMARK    5  A    between atoms: C_20  and  C_21
REMARK    6  A    between atoms: C_21  and  O_23
REMARK    7  A    between atoms: O_23  and  C_24
REMARK    8  A    between atoms: C_24  and  C_25
REMARK                            x       y       z     vdW  Elec       q    Type
REMARK                         _______ _______ _______ _____ _____    ______ ____
ROOT
ATOM      1  C   UNL     1       0.342   8.955  21.938  0.00  0.00    +0.000 C 
ATOM      2  C   UNL     1       0.597  10.324  21.328  0.00  0.00    +0.000 C 
ATOM      3  C   UNL     1      -0.351  11.432  21.856  0.00  0.00    +0.000 C 
ATOM      4  O   UNL     1      -0.250  12.025  22.916  0.00  0.00    +0.000 OA
ATOM      5  N   UNL     1      -1.378  11.631  20.885  0.00  0.00    +0.000 N 
ATOM      6  C   UNL     1      -1.248  10.632  19.832  0.00  0.00    +0.000 C 
ATOM      7  C   UNL     1      -1.511  10.820  18.368  0.00  0.00    +0.000 C 
ATOM      8  C   UNL     1      -0.649   9.692  17.752  0.00  0.00    +0.000 C 
ATOM      9  C   UNL     1       0.449   9.326  18.797  0.00  0.00    +0.000 C 
ATOM     10  C   UNL     1       0.267  10.424  19.835  0.00  0.00    +0.000 C 
ENDROOT
BRANCH   5  11
ATOM     11  S   UNL     1      -2.172  13.088  20.649  0.00  0.00    +0.000 S 
ATOM     12  O   UNL     1      -3.099  12.875  19.559  0.00  0.00    +0.000 OA
ATOM     13  O   UNL     1      -2.688  13.503  21.941  0.00  0.00    +0.000 OA
BRANCH  11  14
ATOM     14  C   UNL     1      -1.000  14.263  20.137  0.00  0.00    +0.000 C 
ATOM     15  C   UNL     1      -0.172  14.024  19.105  0.00  0.00    +0.000 C 
BRANCH  15  16
ATOM     16  C   UNL     1       0.910  14.945  18.699  0.00  0.00    +0.000 A 
ATOM     17  C   UNL     1       2.181  14.443  18.382  0.00  0.00    +0.000 A 
ATOM     18  C   UNL     1       3.226  15.306  18.018  0.00  0.00    +0.000 A 
ATOM     19  C   UNL     1       3.009  16.679  17.954  0.00  0.00    +0.000 A 
ATOM     20  C   UNL     1       1.746  17.191  18.237  0.00  0.00    +0.000 A 
ATOM     21  C   UNL     1       0.704  16.330  18.598  0.00  0.00    +0.000 A 
ENDBRANCH  15  16
ENDBRANCH  11  14
ENDBRANCH   5  11
BRANCH   9  22
ATOM     22  C   UNL     1       1.824   9.288  18.152  0.00  0.00    +0.000 C 
ATOM     23  O   UNL     1       2.360  10.265  17.647  0.00  0.00    +0.000 OA
BRANCH  22  24
ATOM     24  O   UNL     1       2.330   8.029  18.144  0.00  0.00    +0.000 OA
BRANCH  24  25
ATOM     25  C   UNL     1       2.519   7.419  19.430  0.00  0.00    +0.000 C 
BRANCH  25  26
ATOM     26  C   UNL     1       2.073   5.982  19.339  0.00  0.00    +0.000 A 
ATOM     27  C   UNL     1       2.044   5.315  18.107  0.00  0.00    +0.000 A 
ATOM     28  C   UNL     1       1.599   3.994  18.029  0.00  0.00    +0.000 A 
ATOM     29  C   UNL     1       1.178   3.329  19.179  0.00  0.00    +0.000 A 
ATOM     30  C   UNL     1       1.201   3.983  20.410  0.00  0.00    +0.000 A 
ATOM     31  C   UNL     1       1.642   5.305  20.490  0.00  0.00    +0.000 A 
ENDBRANCH  25  26
ENDBRANCH  24  25
ENDBRANCH  22  24
ENDBRANCH   9  22
TORSDOF 7
ENDMDL
MODEL 9
REMARK VINA RESULT:      -7.6      3.529      5.450
REMARK  Name = 
REMARK  8 active torsions:
REMARK  status: ('A' for Active; 'I' for Inactive)
REMARK    1  A    between atoms: C_1  and  C_2
REMARK    2  A    between atoms: N_5  and  S_6
REMARK    3  A    between atoms: S_6  and  C_9
REMARK    4  A    between atoms: C_10  and  C_11
REMARK    5  A    between atoms: C_20  and  C_21
REMARK    6  A    between atoms: C_21  and  O_23
REMARK    7  A    between atoms: O_23  and  C_24
REMARK    8  A    between atoms: C_24  and  C_25
REMARK                            x       y       z     vdW  Elec       q    Type
REMARK                         _______ _______ _______ _____ _____    ______ ____
ROOT
ATOM      1  C   UNL     1       0.638   8.743  21.634  0.00  0.00    +0.000 C 
ATOM      2  C   UNL     1       0.721  10.203  21.215  0.00  0.00    +0.000 C 
ATOM      3  C   UNL     1      -0.342  11.109  21.889  0.00  0.00    +0.000 C 
ATOM      4  O   UNL     1      -0.295  11.561  23.020  0.00  0.00    +0.000 OA
ATOM      5  N   UNL     1      -1.401  11.315  20.954  0.00  0.00    +0.000 N 
ATOM      6  C   UNL     1      -1.170  10.489  19.774  0.00  0.00    +0.000 C 
ATOM      7  C   UNL     1      -1.477  10.842  18.350  0.00  0.00    +0.000 C 
ATOM      8  C   UNL     1      -0.498   9.917  17.586  0.00  0.00    +0.000 C 
ATOM      9  C   UNL     1       0.652   9.546  18.573  0.00  0.00    +0.000 C 
ATOM     10  C   UNL     1       0.358  10.464  19.750  0.00  0.00    +0.000 C 
ENDROOT
BRANCH   5  11
ATOM     11  S   UNL     1      -2.364  12.686  20.918  0.00  0.00    +0.000 S 
ATOM     12  O   UNL     1      -3.347  12.466  19.880  0.00  0.00    +0.000 OA
ATOM     13  O   UNL     1      -2.816  12.921  22.277  0.00  0.00    +0.000 OA
BRANCH  11  14
ATOM     14  C   UNL     1      -1.371  14.029  20.443  0.00  0.00    +0.000 C 
ATOM     15  C   UNL     1      -0.760  14.061  19.245  0.00  0.00    +0.000 C 
BRANCH  15  16
ATOM     16  C   UNL     1       0.177  15.128  18.837  0.00  0.00    +0.000 A 
ATOM     17  C   UNL     1       1.560  14.889  18.833  0.00  0.00    +0.000 A 
ATOM     18  C   UNL     1       2.464  15.898  18.472  0.00  0.00    +0.000 A 
ATOM     19  C   UNL     1       1.998  17.155  18.099  0.00  0.00    +0.000 A 
ATOM     20  C   UNL     1       0.628  17.400  18.069  0.00  0.00    +0.000 A 
ATOM     21  C   UNL     1      -0.273  16.392  18.427  0.00  0.00    +0.000 A 
ENDBRANCH  15  16
ENDBRANCH  11  14
ENDBRANCH   5  11
BRANCH   9  22
ATOM     22  C   UNL     1       2.011   9.759  17.928  0.00  0.00    +0.000 C 
ATOM     23  O   UNL     1       2.443  10.859  17.610  0.00  0.00    +0.000 OA
BRANCH  22  24
ATOM     24  O   UNL     1       2.634   8.577  17.690  0.00  0.00    +0.000 OA
BRANCH  24  25
ATOM     25  C   UNL     1       2.401   7.538  18.653  0.00  0.00    +0.000 C 
BRANCH  25  26
ATOM     26  C   UNL     1       2.874   6.234  18.062  0.00  0.00    +0.000 A 
ATOM     27  C   UNL     1       2.064   5.092  18.103  0.00  0.00    +0.000 A 
ATOM     28  C   UNL     1       2.523   3.881  17.581  0.00  0.00    +0.000 A 
ATOM     29  C   UNL     1       3.795   3.801  17.015  0.00  0.00    +0.000 A 
ATOM     30  C   UNL     1       4.609   4.931  16.971  0.00  0.00    +0.000 A 
ATOM     31  C   UNL     1       4.153   6.141  17.495  0.00  0.00    +0.000 A 
ENDBRANCH  25  26
ENDBRANCH  24  25
ENDBRANCH  22  24
ENDBRANCH   9  22
TORSDOF 7
ENDMDL
