MODEL 1
REMARK VINA RESULT:      -9.0      0.000      0.000
REMARK  Name = 
REMARK  3 active torsions:
REMARK  status: ('A' for Active; 'I' for Inactive)
REMARK    1  A    between atoms: C_2  and  C_10
REMARK    2  A    between atoms: C_15  and  O_16
REMARK    3  A    between atoms: N_21  and  C_22
REMARK                            x       y       z     vdW  Elec       q    Type
REMARK                         _______ _______ _______ _____ _____    ______ ____
ROOT
ATOM      1  C   UNL     1       3.040   7.524  18.097  0.00  0.00    +0.000 A 
ATOM      2  C   UNL     1       4.174   7.776  17.418  0.00  0.00    +0.000 A 
ATOM      3  C   UNL     1       5.252   6.802  17.369  0.00  0.00    +0.000 A 
ATOM      4  C   UNL     1       6.516   7.096  16.853  0.00  0.00    +0.000 A 
ATOM      5  C   UNL     1       7.541   6.147  16.934  0.00  0.00    +0.000 A 
ATOM      6  C   UNL     1       7.293   4.909  17.525  0.00  0.00    +0.000 A 
ATOM      7  C   UNL     1       6.033   4.592  18.010  0.00  0.00    +0.000 A 
ATOM      8  C   UNL     1       5.028   5.547  17.915  0.00  0.00    +0.000 A 
ATOM      9  O   UNL     1       3.769   5.221  18.438  0.00  0.00    +0.000 OA
ATOM     10  C   UNL     1       2.834   6.206  18.743  0.00  0.00    +0.000 A 
ATOM     11  N   UNL     1       1.832   5.955  19.538  0.00  0.00    +0.000 NA
ENDROOT
BRANCH   1  13
ATOM     12  O   UNL     1       1.836   9.315  17.160  0.00  0.00    +0.000 OA
ATOM     13  C   UNL     1       2.068   8.662  18.178  0.00  0.00    +0.000 C 
ATOM     14  N   UNL     1       1.531   8.882  19.424  0.00  0.00    +0.000 N 
ATOM     15  C   UNL     1       0.550   9.844  19.697  0.00  0.00    +0.000 A 
ATOM     16  C   UNL     1       0.189  10.059  21.024  0.00  0.00    +0.000 A 
ATOM     17  C   UNL     1      -0.782  11.019  21.311  0.00  0.00    +0.000 A 
ATOM     18  C   UNL     1      -1.371  11.729  20.273  0.00  0.00    +0.000 A 
ATOM     19  C   UNL     1      -0.964  11.444  18.985  0.00  0.00    +0.000 A 
ATOM     20  N   UNL     1      -0.028  10.521  18.689  0.00  0.00    +0.000 NA
ATOM     21  H   UNL     1       1.906   8.356  20.209  0.00  0.00    +0.000 HD
ENDBRANCH   1  13
BRANCH  11  22
ATOM     22  C   UNL     1       1.726   4.701  20.175  0.00  0.00    +0.000 A 
ATOM     23  C   UNL     1       2.270   4.427  21.439  0.00  0.00    +0.000 A 
ATOM     24  C   UNL     1       2.205   3.150  21.995  0.00  0.00    +0.000 A 
ATOM     25  C   UNL     1       1.511   2.143  21.332  0.00  0.00    +0.000 A 
ATOM     26  C   UNL     1       0.884   2.421  20.119  0.00  0.00    +0.000 A 
ATOM     27  C   UNL     1       0.996   3.690  19.543  0.00  0.00    +0.000 A 
ENDBRANCH  11  22
BRANCH   6  28
ATOM     28  O   UNL     1       8.275   3.973  17.655  0.00  0.00    +0.000 OA
ATOM     29  H   UNL     1       8.475   3.604  16.779  0.00  0.00    +0.000 HD
ENDBRANCH   6  28
TORSDOF 3
ENDMDL
MODEL 2
REMARK VINA RESULT:      -8.6      3.138      7.451
REMARK  Name = 
REMARK  3 active torsions:
REMARK  status: ('A' for Active; 'I' for Inactive)
REMARK    1  A    between atoms: C_2  and  C_10
REMARK    2  A    between atoms: C_15  and  O_16
REMARK    3  A    between atoms: N_21  and  C_22
REMARK                            x       y       z     vdW  Elec       q    Type
REMARK                         _______ _______ _______ _____ _____    ______ ____
ROOT
ATOM      1  C   UNL     1       4.055   5.019  17.555  0.00  0.00    +0.000 A 
ATOM      2  C   UNL     1       4.090   3.763  18.039  0.00  0.00    +0.000 A 
ATOM      3  C   UNL     1       3.277   3.375  19.179  0.00  0.00    +0.000 A 
ATOM      4  C   UNL     1       3.429   2.152  19.837  0.00  0.00    +0.000 A 
ATOM      5  C   UNL     1       2.689   1.884  20.994  0.00  0.00    +0.000 A 
ATOM      6  C   UNL     1       1.798   2.839  21.482  0.00  0.00    +0.000 A 
ATOM      7  C   UNL     1       1.612   4.043  20.818  0.00  0.00    +0.000 A 
ATOM      8  C   UNL     1       2.354   4.287  19.668  0.00  0.00    +0.000 A 
ATOM      9  O   UNL     1       2.176   5.521  19.028  0.00  0.00    +0.000 OA
ATOM     10  C   UNL     1       3.118   6.014  18.129  0.00  0.00    +0.000 A 
ATOM     11  N   UNL     1       3.143   7.277  17.811  0.00  0.00    +0.000 NA
ENDROOT
BRANCH   1  13
ATOM     12  O   UNL     1       5.756   6.316  16.574  0.00  0.00    +0.000 OA
ATOM     13  C   UNL     1       5.038   5.320  16.466  0.00  0.00    +0.000 C 
ATOM     14  N   UNL     1       5.028   4.438  15.411  0.00  0.00    +0.000 N 
ATOM     15  C   UNL     1       5.917   4.497  14.330  0.00  0.00    +0.000 A 
ATOM     16  C   UNL     1       5.714   3.629  13.262  0.00  0.00    +0.000 A 
ATOM     17  C   UNL     1       6.588   3.681  12.175  0.00  0.00    +0.000 A 
ATOM     18  C   UNL     1       7.641   4.586  12.187  0.00  0.00    +0.000 A 
ATOM     19  C   UNL     1       7.777   5.402  13.292  0.00  0.00    +0.000 A 
ATOM     20  N   UNL     1       6.944   5.365  14.349  0.00  0.00    +0.000 NA
ATOM     21  H   UNL     1       4.296   3.733  15.381  0.00  0.00    +0.000 HD
ENDBRANCH   1  13
BRANCH  11  22
ATOM     22  C   UNL     1       2.269   8.187  18.440  0.00  0.00    +0.000 A 
ATOM     23  C   UNL     1       1.934   8.123  19.802  0.00  0.00    +0.000 A 
ATOM     24  C   UNL     1       1.006   9.000  20.362  0.00  0.00    +0.000 A 
ATOM     25  C   UNL     1       0.462  10.017  19.586  0.00  0.00    +0.000 A 
ATOM     26  C   UNL     1       0.852  10.154  18.256  0.00  0.00    +0.000 A 
ATOM     27  C   UNL     1       1.745   9.242  17.686  0.00  0.00    +0.000 A 
ENDBRANCH  11  22
BRANCH   6  28
ATOM     28  O   UNL     1       1.086   2.631  22.625  0.00  0.00    +0.000 OA
ATOM     29  H   UNL     1       1.675   2.750  23.388  0.00  0.00    +0.000 HD
ENDBRANCH   6  28
TORSDOF 3
ENDMDL
MODEL 3
REMARK VINA RESULT:      -8.1      4.288      5.995
REMARK  Name = 
REMARK  3 active torsions:
REMARK  status: ('A' for Active; 'I' for Inactive)
REMARK    1  A    between atoms: C_2  and  C_10
REMARK    2  A    between atoms: C_15  and  O_16
REMARK    3  A    between atoms: N_21  and  C_22
REMARK                            x       y       z     vdW  Elec       q    Type
REMARK                         _______ _______ _______ _____ _____    ______ ____
ROOT
ATOM      1  C   UNL     1       6.764   6.108  16.510  0.00  0.00    +0.000 A 
ATOM      2  C   UNL     1       7.373   6.054  15.311  0.00  0.00    +0.000 A 
ATOM      3  C   UNL     1       6.922   5.134  14.281  0.00  0.00    +0.000 A 
ATOM      4  C   UNL     1       7.642   4.898  13.107  0.00  0.00    +0.000 A 
ATOM      5  C   UNL     1       7.208   3.921  12.205  0.00  0.00    +0.000 A 
ATOM      6  C   UNL     1       6.053   3.190  12.481  0.00  0.00    +0.000 A 
ATOM      7  C   UNL     1       5.310   3.438  13.625  0.00  0.00    +0.000 A 
ATOM      8  C   UNL     1       5.757   4.417  14.506  0.00  0.00    +0.000 A 
ATOM      9  O   UNL     1       5.010   4.633  15.672  0.00  0.00    +0.000 OA
ATOM     10  C   UNL     1       5.559   5.285  16.773  0.00  0.00    +0.000 A 
ATOM     11  N   UNL     1       5.017   5.179  17.953  0.00  0.00    +0.000 NA
ENDROOT
BRANCH   1  13
ATOM     12  O   UNL     1       7.743   6.520  18.610  0.00  0.00    +0.000 OA
ATOM     13  C   UNL     1       7.410   7.001  17.525  0.00  0.00    +0.000 C 
ATOM     14  N   UNL     1       7.554   8.313  17.140  0.00  0.00    +0.000 N 
ATOM     15  C   UNL     1       8.199   9.290  17.909  0.00  0.00    +0.000 A 
ATOM     16  C   UNL     1       8.158  10.609  17.467  0.00  0.00    +0.000 A 
ATOM     17  C   UNL     1       8.790  11.594  18.227  0.00  0.00    +0.000 A 
ATOM     18  C   UNL     1       9.451  11.238  19.395  0.00  0.00    +0.000 A 
ATOM     19  C   UNL     1       9.455   9.905  19.754  0.00  0.00    +0.000 A 
ATOM     20  N   UNL     1       8.850   8.941  19.033  0.00  0.00    +0.000 NA
ATOM     21  H   UNL     1       7.118   8.609  16.271  0.00  0.00    +0.000 HD
ENDBRANCH   1  13
BRANCH  11  22
ATOM     22  C   UNL     1       3.911   4.327  18.154  0.00  0.00    +0.000 A 
ATOM     23  C   UNL     1       4.027   2.994  18.577  0.00  0.00    +0.000 A 
ATOM     24  C   UNL     1       2.908   2.169  18.689  0.00  0.00    +0.000 A 
ATOM     25  C   UNL     1       1.640   2.692  18.464  0.00  0.00    +0.000 A 
ATOM     26  C   UNL     1       1.496   4.037  18.133  0.00  0.00    +0.000 A 
ATOM     27  C   UNL     1       2.625   4.847  17.974  0.00  0.00    +0.000 A 
ENDBRANCH  11  22
BRANCH   6  28
ATOM     28  O   UNL     1       5.617   2.205  11.645  0.00  0.00    +0.000 OA
ATOM     29  H   UNL     1       4.714   2.416  11.355  0.00  0.00    +0.000 HD
ENDBRANCH   6  28
TORSDOF 3
ENDMDL
MODEL 4
REMARK VINA RESULT:      -7.9      1.213      1.239
REMARK  Name = 
REMARK  3 active torsions:
REMARK  status: ('A' for Active; 'I' for Inactive)
REMARK    1  A    between atoms: C_2  and  C_10
REMARK    2  A    between atoms: C_15  and  O_16
REMARK    3  A    between atoms: N_21  and  C_22
REMARK                            x       y       z     vdW  Elec       q    Type
REMARK                         _______ _______ _______ _____ _____    ______ ____
ROOT
ATOM      1  C   UNL     1       2.727   7.552  18.134  0.00  0.00    +0.000 A 
ATOM      2  C   UNL     1       3.558   7.686  17.084  0.00  0.00    +0.000 A 
ATOM      3  C   UNL     1       4.318   6.554  16.579  0.00  0.00    +0.000 A 
ATOM      4  C   UNL     1       5.336   6.687  15.631  0.00  0.00    +0.000 A 
ATOM      5  C   UNL     1       6.100   5.574  15.267  0.00  0.00    +0.000 A 
ATOM      6  C   UNL     1       5.838   4.334  15.848  0.00  0.00    +0.000 A 
ATOM      7  C   UNL     1       4.808   4.181  16.764  0.00  0.00    +0.000 A 
ATOM      8  C   UNL     1       4.057   5.300  17.108  0.00  0.00    +0.000 A 
ATOM      9  O   UNL     1       3.040   5.134  18.058  0.00  0.00    +0.000 OA
ATOM     10  C   UNL     1       2.506   6.219  18.746  0.00  0.00    +0.000 A 
ATOM     11  N   UNL     1       1.837   6.050  19.851  0.00  0.00    +0.000 NA
ENDROOT
BRANCH   1  13
ATOM     12  O   UNL     1       2.214   9.841  17.953  0.00  0.00    +0.000 OA
ATOM     13  C   UNL     1       2.109   8.821  18.636  0.00  0.00    +0.000 C 
ATOM     14  N   UNL     1       1.485   8.722  19.857  0.00  0.00    +0.000 N 
ATOM     15  C   UNL     1       0.782   9.770  20.467  0.00  0.00    +0.000 A 
ATOM     16  C   UNL     1       0.313   9.582  21.763  0.00  0.00    +0.000 A 
ATOM     17  C   UNL     1      -0.383  10.620  22.385  0.00  0.00    +0.000 A 
ATOM     18  C   UNL     1      -0.599  11.807  21.698  0.00  0.00    +0.000 A 
ATOM     19  C   UNL     1      -0.110  11.905  20.411  0.00  0.00    +0.000 A 
ATOM     20  N   UNL     1       0.563  10.914  19.795  0.00  0.00    +0.000 NA
ATOM     21  H   UNL     1       1.584   7.856  20.379  0.00  0.00    +0.000 HD
ENDBRANCH   1  13
BRANCH  11  22
ATOM     22  C   UNL     1       1.717   4.765  20.419  0.00  0.00    +0.000 A 
ATOM     23  C   UNL     1       2.410   4.359  21.570  0.00  0.00    +0.000 A 
ATOM     24  C   UNL     1       2.316   3.054  22.051  0.00  0.00    +0.000 A 
ATOM     25  C   UNL     1       1.453   2.152  21.437  0.00  0.00    +0.000 A 
ATOM     26  C   UNL     1       0.686   2.563  20.349  0.00  0.00    +0.000 A 
ATOM     27  C   UNL     1       0.822   3.859  19.841  0.00  0.00    +0.000 A 
ENDBRANCH  11  22
BRANCH   6  28
ATOM     28  O   UNL     1       6.583   3.234  15.546  0.00  0.00    +0.000 OA
ATOM     29  H   UNL     1       6.844   2.794  16.372  0.00  0.00    +0.000 HD
ENDBRANCH   6  28
TORSDOF 3
ENDMDL
MODEL 5
REMARK VINA RESULT:      -7.8      1.213      1.454
REMARK  Name = 
REMARK  3 active torsions:
REMARK  status: ('A' for Active; 'I' for Inactive)
REMARK    1  A    between atoms: C_2  and  C_10
REMARK    2  A    between atoms: C_15  and  O_16
REMARK    3  A    between atoms: N_21  and  C_22
REMARK                            x       y       z     vdW  Elec       q    Type
REMARK                         _______ _______ _______ _____ _____    ______ ____
ROOT
ATOM      1  C   UNL     1       2.956   7.510  17.941  0.00  0.00    +0.000 A 
ATOM      2  C   UNL     1       4.093   7.762  17.265  0.00  0.00    +0.000 A 
ATOM      3  C   UNL     1       5.193   6.813  17.267  0.00  0.00    +0.000 A 
ATOM      4  C   UNL     1       6.457   7.116  16.754  0.00  0.00    +0.000 A 
ATOM      5  C   UNL     1       7.503   6.196  16.883  0.00  0.00    +0.000 A 
ATOM      6  C   UNL     1       7.276   4.976  17.520  0.00  0.00    +0.000 A 
ATOM      7  C   UNL     1       6.018   4.648  18.002  0.00  0.00    +0.000 A 
ATOM      8  C   UNL     1       4.991   5.575  17.859  0.00  0.00    +0.000 A 
ATOM      9  O   UNL     1       3.734   5.240  18.380  0.00  0.00    +0.000 OA
ATOM     10  C   UNL     1       2.773   6.213  18.635  0.00  0.00    +0.000 A 
ATOM     11  N   UNL     1       1.767   5.970  19.427  0.00  0.00    +0.000 NA
ENDROOT
BRANCH   1  13
ATOM     12  O   UNL     1       0.767   8.360  17.793  0.00  0.00    +0.000 OA
ATOM     13  C   UNL     1       1.958   8.626  17.967  0.00  0.00    +0.000 C 
ATOM     14  N   UNL     1       2.488   9.879  18.168  0.00  0.00    +0.000 N 
ATOM     15  C   UNL     1       1.721  11.044  18.301  0.00  0.00    +0.000 A 
ATOM     16  C   UNL     1       2.385  12.265  18.365  0.00  0.00    +0.000 A 
ATOM     17  C   UNL     1       1.633  13.435  18.490  0.00  0.00    +0.000 A 
ATOM     18  C   UNL     1       0.249  13.354  18.558  0.00  0.00    +0.000 A 
ATOM     19  C   UNL     1      -0.328  12.101  18.500  0.00  0.00    +0.000 A 
ATOM     20  N   UNL     1       0.381  10.963  18.379  0.00  0.00    +0.000 NA
ATOM     21  H   UNL     1       3.499   9.978  18.165  0.00  0.00    +0.000 HD
ENDBRANCH   1  13
BRANCH  11  22
ATOM     22  C   UNL     1       1.682   4.739  20.111  0.00  0.00    +0.000 A 
ATOM     23  C   UNL     1       2.246   4.517  21.377  0.00  0.00    +0.000 A 
ATOM     24  C   UNL     1       2.201   3.261  21.981  0.00  0.00    +0.000 A 
ATOM     25  C   UNL     1       1.509   2.223  21.364  0.00  0.00    +0.000 A 
ATOM     26  C   UNL     1       0.864   2.449  20.151  0.00  0.00    +0.000 A 
ATOM     27  C   UNL     1       0.955   3.698  19.527  0.00  0.00    +0.000 A 
ENDBRANCH  11  22
BRANCH   6  28
ATOM     28  O   UNL     1       8.277   4.069  17.697  0.00  0.00    +0.000 OA
ATOM     29  H   UNL     1       9.118   4.545  17.799  0.00  0.00    +0.000 HD
ENDBRANCH   6  28
TORSDOF 3
ENDMDL
MODEL 6
REMARK VINA RESULT:      -7.6      2.886      6.865
REMARK  Name = 
REMARK  3 active torsions:
REMARK  status: ('A' for Active; 'I' for Inactive)
REMARK    1  A    between atoms: C_2  and  C_10
REMARK    2  A    between atoms: C_15  and  O_16
REMARK    3  A    between atoms: N_21  and  C_22
REMARK                            x       y       z     vdW  Elec       q    Type
REMARK                         _______ _______ _______ _____ _____    ______ ____
ROOT
ATOM      1  C   UNL     1       4.046   7.084  17.407  0.00  0.00    +0.000 A 
ATOM      2  C   UNL     1       3.701   8.385  17.367  0.00  0.00    +0.000 A 
ATOM      3  C   UNL     1       2.619   8.901  18.188  0.00  0.00    +0.000 A 
ATOM      4  C   UNL     1       2.097  10.187  18.033  0.00  0.00    +0.000 A 
ATOM      5  C   UNL     1       0.984  10.584  18.782  0.00  0.00    +0.000 A 
ATOM      6  C   UNL     1       0.405   9.694  19.686  0.00  0.00    +0.000 A 
ATOM      7  C   UNL     1       0.935   8.426  19.875  0.00  0.00    +0.000 A 
ATOM      8  C   UNL     1       2.044   8.054  19.124  0.00  0.00    +0.000 A 
ATOM      9  O   UNL     1       2.548   6.758  19.305  0.00  0.00    +0.000 OA
ATOM     10  C   UNL     1       3.377   6.164  18.359  0.00  0.00    +0.000 A 
ATOM     11  N   UNL     1       3.556   4.874  18.340  0.00  0.00    +0.000 NA
ENDROOT
BRANCH   1  13
ATOM     12  O   UNL     1       6.166   7.251  16.400  0.00  0.00    +0.000 OA
ATOM     13  C   UNL     1       5.085   6.659  16.416  0.00  0.00    +0.000 C 
ATOM     14  N   UNL     1       4.711   5.631  15.583  0.00  0.00    +0.000 N 
ATOM     15  C   UNL     1       5.559   5.036  14.640  0.00  0.00    +0.000 A 
ATOM     16  C   UNL     1       5.018   4.098  13.767  0.00  0.00    +0.000 A 
ATOM     17  C   UNL     1       5.850   3.502  12.817  0.00  0.00    +0.000 A 
ATOM     18  C   UNL     1       7.193   3.849  12.772  0.00  0.00    +0.000 A 
ATOM     19  C   UNL     1       7.651   4.779  13.683  0.00  0.00    +0.000 A 
ATOM     20  N   UNL     1       6.863   5.364  14.606  0.00  0.00    +0.000 NA
ATOM     21  H   UNL     1       3.744   5.318  15.611  0.00  0.00    +0.000 HD
ENDBRANCH   1  13
BRANCH  11  22
ATOM     22  C   UNL     1       2.841   4.044  19.229  0.00  0.00    +0.000 A 
ATOM     23  C   UNL     1       1.508   3.654  19.021  0.00  0.00    +0.000 A 
ATOM     24  C   UNL     1       0.819   2.894  19.965  0.00  0.00    +0.000 A 
ATOM     25  C   UNL     1       1.483   2.434  21.098  0.00  0.00    +0.000 A 
ATOM     26  C   UNL     1       2.831   2.733  21.277  0.00  0.00    +0.000 A 
ATOM     27  C   UNL     1       3.504   3.537  20.351  0.00  0.00    +0.000 A 
ENDBRANCH  11  22
BRANCH   6  28
ATOM     28  O   UNL     1      -0.701  10.031  20.407  0.00  0.00    +0.000 OA
ATOM     29  H   UNL     1      -1.236   9.233  20.554  0.00  0.00    +0.000 HD
ENDBRANCH   6  28
TORSDOF 3
ENDMDL
MODEL 7
REMARK VINA RESULT:      -7.2      1.197      1.506
REMARK  Name = 
REMARK  3 active torsions:
REMARK  status: ('A' for Active; 'I' for Inactive)
REMARK    1  A    between atoms: C_2  and  C_10
REMARK    2  A    between atoms: C_15  and  O_16
REMARK    3  A    between atoms: N_21  and  C_22
REMARK                            x       y       z     vdW  Elec       q    Type
REMARK                         _______ _______ _______ _____ _____    ______ ____
ROOT
ATOM      1  C   UNL     1       2.824   7.683  18.271  0.00  0.00    +0.000 A 
ATOM      2  C   UNL     1       3.897   7.966  17.508  0.00  0.00    +0.000 A 
ATOM      3  C   UNL     1       4.949   6.985  17.299  0.00  0.00    +0.000 A 
ATOM      4  C   UNL     1       6.166   7.299  16.689  0.00  0.00    +0.000 A 
ATOM      5  C   UNL     1       7.178   6.336  16.614  0.00  0.00    +0.000 A 
ATOM      6  C   UNL     1       6.964   5.065  17.145  0.00  0.00    +0.000 A 
ATOM      7  C   UNL     1       5.748   4.730  17.722  0.00  0.00    +0.000 A 
ATOM      8  C   UNL     1       4.754   5.700  17.781  0.00  0.00    +0.000 A 
ATOM      9  O   UNL     1       3.542   5.354  18.395  0.00  0.00    +0.000 OA
ATOM     10  C   UNL     1       2.656   6.327  18.847  0.00  0.00    +0.000 A 
ATOM     11  N   UNL     1       1.726   6.036  19.712  0.00  0.00    +0.000 NA
ENDROOT
BRANCH   1  13
ATOM     12  O   UNL     1       2.187   9.672  19.353  0.00  0.00    +0.000 OA
ATOM     13  C   UNL     1       1.884   8.823  18.514  0.00  0.00    +0.000 C 
ATOM     14  N   UNL     1       0.730   8.796  17.766  0.00  0.00    +0.000 N 
ATOM     15  C   UNL     1      -0.242   9.805  17.786  0.00  0.00    +0.000 A 
ATOM     16  C   UNL     1      -1.426   9.592  17.086  0.00  0.00    +0.000 A 
ATOM     17  C   UNL     1      -2.406  10.586  17.103  0.00  0.00    +0.000 A 
ATOM     18  C   UNL     1      -2.177  11.761  17.806  0.00  0.00    +0.000 A 
ATOM     19  C   UNL     1      -0.970  11.895  18.463  0.00  0.00    +0.000 A 
ATOM     20  N   UNL     1      -0.013  10.948  18.457  0.00  0.00    +0.000 NA
ATOM     21  H   UNL     1       0.540   7.970  17.205  0.00  0.00    +0.000 HD
ENDBRANCH   1  13
BRANCH  11  22
ATOM     22  C   UNL     1       1.657   4.744  20.274  0.00  0.00    +0.000 A 
ATOM     23  C   UNL     1       2.257   4.398  21.495  0.00  0.00    +0.000 A 
ATOM     24  C   UNL     1       2.226   3.088  21.973  0.00  0.00    +0.000 A 
ATOM     25  C   UNL     1       1.512   2.117  21.279  0.00  0.00    +0.000 A 
ATOM     26  C   UNL     1       0.831   2.462  20.114  0.00  0.00    +0.000 A 
ATOM     27  C   UNL     1       0.908   3.766  19.613  0.00  0.00    +0.000 A 
ENDBRANCH  11  22
BRANCH   6  28
ATOM     28  O   UNL     1       7.938   4.111  17.124  0.00  0.00    +0.000 OA
ATOM     29  H   UNL     1       7.522   3.240  17.009  0.00  0.00    +0.000 HD
ENDBRANCH   6  28
TORSDOF 3
ENDMDL
MODEL 8
REMARK VINA RESULT:      -7.2      4.178      7.372
REMARK  Name = 
REMARK  3 active torsions:
REMARK  status: ('A' for Active; 'I' for Inactive)
REMARK    1  A    between atoms: C_2  and  C_10
REMARK    2  A    between atoms: C_15  and  O_16
REMARK    3  A    between atoms: N_21  and  C_22
REMARK                            x       y       z     vdW  Elec       q    Type
REMARK                         _______ _______ _______ _____ _____    ______ ____
ROOT
ATOM      1  C   UNL     1      -0.869  12.862  19.310  0.00  0.00    +0.000 A 
ATOM      2  C   UNL     1      -0.458  14.136  19.168  0.00  0.00    +0.000 A 
ATOM      3  C   UNL     1       0.925  14.448  18.849  0.00  0.00    +0.000 A 
ATOM      4  C   UNL     1       1.439  15.746  18.892  0.00  0.00    +0.000 A 
ATOM      5  C   UNL     1       2.804  15.964  18.678  0.00  0.00    +0.000 A 
ATOM      6  C   UNL     1       3.645  14.883  18.417  0.00  0.00    +0.000 A 
ATOM      7  C   UNL     1       3.142  13.593  18.336  0.00  0.00    +0.000 A 
ATOM      8  C   UNL     1       1.781  13.399  18.547  0.00  0.00    +0.000 A 
ATOM      9  O   UNL     1       1.295  12.086  18.492  0.00  0.00    +0.000 OA
ATOM     10  C   UNL     1       0.070  11.742  19.057  0.00  0.00    +0.000 A 
ATOM     11  N   UNL     1      -0.221  10.501  19.322  0.00  0.00    +0.000 NA
ENDROOT
BRANCH   1  13
ATOM     12  O   UNL     1      -2.575  13.004  20.924  0.00  0.00    +0.000 OA
ATOM     13  C   UNL     1      -2.283  12.685  19.769  0.00  0.00    +0.000 C 
ATOM     14  N   UNL     1      -3.139  12.151  18.835  0.00  0.00    +0.000 N 
ATOM     15  C   UNL     1      -4.514  11.976  19.037  0.00  0.00    +0.000 A 
ATOM     16  C   UNL     1      -5.242  11.299  18.064  0.00  0.00    +0.000 A 
ATOM     17  C   UNL     1      -6.612  11.112  18.256  0.00  0.00    +0.000 A 
ATOM     18  C   UNL     1      -7.216  11.609  19.403  0.00  0.00    +0.000 A 
ATOM     19  C   UNL     1      -6.422  12.280  20.312  0.00  0.00    +0.000 A 
ATOM     20  N   UNL     1      -5.099  12.470  20.143  0.00  0.00    +0.000 NA
ATOM     21  H   UNL     1      -2.744  11.808  17.963  0.00  0.00    +0.000 HD
ENDBRANCH   1  13
BRANCH  11  22
ATOM     22  C   UNL     1       0.739   9.487  19.122  0.00  0.00    +0.000 A 
ATOM     23  C   UNL     1       1.374   9.255  17.892  0.00  0.00    +0.000 A 
ATOM     24  C   UNL     1       2.261   8.192  17.723  0.00  0.00    +0.000 A 
ATOM     25  C   UNL     1       2.597   7.393  18.811  0.00  0.00    +0.000 A 
ATOM     26  C   UNL     1       2.048   7.665  20.062  0.00  0.00    +0.000 A 
ATOM     27  C   UNL     1       1.121   8.702  20.214  0.00  0.00    +0.000 A 
ENDBRANCH  11  22
BRANCH   6  28
ATOM     28  O   UNL     1       4.986  15.051  18.238  0.00  0.00    +0.000 OA
ATOM     29  H   UNL     1       5.132  15.610  17.457  0.00  0.00    +0.000 HD
ENDBRANCH   6  28
TORSDOF 3
ENDMDL
MODEL 9
REMARK VINA RESULT:      -7.2      4.014      7.832
REMARK  Name = 
REMARK  3 active torsions:
REMARK  status: ('A' for Active; 'I' for Inactive)
REMARK    1  A    between atoms: C_2  and  C_10
REMARK    2  A    between atoms: C_15  and  O_16
REMARK    3  A    between atoms: N_21  and  C_22
REMARK                            x       y       z     vdW  Elec       q    Type
REMARK                         _______ _______ _______ _____ _____    ______ ____
ROOT
ATOM      1  C   UNL     1      -1.595  11.725  20.134  0.00  0.00    +0.000 A 
ATOM      2  C   UNL     1      -2.725  12.065  19.488  0.00  0.00    +0.000 A 
ATOM      3  C   UNL     1      -3.093  11.433  18.233  0.00  0.00    +0.000 A 
ATOM      4  C   UNL     1      -4.140  11.892  17.431  0.00  0.00    +0.000 A 
ATOM      5  C   UNL     1      -4.374  11.305  16.183  0.00  0.00    +0.000 A 
ATOM      6  C   UNL     1      -3.561  10.259  15.748  0.00  0.00    +0.000 A 
ATOM      7  C   UNL     1      -2.540   9.770  16.549  0.00  0.00    +0.000 A 
ATOM      8  C   UNL     1      -2.328  10.365  17.788  0.00  0.00    +0.000 A 
ATOM      9  O   UNL     1      -1.273   9.879  18.571  0.00  0.00    +0.000 OA
ATOM     10  C   UNL     1      -0.740  10.630  19.615  0.00  0.00    +0.000 A 
ATOM     11  N   UNL     1       0.436  10.356  20.105  0.00  0.00    +0.000 NA
ENDROOT
BRANCH   1  13
ATOM     12  O   UNL     1      -0.097  12.882  21.532  0.00  0.00    +0.000 OA
ATOM     13  C   UNL     1      -1.268  12.545  21.344  0.00  0.00    +0.000 C 
ATOM     14  N   UNL     1      -2.336  12.833  22.160  0.00  0.00    +0.000 N 
ATOM     15  C   UNL     1      -2.259  13.648  23.297  0.00  0.00    +0.000 A 
ATOM     16  C   UNL     1      -3.382  13.750  24.112  0.00  0.00    +0.000 A 
ATOM     17  C   UNL     1      -3.317  14.553  25.252  0.00  0.00    +0.000 A 
ATOM     18  C   UNL     1      -2.144  15.236  25.541  0.00  0.00    +0.000 A 
ATOM     19  C   UNL     1      -1.080  15.089  24.672  0.00  0.00    +0.000 A 
ATOM     20  N   UNL     1      -1.125  14.319  23.568  0.00  0.00    +0.000 NA
ATOM     21  H   UNL     1      -3.226  12.384  21.962  0.00  0.00    +0.000 HD
ENDBRANCH   1  13
BRANCH  11  22
ATOM     22  C   UNL     1       1.230   9.345  19.525  0.00  0.00    +0.000 A 
ATOM     23  C   UNL     1       1.793   9.442  18.243  0.00  0.00    +0.000 A 
ATOM     24  C   UNL     1       2.508   8.385  17.683  0.00  0.00    +0.000 A 
ATOM     25  C   UNL     1       2.750   7.240  18.436  0.00  0.00    +0.000 A 
ATOM     26  C   UNL     1       2.279   7.162  19.744  0.00  0.00    +0.000 A 
ATOM     27  C   UNL     1       1.520   8.206  20.283  0.00  0.00    +0.000 A 
ENDBRANCH  11  22
BRANCH   6  28
ATOM     28  O   UNL     1      -3.734   9.685  14.523  0.00  0.00    +0.000 OA
ATOM     29  H   UNL     1      -3.275   8.828  14.511  0.00  0.00    +0.000 HD
ENDBRANCH   6  28
TORSDOF 3
ENDMDL
