MODEL 1
REMARK VINA RESULT:      -7.1      0.000      0.000
REMARK  Name = 
REMARK  2 active torsions:
REMARK  status: ('A' for Active; 'I' for Inactive)
REMARK    1  A    between atoms: C_1  and  C_2
REMARK    2  A    between atoms: C_6  and  N_7
REMARK                            x       y       z     vdW  Elec       q    Type
REMARK                         _______ _______ _______ _____ _____    ______ ____
ROOT
ATOM      1  C   UNL     1       1.850   8.141  19.220  0.00  0.00    +0.000 C 
ATOM      2  C   UNL     1       2.447   6.795  19.495  0.00  0.00    +0.000 A 
ATOM      3  C   UNL     1       1.839   5.911  20.372  0.00  0.00    +0.000 A 
ATOM      4  C   UNL     1       2.456   4.689  20.543  0.00  0.00    +0.000 A 
ATOM      5  C   UNL     1       3.618   4.377  19.860  0.00  0.00    +0.000 A 
ATOM      6  C   UNL     1       4.184   5.277  18.972  0.00  0.00    +0.000 A 
ATOM      7  N   UNL     1       3.585   6.488  18.811  0.00  0.00    +0.000 NA
ATOM      8  C   UNL     1       3.957   2.989  20.176  0.00  0.00    +0.000 C 
ATOM      9  O   UNL     1       4.867   2.306  19.755  0.00  0.00    +0.000 OA
ATOM     10  O   UNL     1       3.032   2.553  21.093  0.00  0.00    +0.000 OA
ATOM     11  C   UNL     1       2.018   3.538  21.350  0.00  0.00    +0.000 C 
ENDROOT
BRANCH   6  12
ATOM     12  N   UNL     1       5.239   4.967  18.138  0.00  0.00    +0.000 N 
ATOM     13  C   UNL     1       4.956   4.889  16.696  0.00  0.00    +0.000 C 
ATOM     14  C   UNL     1       6.039   4.002  16.055  0.00  0.00    +0.000 C 
ATOM     15  O   UNL     1       7.362   4.515  16.301  0.00  0.00    +0.000 OA
ATOM     16  C   UNL     1       7.608   4.626  17.720  0.00  0.00    +0.000 C 
ATOM     17  C   UNL     1       6.571   5.545  18.390  0.00  0.00    +0.000 C 
ENDBRANCH   6  12
TORSDOF 1
ENDMDL
MODEL 2
REMARK VINA RESULT:      -6.9      1.276      1.291
REMARK  Name = 
REMARK  2 active torsions:
REMARK  status: ('A' for Active; 'I' for Inactive)
REMARK    1  A    between atoms: C_1  and  C_2
REMARK    2  A    between atoms: C_6  and  N_7
REMARK                            x       y       z     vdW  Elec       q    Type
REMARK                         _______ _______ _______ _____ _____    ______ ____
ROOT
ATOM      1  C   UNL     1       1.930   7.484  20.431  0.00  0.00    +0.000 C 
ATOM      2  C   UNL     1       2.269   6.100  19.968  0.00  0.00    +0.000 A 
ATOM      3  C   UNL     1       1.383   5.049  20.151  0.00  0.00    +0.000 A 
ATOM      4  C   UNL     1       1.780   3.818  19.673  0.00  0.00    +0.000 A 
ATOM      5  C   UNL     1       3.000   3.659  19.041  0.00  0.00    +0.000 A 
ATOM      6  C   UNL     1       3.850   4.737  18.855  0.00  0.00    +0.000 A 
ATOM      7  N   UNL     1       3.467   5.951  19.335  0.00  0.00    +0.000 NA
ATOM      8  C   UNL     1       3.075   2.277  18.566  0.00  0.00    +0.000 C 
ATOM      9  O   UNL     1       3.948   1.733  17.923  0.00  0.00    +0.000 OA
ATOM     10  O   UNL     1       1.936   1.646  19.001  0.00  0.00    +0.000 OA
ATOM     11  C   UNL     1       1.036   2.547  19.665  0.00  0.00    +0.000 C 
ENDROOT
BRANCH   6  12
ATOM     12  N   UNL     1       4.996   4.684  18.088  0.00  0.00    +0.000 N 
ATOM     13  C   UNL     1       4.841   4.842  16.633  0.00  0.00    +0.000 C 
ATOM     14  C   UNL     1       6.062   4.192  15.960  0.00  0.00    +0.000 C 
ATOM     15  O   UNL     1       7.297   4.773  16.420  0.00  0.00    +0.000 OA
ATOM     16  C   UNL     1       7.414   4.647  17.854  0.00  0.00    +0.000 C 
ATOM     17  C   UNL     1       6.231   5.328  18.567  0.00  0.00    +0.000 C 
ENDBRANCH   6  12
TORSDOF 1
ENDMDL
MODEL 3
REMARK VINA RESULT:      -6.7      2.486      5.239
REMARK  Name = 
REMARK  2 active torsions:
REMARK  status: ('A' for Active; 'I' for Inactive)
REMARK    1  A    between atoms: C_1  and  C_2
REMARK    2  A    between atoms: C_6  and  N_7
REMARK                            x       y       z     vdW  Elec       q    Type
REMARK                         _______ _______ _______ _____ _____    ______ ____
ROOT
ATOM      1  C   UNL     1       5.953   3.837  13.640  0.00  0.00    +0.000 C 
ATOM      2  C   UNL     1       5.929   4.137  15.108  0.00  0.00    +0.000 A 
ATOM      3  C   UNL     1       6.914   4.918  15.692  0.00  0.00    +0.000 A 
ATOM      4  C   UNL     1       6.792   5.152  17.046  0.00  0.00    +0.000 A 
ATOM      5  C   UNL     1       5.733   4.631  17.767  0.00  0.00    +0.000 A 
ATOM      6  C   UNL     1       4.754   3.874  17.144  0.00  0.00    +0.000 A 
ATOM      7  N   UNL     1       4.876   3.631  15.811  0.00  0.00    +0.000 NA
ATOM      8  C   UNL     1       5.835   5.141  19.135  0.00  0.00    +0.000 C 
ATOM      9  O   UNL     1       5.088   4.971  20.075  0.00  0.00    +0.000 OA
ATOM     10  O   UNL     1       6.991   5.879  19.198  0.00  0.00    +0.000 OA
ATOM     11  C   UNL     1       7.637   5.984  17.919  0.00  0.00    +0.000 C 
ENDROOT
BRANCH   6  12
ATOM     12  N   UNL     1       3.589   3.470  17.765  0.00  0.00    +0.000 N 
ATOM     13  C   UNL     1       2.407   4.333  17.606  0.00  0.00    +0.000 C 
ATOM     14  C   UNL     1       1.459   4.046  18.784  0.00  0.00    +0.000 C 
ATOM     15  O   UNL     1       1.087   2.656  18.843  0.00  0.00    +0.000 OA
ATOM     16  C   UNL     1       2.260   1.821  18.955  0.00  0.00    +0.000 C 
ATOM     17  C   UNL     1       3.214   2.045  17.768  0.00  0.00    +0.000 C 
ENDBRANCH   6  12
TORSDOF 1
ENDMDL
MODEL 4
REMARK VINA RESULT:      -6.7      1.776      4.581
REMARK  Name = 
REMARK  2 active torsions:
REMARK  status: ('A' for Active; 'I' for Inactive)
REMARK    1  A    between atoms: C_1  and  C_2
REMARK    2  A    between atoms: C_6  and  N_7
REMARK                            x       y       z     vdW  Elec       q    Type
REMARK                         _______ _______ _______ _____ _____    ______ ____
ROOT
ATOM      1  C   UNL     1       1.846   8.839  17.718  0.00  0.00    +0.000 C 
ATOM      2  C   UNL     1       2.748   7.652  17.870  0.00  0.00    +0.000 A 
ATOM      3  C   UNL     1       4.052   7.682  17.399  0.00  0.00    +0.000 A 
ATOM      4  C   UNL     1       4.807   6.546  17.604  0.00  0.00    +0.000 A 
ATOM      5  C   UNL     1       4.277   5.446  18.253  0.00  0.00    +0.000 A 
ATOM      6  C   UNL     1       2.977   5.461  18.732  0.00  0.00    +0.000 A 
ATOM      7  N   UNL     1       2.225   6.575  18.521  0.00  0.00    +0.000 NA
ATOM      8  C   UNL     1       5.349   4.461  18.402  0.00  0.00    +0.000 C 
ATOM      9  O   UNL     1       5.328   3.381  18.952  0.00  0.00    +0.000 OA
ATOM     10  O   UNL     1       6.452   4.977  17.768  0.00  0.00    +0.000 OA
ATOM     11  C   UNL     1       6.223   6.307  17.276  0.00  0.00    +0.000 C 
ENDROOT
BRANCH   6  12
ATOM     12  N   UNL     1       2.445   4.470  19.531  0.00  0.00    +0.000 N 
ATOM     13  C   UNL     1       2.181   4.810  20.939  0.00  0.00    +0.000 C 
ATOM     14  C   UNL     1       2.166   3.496  21.741  0.00  0.00    +0.000 C 
ATOM     15  O   UNL     1       1.184   2.573  21.233  0.00  0.00    +0.000 OA
ATOM     16  C   UNL     1       1.432   2.283  19.840  0.00  0.00    +0.000 C 
ATOM     17  C   UNL     1       1.409   3.570  18.995  0.00  0.00    +0.000 C 
ENDBRANCH   6  12
TORSDOF 1
ENDMDL
MODEL 5
REMARK VINA RESULT:      -6.4      2.148      3.414
REMARK  Name = 
REMARK  2 active torsions:
REMARK  status: ('A' for Active; 'I' for Inactive)
REMARK    1  A    between atoms: C_1  and  C_2
REMARK    2  A    between atoms: C_6  and  N_7
REMARK                            x       y       z     vdW  Elec       q    Type
REMARK                         _______ _______ _______ _____ _____    ______ ____
ROOT
ATOM      1  C   UNL     1       2.387   2.559  21.552  0.00  0.00    +0.000 C 
ATOM      2  C   UNL     1       2.555   3.772  20.688  0.00  0.00    +0.000 A 
ATOM      3  C   UNL     1       1.874   4.946  20.968  0.00  0.00    +0.000 A 
ATOM      4  C   UNL     1       2.111   6.012  20.124  0.00  0.00    +0.000 A 
ATOM      5  C   UNL     1       2.992   5.898  19.063  0.00  0.00    +0.000 A 
ATOM      6  C   UNL     1       3.673   4.714  18.829  0.00  0.00    +0.000 A 
ATOM      7  N   UNL     1       3.433   3.658  19.652  0.00  0.00    +0.000 NA
ATOM      8  C   UNL     1       3.099   7.215  18.434  0.00  0.00    +0.000 C 
ATOM      9  O   UNL     1       3.796   7.568  17.506  0.00  0.00    +0.000 OA
ATOM     10  O   UNL     1       2.222   8.041  19.093  0.00  0.00    +0.000 OA
ATOM     11  C   UNL     1       1.590   7.387  20.203  0.00  0.00    +0.000 C 
ENDROOT
BRANCH   6  12
ATOM     12  N   UNL     1       4.685   4.586  17.899  0.00  0.00    +0.000 N 
ATOM     13  C   UNL     1       6.065   4.537  18.408  0.00  0.00    +0.000 C 
ATOM     14  C   UNL     1       6.999   4.974  17.265  0.00  0.00    +0.000 C 
ATOM     15  O   UNL     1       6.842   4.142  16.100  0.00  0.00    +0.000 OA
ATOM     16  C   UNL     1       5.473   4.167  15.640  0.00  0.00    +0.000 C 
ATOM     17  C   UNL     1       4.510   3.691  16.742  0.00  0.00    +0.000 C 
ENDBRANCH   6  12
TORSDOF 1
ENDMDL
MODEL 6
REMARK VINA RESULT:      -6.3      0.549      1.285
REMARK  Name = 
REMARK  2 active torsions:
REMARK  status: ('A' for Active; 'I' for Inactive)
REMARK    1  A    between atoms: C_1  and  C_2
REMARK    2  A    between atoms: C_6  and  N_7
REMARK                            x       y       z     vdW  Elec       q    Type
REMARK                         _______ _______ _______ _____ _____    ______ ____
ROOT
ATOM      1  C   UNL     1       1.809   8.224  19.432  0.00  0.00    +0.000 C 
ATOM      2  C   UNL     1       2.357   6.841  19.612  0.00  0.00    +0.000 A 
ATOM      3  C   UNL     1       1.823   5.980  20.558  0.00  0.00    +0.000 A 
ATOM      4  C   UNL     1       2.385   4.722  20.633  0.00  0.00    +0.000 A 
ATOM      5  C   UNL     1       3.423   4.355  19.796  0.00  0.00    +0.000 A 
ATOM      6  C   UNL     1       3.915   5.235  18.845  0.00  0.00    +0.000 A 
ATOM      7  N   UNL     1       3.371   6.480  18.776  0.00  0.00    +0.000 NA
ATOM      8  C   UNL     1       3.720   2.945  20.052  0.00  0.00    +0.000 C 
ATOM      9  O   UNL     1       4.522   2.218  19.505  0.00  0.00    +0.000 OA
ATOM     10  O   UNL     1       2.904   2.549  21.083  0.00  0.00    +0.000 OA
ATOM     11  C   UNL     1       1.994   3.586  21.484  0.00  0.00    +0.000 C 
ENDROOT
BRANCH   6  12
ATOM     12  N   UNL     1       4.826   4.878  17.872  0.00  0.00    +0.000 N 
ATOM     13  C   UNL     1       6.210   4.627  18.305  0.00  0.00    +0.000 C 
ATOM     14  C   UNL     1       7.124   4.826  17.082  0.00  0.00    +0.000 C 
ATOM     15  O   UNL     1       6.752   3.960  15.993  0.00  0.00    +0.000 OA
ATOM     16  C   UNL     1       5.378   4.188  15.609  0.00  0.00    +0.000 C 
ATOM     17  C   UNL     1       4.427   3.953  16.796  0.00  0.00    +0.000 C 
ENDBRANCH   6  12
TORSDOF 1
ENDMDL
MODEL 7
REMARK VINA RESULT:      -6.3      2.489      5.196
REMARK  Name = 
REMARK  2 active torsions:
REMARK  status: ('A' for Active; 'I' for Inactive)
REMARK    1  A    between atoms: C_1  and  C_2
REMARK    2  A    between atoms: C_6  and  N_7
REMARK                            x       y       z     vdW  Elec       q    Type
REMARK                         _______ _______ _______ _____ _____    ______ ____
ROOT
ATOM      1  C   UNL     1       6.455   4.035  13.708  0.00  0.00    +0.000 C 
ATOM      2  C   UNL     1       6.281   4.232  15.183  0.00  0.00    +0.000 A 
ATOM      3  C   UNL     1       7.273   4.832  15.944  0.00  0.00    +0.000 A 
ATOM      4  C   UNL     1       7.010   4.985  17.289  0.00  0.00    +0.000 A 
ATOM      5  C   UNL     1       5.810   4.562  17.833  0.00  0.00    +0.000 A 
ATOM      6  C   UNL     1       4.832   3.988  17.037  0.00  0.00    +0.000 A 
ATOM      7  N   UNL     1       5.093   3.824  15.711  0.00  0.00    +0.000 NA
ATOM      8  C   UNL     1       5.800   4.957  19.242  0.00  0.00    +0.000 C 
ATOM      9  O   UNL     1       4.923   4.823  20.070  0.00  0.00    +0.000 OA
ATOM     10  O   UNL     1       7.021   5.527  19.503  0.00  0.00    +0.000 OA
ATOM     11  C   UNL     1       7.833   5.634  18.324  0.00  0.00    +0.000 C 
ENDROOT
BRANCH   6  12
ATOM     12  N   UNL     1       3.557   3.702  17.479  0.00  0.00    +0.000 N 
ATOM     13  C   UNL     1       3.399   2.545  18.376  0.00  0.00    +0.000 C 
ATOM     14  C   UNL     1       1.939   2.069  18.270  0.00  0.00    +0.000 C 
ATOM     15  O   UNL     1       1.011   3.119  18.604  0.00  0.00    +0.000 OA
ATOM     16  C   UNL     1       1.208   4.262  17.743  0.00  0.00    +0.000 C 
ATOM     17  C   UNL     1       2.647   4.797  17.856  0.00  0.00    +0.000 C 
ENDBRANCH   6  12
TORSDOF 1
ENDMDL
MODEL 8
REMARK VINA RESULT:      -6.2      2.097      3.160
REMARK  Name = 
REMARK  2 active torsions:
REMARK  status: ('A' for Active; 'I' for Inactive)
REMARK    1  A    between atoms: C_1  and  C_2
REMARK    2  A    between atoms: C_6  and  N_7
REMARK                            x       y       z     vdW  Elec       q    Type
REMARK                         _______ _______ _______ _____ _____    ______ ____
ROOT
ATOM      1  C   UNL     1       2.591   2.611  21.440  0.00  0.00    +0.000 C 
ATOM      2  C   UNL     1       2.793   3.796  20.545  0.00  0.00    +0.000 A 
ATOM      3  C   UNL     1       2.049   4.953  20.716  0.00  0.00    +0.000 A 
ATOM      4  C   UNL     1       2.323   5.995  19.854  0.00  0.00    +0.000 A 
ATOM      5  C   UNL     1       3.297   5.875  18.879  0.00  0.00    +0.000 A 
ATOM      6  C   UNL     1       4.038   4.710  18.754  0.00  0.00    +0.000 A 
ATOM      7  N   UNL     1       3.763   3.677  19.595  0.00  0.00    +0.000 NA
ATOM      8  C   UNL     1       3.415   7.171  18.209  0.00  0.00    +0.000 C 
ATOM      9  O   UNL     1       4.178   7.515  17.332  0.00  0.00    +0.000 OA
ATOM     10  O   UNL     1       2.454   7.987  18.754  0.00  0.00    +0.000 OA
ATOM     11  C   UNL     1       1.748   7.350  19.831  0.00  0.00    +0.000 C 
ENDROOT
BRANCH   6  12
ATOM     12  N   UNL     1       5.132   4.586  17.922  0.00  0.00    +0.000 N 
ATOM     13  C   UNL     1       4.880   4.588  16.472  0.00  0.00    +0.000 C 
ATOM     14  C   UNL     1       6.065   3.881  15.792  0.00  0.00    +0.000 C 
ATOM     15  O   UNL     1       7.318   4.520  16.105  0.00  0.00    +0.000 OA
ATOM     16  C   UNL     1       7.530   4.549  17.533  0.00  0.00    +0.000 C 
ATOM     17  C   UNL     1       6.386   5.290  18.247  0.00  0.00    +0.000 C 
ENDBRANCH   6  12
TORSDOF 1
ENDMDL
MODEL 9
REMARK VINA RESULT:      -6.1      1.259      1.699
REMARK  Name = 
REMARK  2 active torsions:
REMARK  status: ('A' for Active; 'I' for Inactive)
REMARK    1  A    between atoms: C_1  and  C_2
REMARK    2  A    between atoms: C_6  and  N_7
REMARK                            x       y       z     vdW  Elec       q    Type
REMARK                         _______ _______ _______ _____ _____    ______ ____
ROOT
ATOM      1  C   UNL     1       1.832   7.670  20.520  0.00  0.00    +0.000 C 
ATOM      2  C   UNL     1       2.165   6.275  20.086  0.00  0.00    +0.000 A 
ATOM      3  C   UNL     1       1.343   5.210  20.417  0.00  0.00    +0.000 A 
ATOM      4  C   UNL     1       1.726   3.968  19.953  0.00  0.00    +0.000 A 
ATOM      5  C   UNL     1       2.871   3.815  19.193  0.00  0.00    +0.000 A 
ATOM      6  C   UNL     1       3.656   4.907  18.861  0.00  0.00    +0.000 A 
ATOM      7  N   UNL     1       3.287   6.131  19.326  0.00  0.00    +0.000 NA
ATOM      8  C   UNL     1       2.940   2.413  18.776  0.00  0.00    +0.000 C 
ATOM      9  O   UNL     1       3.753   1.864  18.063  0.00  0.00    +0.000 OA
ATOM     10  O   UNL     1       1.881   1.771  19.367  0.00  0.00    +0.000 OA
ATOM     11  C   UNL     1       1.031   2.677  20.090  0.00  0.00    +0.000 C 
ENDROOT
BRANCH   6  12
ATOM     12  N   UNL     1       4.708   4.850  17.971  0.00  0.00    +0.000 N 
ATOM     13  C   UNL     1       5.985   4.313  18.470  0.00  0.00    +0.000 C 
ATOM     14  C   UNL     1       7.105   4.860  17.569  0.00  0.00    +0.000 C 
ATOM     15  O   UNL     1       6.897   4.511  16.187  0.00  0.00    +0.000 OA
ATOM     16  C   UNL     1       5.622   5.008  15.725  0.00  0.00    +0.000 C 
ATOM     17  C   UNL     1       4.469   4.445  16.574  0.00  0.00    +0.000 C 
ENDBRANCH   6  12
TORSDOF 1
ENDMDL
