MODEL 1
REMARK VINA RESULT:      -7.0      0.000      0.000
REMARK  Name = 
REMARK  10 active torsions:
REMARK  status: ('A' for Active; 'I' for Inactive)
REMARK    1  A    between atoms: C_1  and  C_2
REMARK    2  A    between atoms: C_2  and  C_3
REMARK    3  A    between atoms: C_2  and  C_4
REMARK    4  A    between atoms: C_2  and  C_5
REMARK    5  A    between atoms: C_5  and  C_6
REMARK    6  A    between atoms: C_6  and  C_7
REMARK    7  A    between atoms: C_6  and  C_8
REMARK    8  A    between atoms: C_6  and  N_9
REMARK    9  A    between atoms: C_10  and  C_12
REMARK   10  A    between atoms: C_12  and  N_13
REMARK                            x       y       z     vdW  Elec       q    Type
REMARK                         _______ _______ _______ _____ _____    ______ ____
ROOT
ATOM      1  C   UNL     1       5.883   5.863  17.499  0.00  0.00    +0.000 C 
ATOM      2  C   UNL     1       6.446   4.825  18.528  0.00  0.00    +0.000 C 
ATOM      3  O   UNL     1       6.121   3.651  18.662  0.00  0.00    +0.000 OA
ATOM      4  N   UNL     1       7.472   5.433  19.242  0.00  0.00    +0.000 N 
ATOM      5  C   UNL     1       7.722   6.711  18.777  0.00  0.00    +0.000 A 
ATOM      6  C   UNL     1       8.692   7.585  19.224  0.00  0.00    +0.000 A 
ATOM      7  C   UNL     1       8.781   8.824  18.587  0.00  0.00    +0.000 A 
ATOM      8  C   UNL     1       7.915   9.154  17.529  0.00  0.00    +0.000 A 
ATOM      9  C   UNL     1       6.943   8.252  17.092  0.00  0.00    +0.000 A 
ATOM     10  C   UNL     1       6.853   7.024  17.731  0.00  0.00    +0.000 A 
ATOM     11  H   UNL     1       7.993   4.958  19.964  0.00  0.00    +0.000 HD
ENDROOT
BRANCH   1  12
ATOM     12  N   UNL     1       6.009   5.369  16.119  0.00  0.00    +0.000 N 
ATOM     13  C   UNL     1       7.267   4.877  15.518  0.00  0.00    +0.000 C 
ATOM     14  C   UNL     1       6.405   3.955  14.644  0.00  0.00    +0.000 C 
ATOM     15  C   UNL     1       5.278   4.337  15.611  0.00  0.00    +0.000 C 
ATOM     16  O   UNL     1       4.197   3.890  15.913  0.00  0.00    +0.000 OA
ENDBRANCH   1  12
BRANCH   1  18
ATOM     17  N   UNL     1       3.819   5.512  18.868  0.00  0.00    +0.000 N 
ATOM     18  C   UNL     1       4.435   6.294  17.905  0.00  0.00    +0.000 C 
ATOM     19  O   UNL     1       3.863   7.260  17.393  0.00  0.00    +0.000 OA
ATOM     20  H   UNL     1       4.218   4.578  18.989  0.00  0.00    +0.000 HD
BRANCH  17  21
ATOM     21  C   UNL     1       2.422   5.688  19.350  0.00  0.00    +0.000 C 
ATOM     22  C   UNL     1       1.510   5.372  18.148  0.00  0.00    +0.000 C 
ATOM     23  C   UNL     1       2.218   7.164  19.726  0.00  0.00    +0.000 C 
BRANCH  21  24
ATOM     24  C   UNL     1       2.192   4.689  20.537  0.00  0.00    +0.000 C 
BRANCH  24  26
ATOM     25  C   UNL     1       3.130   2.403  19.774  0.00  0.00    +0.000 C 
ATOM     26  C   UNL     1       1.928   3.158  20.357  0.00  0.00    +0.000 C 
ATOM     27  C   UNL     1       0.677   2.859  19.521  0.00  0.00    +0.000 C 
ATOM     28  C   UNL     1       1.674   2.561  21.768  0.00  0.00    +0.000 C 
ENDBRANCH  24  26
ENDBRANCH  21  24
ENDBRANCH  17  21
ENDBRANCH   1  18
TORSDOF 5
ENDMDL
MODEL 2
REMARK VINA RESULT:      -6.4      1.014      1.698
REMARK  Name = 
REMARK  10 active torsions:
REMARK  status: ('A' for Active; 'I' for Inactive)
REMARK    1  A    between atoms: C_1  and  C_2
REMARK    2  A    between atoms: C_2  and  C_3
REMARK    3  A    between atoms: C_2  and  C_4
REMARK    4  A    between atoms: C_2  and  C_5
REMARK    5  A    between atoms: C_5  and  C_6
REMARK    6  A    between atoms: C_6  and  C_7
REMARK    7  A    between atoms: C_6  and  C_8
REMARK    8  A    between atoms: C_6  and  N_9
REMARK    9  A    between atoms: C_10  and  C_12
REMARK   10  A    between atoms: C_12  and  N_13
REMARK                            x       y       z     vdW  Elec       q    Type
REMARK                         _______ _______ _______ _____ _____    ______ ____
ROOT
ATOM      1  C   UNL     1       5.747   5.523  17.687  0.00  0.00    +0.000 C 
ATOM      2  C   UNL     1       6.307   4.572  18.798  0.00  0.00    +0.000 C 
ATOM      3  O   UNL     1       5.981   3.413  19.026  0.00  0.00    +0.000 OA
ATOM      4  N   UNL     1       7.331   5.236  19.463  0.00  0.00    +0.000 N 
ATOM      5  C   UNL     1       7.582   6.472  18.897  0.00  0.00    +0.000 A 
ATOM      6  C   UNL     1       8.550   7.380  19.273  0.00  0.00    +0.000 A 
ATOM      7  C   UNL     1       8.641   8.563  18.538  0.00  0.00    +0.000 A 
ATOM      8  C   UNL     1       7.777   8.806  17.454  0.00  0.00    +0.000 A 
ATOM      9  C   UNL     1       6.807   7.870  17.089  0.00  0.00    +0.000 A 
ATOM     10  C   UNL     1       6.715   6.699  17.826  0.00  0.00    +0.000 A 
ATOM     11  H   UNL     1       7.850   4.822  20.223  0.00  0.00    +0.000 HD
ENDROOT
BRANCH   1  12
ATOM     12  N   UNL     1       5.876   4.918  16.352  0.00  0.00    +0.000 N 
ATOM     13  C   UNL     1       5.463   5.574  15.093  0.00  0.00    +0.000 C 
ATOM     14  C   UNL     1       6.578   4.780  14.397  0.00  0.00    +0.000 C 
ATOM     15  C   UNL     1       7.056   4.485  15.824  0.00  0.00    +0.000 C 
ATOM     16  O   UNL     1       8.081   4.110  16.341  0.00  0.00    +0.000 OA
ENDBRANCH   1  12
BRANCH   1  18
ATOM     17  N   UNL     1       3.773   5.462  19.223  0.00  0.00    +0.000 N 
ATOM     18  C   UNL     1       4.297   5.984  18.052  0.00  0.00    +0.000 C 
ATOM     19  O   UNL     1       3.647   6.754  17.340  0.00  0.00    +0.000 OA
ATOM     20  H   UNL     1       4.231   4.612  19.562  0.00  0.00    +0.000 HD
BRANCH  17  21
ATOM     21  C   UNL     1       2.394   5.701  19.727  0.00  0.00    +0.000 C 
ATOM     22  C   UNL     1       2.086   7.185  19.446  0.00  0.00    +0.000 C 
ATOM     23  C   UNL     1       2.388   5.495  21.250  0.00  0.00    +0.000 C 
BRANCH  21  24
ATOM     24  C   UNL     1       1.424   4.745  18.950  0.00  0.00    +0.000 C 
BRANCH  24  26
ATOM     25  C   UNL     1       0.401   2.384  18.694  0.00  0.00    +0.000 C 
ATOM     26  C   UNL     1       1.687   3.220  18.725  0.00  0.00    +0.000 C 
ATOM     27  C   UNL     1       2.665   2.623  19.746  0.00  0.00    +0.000 C 
ATOM     28  C   UNL     1       2.351   3.063  17.330  0.00  0.00    +0.000 C 
ENDBRANCH  24  26
ENDBRANCH  21  24
ENDBRANCH  17  21
ENDBRANCH   1  18
TORSDOF 5
ENDMDL
MODEL 3
REMARK VINA RESULT:      -6.3      2.457      6.321
REMARK  Name = 
REMARK  10 active torsions:
REMARK  status: ('A' for Active; 'I' for Inactive)
REMARK    1  A    between atoms: C_1  and  C_2
REMARK    2  A    between atoms: C_2  and  C_3
REMARK    3  A    between atoms: C_2  and  C_4
REMARK    4  A    between atoms: C_2  and  C_5
REMARK    5  A    between atoms: C_5  and  C_6
REMARK    6  A    between atoms: C_6  and  C_7
REMARK    7  A    between atoms: C_6  and  C_8
REMARK    8  A    between atoms: C_6  and  N_9
REMARK    9  A    between atoms: C_10  and  C_12
REMARK   10  A    between atoms: C_12  and  N_13
REMARK                            x       y       z     vdW  Elec       q    Type
REMARK                         _______ _______ _______ _____ _____    ______ ____
ROOT
ATOM      1  C   UNL     1       4.614   5.348  18.231  0.00  0.00    +0.000 C 
ATOM      2  C   UNL     1       5.700   4.795  19.214  0.00  0.00    +0.000 C 
ATOM      3  O   UNL     1       6.589   5.423  19.778  0.00  0.00    +0.000 OA
ATOM      4  N   UNL     1       5.446   3.446  19.430  0.00  0.00    +0.000 N 
ATOM      5  C   UNL     1       4.293   3.041  18.784  0.00  0.00    +0.000 A 
ATOM      6  C   UNL     1       3.720   1.786  18.810  0.00  0.00    +0.000 A 
ATOM      7  C   UNL     1       2.532   1.607  18.100  0.00  0.00    +0.000 A 
ATOM      8  C   UNL     1       1.948   2.674  17.393  0.00  0.00    +0.000 A 
ATOM      9  C   UNL     1       2.544   3.937  17.384  0.00  0.00    +0.000 A 
ATOM     10  C   UNL     1       3.728   4.110  18.086  0.00  0.00    +0.000 A 
ATOM     11  H   UNL     1       6.013   2.871  20.035  0.00  0.00    +0.000 HD
ENDROOT
BRANCH   1  12
ATOM     12  N   UNL     1       3.850   6.446  18.841  0.00  0.00    +0.000 N 
ATOM     13  C   UNL     1       3.049   7.431  18.083  0.00  0.00    +0.000 C 
ATOM     14  C   UNL     1       2.133   7.524  19.311  0.00  0.00    +0.000 C 
ATOM     15  C   UNL     1       2.876   6.267  19.777  0.00  0.00    +0.000 C 
ATOM     16  O   UNL     1       2.681   5.385  20.579  0.00  0.00    +0.000 OA
ENDBRANCH   1  12
BRANCH   1  18
ATOM     17  N   UNL     1       5.325   4.663  15.931  0.00  0.00    +0.000 N 
ATOM     18  C   UNL     1       5.264   5.697  16.851  0.00  0.00    +0.000 C 
ATOM     19  O   UNL     1       5.712   6.818  16.594  0.00  0.00    +0.000 OA
ATOM     20  H   UNL     1       5.239   3.724  16.328  0.00  0.00    +0.000 HD
BRANCH  17  21
ATOM     21  C   UNL     1       5.965   4.744  14.591  0.00  0.00    +0.000 C 
ATOM     22  C   UNL     1       7.481   4.851  14.845  0.00  0.00    +0.000 C 
ATOM     23  C   UNL     1       5.505   6.042  13.908  0.00  0.00    +0.000 C 
BRANCH  21  24
ATOM     24  C   UNL     1       5.595   3.441  13.800  0.00  0.00    +0.000 C 
BRANCH  24  26
ATOM     25  C   UNL     1       6.893   4.103  11.663  0.00  0.00    +0.000 C 
ATOM     26  C   UNL     1       5.734   3.286  12.250  0.00  0.00    +0.000 C 
ATOM     27  C   UNL     1       4.439   3.614  11.496  0.00  0.00    +0.000 C 
ATOM     28  C   UNL     1       6.053   1.794  11.959  0.00  0.00    +0.000 C 
ENDBRANCH  24  26
ENDBRANCH  21  24
ENDBRANCH  17  21
ENDBRANCH   1  18
TORSDOF 5
ENDMDL
MODEL 4
REMARK VINA RESULT:      -6.3      6.437      9.684
REMARK  Name = 
REMARK  10 active torsions:
REMARK  status: ('A' for Active; 'I' for Inactive)
REMARK    1  A    between atoms: C_1  and  C_2
REMARK    2  A    between atoms: C_2  and  C_3
REMARK    3  A    between atoms: C_2  and  C_4
REMARK    4  A    between atoms: C_2  and  C_5
REMARK    5  A    between atoms: C_5  and  C_6
REMARK    6  A    between atoms: C_6  and  C_7
REMARK    7  A    between atoms: C_6  and  C_8
REMARK    8  A    between atoms: C_6  and  N_9
REMARK    9  A    between atoms: C_10  and  C_12
REMARK   10  A    between atoms: C_12  and  N_13
REMARK                            x       y       z     vdW  Elec       q    Type
REMARK                         _______ _______ _______ _____ _____    ______ ____
ROOT
ATOM      1  C   UNL     1       0.474  10.898  19.276  0.00  0.00    +0.000 C 
ATOM      2  C   UNL     1      -0.062  10.617  20.720  0.00  0.00    +0.000 C 
ATOM      3  O   UNL     1      -0.864  11.284  21.364  0.00  0.00    +0.000 OA
ATOM      4  N   UNL     1       0.462   9.404  21.150  0.00  0.00    +0.000 N 
ATOM      5  C   UNL     1       1.214   8.800  20.161  0.00  0.00    +0.000 A 
ATOM      6  C   UNL     1       1.847   7.576  20.225  0.00  0.00    +0.000 A 
ATOM      7  C   UNL     1       2.536   7.148  19.089  0.00  0.00    +0.000 A 
ATOM      8  C   UNL     1       2.570   7.940  17.927  0.00  0.00    +0.000 A 
ATOM      9  C   UNL     1       1.918   9.175  17.883  0.00  0.00    +0.000 A 
ATOM     10  C   UNL     1       1.241   9.600  19.016  0.00  0.00    +0.000 A 
ATOM     11  H   UNL     1       0.255   9.008  22.056  0.00  0.00    +0.000 HD
ENDROOT
BRANCH   1  12
ATOM     12  N   UNL     1      -0.629  11.032  18.313  0.00  0.00    +0.000 N 
ATOM     13  C   UNL     1      -1.807  10.140  18.259  0.00  0.00    +0.000 C 
ATOM     14  C   UNL     1      -2.603  11.340  17.727  0.00  0.00    +0.000 C 
ATOM     15  C   UNL     1      -1.386  12.158  18.175  0.00  0.00    +0.000 C 
ATOM     16  O   UNL     1      -1.156  13.319  18.417  0.00  0.00    +0.000 OA
ENDBRANCH   1  12
BRANCH   1  18
ATOM     17  N   UNL     1       1.257  13.048  20.287  0.00  0.00    +0.000 N 
ATOM     18  C   UNL     1       1.469  12.105  19.295  0.00  0.00    +0.000 C 
ATOM     19  O   UNL     1       2.381  12.227  18.472  0.00  0.00    +0.000 OA
ATOM     20  H   UNL     1       0.320  13.042  20.699  0.00  0.00    +0.000 HD
BRANCH  17  21
ATOM     21  C   UNL     1       2.028  14.310  20.451  0.00  0.00    +0.000 C 
ATOM     22  C   UNL     1       3.413  13.900  20.989  0.00  0.00    +0.000 C 
ATOM     23  C   UNL     1       1.338  15.168  21.523  0.00  0.00    +0.000 C 
BRANCH  21  24
ATOM     24  C   UNL     1       2.127  15.001  19.046  0.00  0.00    +0.000 C 
BRANCH  24  26
ATOM     25  C   UNL     1       3.554  17.021  19.800  0.00  0.00    +0.000 C 
ATOM     26  C   UNL     1       2.478  16.509  18.832  0.00  0.00    +0.000 C 
ATOM     27  C   UNL     1       1.250  17.426  18.896  0.00  0.00    +0.000 C 
ATOM     28  C   UNL     1       3.066  16.652  17.402  0.00  0.00    +0.000 C 
ENDBRANCH  24  26
ENDBRANCH  21  24
ENDBRANCH  17  21
ENDBRANCH   1  18
TORSDOF 5
ENDMDL
MODEL 5
REMARK VINA RESULT:      -6.1      6.217      9.578
REMARK  Name = 
REMARK  10 active torsions:
REMARK  status: ('A' for Active; 'I' for Inactive)
REMARK    1  A    between atoms: C_1  and  C_2
REMARK    2  A    between atoms: C_2  and  C_3
REMARK    3  A    between atoms: C_2  and  C_4
REMARK    4  A    between atoms: C_2  and  C_5
REMARK    5  A    between atoms: C_5  and  C_6
REMARK    6  A    between atoms: C_6  and  C_7
REMARK    7  A    between atoms: C_6  and  C_8
REMARK    8  A    between atoms: C_6  and  N_9
REMARK    9  A    between atoms: C_10  and  C_12
REMARK   10  A    between atoms: C_12  and  N_13
REMARK                            x       y       z     vdW  Elec       q    Type
REMARK                         _______ _______ _______ _____ _____    ______ ____
ROOT
ATOM      1  C   UNL     1       0.507  10.955  19.285  0.00  0.00    +0.000 C 
ATOM      2  C   UNL     1       0.003  10.700  20.745  0.00  0.00    +0.000 C 
ATOM      3  O   UNL     1      -0.771  11.388  21.401  0.00  0.00    +0.000 OA
ATOM      4  N   UNL     1       0.517   9.482  21.176  0.00  0.00    +0.000 N 
ATOM      5  C   UNL     1       1.233   8.855  20.174  0.00  0.00    +0.000 A 
ATOM      6  C   UNL     1       1.846   7.620  20.237  0.00  0.00    +0.000 A 
ATOM      7  C   UNL     1       2.498   7.168  19.089  0.00  0.00    +0.000 A 
ATOM      8  C   UNL     1       2.516   7.947  17.917  0.00  0.00    +0.000 A 
ATOM      9  C   UNL     1       1.885   9.192  17.876  0.00  0.00    +0.000 A 
ATOM     10  C   UNL     1       1.244   9.641  19.021  0.00  0.00    +0.000 A 
ATOM     11  H   UNL     1       0.326   9.100  22.091  0.00  0.00    +0.000 HD
ENDROOT
BRANCH   1  12
ATOM     12  N   UNL     1      -0.618  11.099  18.348  0.00  0.00    +0.000 N 
ATOM     13  C   UNL     1      -1.771  10.175  18.278  0.00  0.00    +0.000 C 
ATOM     14  C   UNL     1      -2.611  11.374  17.812  0.00  0.00    +0.000 C 
ATOM     15  C   UNL     1      -1.409  12.207  18.273  0.00  0.00    +0.000 C 
ATOM     16  O   UNL     1      -1.206  13.362  18.560  0.00  0.00    +0.000 OA
ENDBRANCH   1  12
BRANCH   1  18
ATOM     17  N   UNL     1       1.331  13.120  20.230  0.00  0.00    +0.000 N 
ATOM     18  C   UNL     1       1.523  12.145  19.265  0.00  0.00    +0.000 C 
ATOM     19  O   UNL     1       2.433  12.227  18.436  0.00  0.00    +0.000 OA
ATOM     20  H   UNL     1       0.396  13.142  20.645  0.00  0.00    +0.000 HD
BRANCH  17  21
ATOM     21  C   UNL     1       2.124  14.373  20.353  0.00  0.00    +0.000 C 
ATOM     22  C   UNL     1       3.543  13.941  20.776  0.00  0.00    +0.000 C 
ATOM     23  C   UNL     1       1.528  15.218  21.490  0.00  0.00    +0.000 C 
BRANCH  21  24
ATOM     24  C   UNL     1       2.121  15.086  18.957  0.00  0.00    +0.000 C 
BRANCH  24  26
ATOM     25  C   UNL     1       2.921  16.842  17.235  0.00  0.00    +0.000 C 
ATOM     26  C   UNL     1       3.320  15.917  18.393  0.00  0.00    +0.000 C 
ATOM     27  C   UNL     1       4.508  15.044  17.968  0.00  0.00    +0.000 C 
ATOM     28  C   UNL     1       3.829  16.835  19.537  0.00  0.00    +0.000 C 
ENDBRANCH  24  26
ENDBRANCH  21  24
ENDBRANCH  17  21
ENDBRANCH   1  18
TORSDOF 5
ENDMDL
MODEL 6
REMARK VINA RESULT:      -6.1      0.695      1.097
REMARK  Name = 
REMARK  10 active torsions:
REMARK  status: ('A' for Active; 'I' for Inactive)
REMARK    1  A    between atoms: C_1  and  C_2
REMARK    2  A    between atoms: C_2  and  C_3
REMARK    3  A    between atoms: C_2  and  C_4
REMARK    4  A    between atoms: C_2  and  C_5
REMARK    5  A    between atoms: C_5  and  C_6
REMARK    6  A    between atoms: C_6  and  C_7
REMARK    7  A    between atoms: C_6  and  C_8
REMARK    8  A    between atoms: C_6  and  N_9
REMARK    9  A    between atoms: C_10  and  C_12
REMARK   10  A    between atoms: C_12  and  N_13
REMARK                            x       y       z     vdW  Elec       q    Type
REMARK                         _______ _______ _______ _____ _____    ______ ____
ROOT
ATOM      1  C   UNL     1       5.928   5.898  17.354  0.00  0.00    +0.000 C 
ATOM      2  C   UNL     1       6.435   4.808  18.358  0.00  0.00    +0.000 C 
ATOM      3  O   UNL     1       6.090   3.634  18.427  0.00  0.00    +0.000 OA
ATOM      4  N   UNL     1       7.439   5.369  19.139  0.00  0.00    +0.000 N 
ATOM      5  C   UNL     1       7.724   6.662  18.742  0.00  0.00    +0.000 A 
ATOM      6  C   UNL     1       8.686   7.501  19.265  0.00  0.00    +0.000 A 
ATOM      7  C   UNL     1       8.817   8.766  18.688  0.00  0.00    +0.000 A 
ATOM      8  C   UNL     1       7.999   9.155  17.612  0.00  0.00    +0.000 A 
ATOM      9  C   UNL     1       7.034   8.286  17.096  0.00  0.00    +0.000 A 
ATOM     10  C   UNL     1       6.902   7.033  17.676  0.00  0.00    +0.000 A 
ATOM     11  H   UNL     1       7.925   4.855  19.860  0.00  0.00    +0.000 HD
ENDROOT
BRANCH   1  12
ATOM     12  N   UNL     1       6.104   5.463  15.960  0.00  0.00    +0.000 N 
ATOM     13  C   UNL     1       7.375   4.964  15.393  0.00  0.00    +0.000 C 
ATOM     14  C   UNL     1       6.530   4.106  14.440  0.00  0.00    +0.000 C 
ATOM     15  C   UNL     1       5.370   4.474  15.374  0.00  0.00    +0.000 C 
ATOM     16  O   UNL     1       4.267   4.044  15.606  0.00  0.00    +0.000 OA
ENDBRANCH   1  12
BRANCH   1  18
ATOM     17  N   UNL     1       3.724   5.405  18.430  0.00  0.00    +0.000 N 
ATOM     18  C   UNL     1       4.470   6.331  17.720  0.00  0.00    +0.000 C 
ATOM     19  O   UNL     1       4.000   7.423  17.389  0.00  0.00    +0.000 OA
ATOM     20  H   UNL     1       4.062   4.441  18.375  0.00  0.00    +0.000 HD
BRANCH  17  21
ATOM     21  C   UNL     1       2.297   5.570  18.819  0.00  0.00    +0.000 C 
ATOM     22  C   UNL     1       1.793   6.823  18.076  0.00  0.00    +0.000 C 
ATOM     23  C   UNL     1       2.232   5.854  20.328  0.00  0.00    +0.000 C 
BRANCH  21  24
ATOM     24  C   UNL     1       1.524   4.279  18.378  0.00  0.00    +0.000 C 
BRANCH  24  26
ATOM     25  C   UNL     1       2.449   2.809  20.294  0.00  0.00    +0.000 C 
ATOM     26  C   UNL     1       1.871   2.836  18.873  0.00  0.00    +0.000 C 
ATOM     27  C   UNL     1       2.810   2.084  17.920  0.00  0.00    +0.000 C 
ATOM     28  C   UNL     1       0.545   2.029  18.919  0.00  0.00    +0.000 C 
ENDBRANCH  24  26
ENDBRANCH  21  24
ENDBRANCH  17  21
ENDBRANCH   1  18
TORSDOF 5
ENDMDL
MODEL 7
REMARK VINA RESULT:      -6.1      0.795      1.162
REMARK  Name = 
REMARK  10 active torsions:
REMARK  status: ('A' for Active; 'I' for Inactive)
REMARK    1  A    between atoms: C_1  and  C_2
REMARK    2  A    between atoms: C_2  and  C_3
REMARK    3  A    between atoms: C_2  and  C_4
REMARK    4  A    between atoms: C_2  and  C_5
REMARK    5  A    between atoms: C_5  and  C_6
REMARK    6  A    between atoms: C_6  and  C_7
REMARK    7  A    between atoms: C_6  and  C_8
REMARK    8  A    between atoms: C_6  and  N_9
REMARK    9  A    between atoms: C_10  and  C_12
REMARK   10  A    between atoms: C_12  and  N_13
REMARK                            x       y       z     vdW  Elec       q    Type
REMARK                         _______ _______ _______ _____ _____    ______ ____
ROOT
ATOM      1  C   UNL     1       5.927   5.766  17.557  0.00  0.00    +0.000 C 
ATOM      2  C   UNL     1       6.443   4.772  18.652  0.00  0.00    +0.000 C 
ATOM      3  O   UNL     1       6.107   3.606  18.823  0.00  0.00    +0.000 OA
ATOM      4  N   UNL     1       7.444   5.406  19.378  0.00  0.00    +0.000 N 
ATOM      5  C   UNL     1       7.719   6.661  18.869  0.00  0.00    +0.000 A 
ATOM      6  C   UNL     1       8.675   7.550  19.315  0.00  0.00    +0.000 A 
ATOM      7  C   UNL     1       8.796   8.760  18.629  0.00  0.00    +0.000 A 
ATOM      8  C   UNL     1       7.974   9.048  17.524  0.00  0.00    +0.000 A 
ATOM      9  C   UNL     1       7.015   8.130  17.089  0.00  0.00    +0.000 A 
ATOM     10  C   UNL     1       6.893   6.932  17.776  0.00  0.00    +0.000 A 
ATOM     11  H   UNL     1       7.934   4.961  20.141  0.00  0.00    +0.000 HD
ENDROOT
BRANCH   1  12
ATOM     12  N   UNL     1       6.104   5.212  16.206  0.00  0.00    +0.000 N 
ATOM     13  C   UNL     1       5.762   3.826  15.818  0.00  0.00    +0.000 C 
ATOM     14  C   UNL     1       5.477   4.367  14.410  0.00  0.00    +0.000 C 
ATOM     15  C   UNL     1       5.536   5.742  15.086  0.00  0.00    +0.000 C 
ATOM     16  O   UNL     1       5.164   6.861  14.824  0.00  0.00    +0.000 OA
ENDBRANCH   1  12
BRANCH   1  18
ATOM     17  N   UNL     1       3.807   5.480  18.855  0.00  0.00    +0.000 N 
ATOM     18  C   UNL     1       4.466   6.219  17.887  0.00  0.00    +0.000 C 
ATOM     19  O   UNL     1       3.921   7.166  17.314  0.00  0.00    +0.000 OA
ATOM     20  H   UNL     1       4.196   4.550  19.030  0.00  0.00    +0.000 HD
BRANCH  17  21
ATOM     21  C   UNL     1       2.393   5.681  19.273  0.00  0.00    +0.000 C 
ATOM     22  C   UNL     1       1.528   5.294  18.058  0.00  0.00    +0.000 C 
ATOM     23  C   UNL     1       2.176   7.176  19.554  0.00  0.00    +0.000 C 
BRANCH  21  24
ATOM     24  C   UNL     1       2.118   4.753  20.507  0.00  0.00    +0.000 C 
BRANCH  24  26
ATOM     25  C   UNL     1       1.847   2.524  21.790  0.00  0.00    +0.000 C 
ATOM     26  C   UNL     1       1.944   3.201  20.416  0.00  0.00    +0.000 C 
ATOM     27  C   UNL     1       3.040   2.522  19.584  0.00  0.00    +0.000 C 
ATOM     28  C   UNL     1       0.600   2.925  19.690  0.00  0.00    +0.000 C 
ENDBRANCH  24  26
ENDBRANCH  21  24
ENDBRANCH  17  21
ENDBRANCH   1  18
TORSDOF 5
ENDMDL
MODEL 8
REMARK VINA RESULT:      -5.9      2.481      5.660
REMARK  Name = 
REMARK  10 active torsions:
REMARK  status: ('A' for Active; 'I' for Inactive)
REMARK    1  A    between atoms: C_1  and  C_2
REMARK    2  A    between atoms: C_2  and  C_3
REMARK    3  A    between atoms: C_2  and  C_4
REMARK    4  A    between atoms: C_2  and  C_5
REMARK    5  A    between atoms: C_5  and  C_6
REMARK    6  A    between atoms: C_6  and  C_7
REMARK    7  A    between atoms: C_6  and  C_8
REMARK    8  A    between atoms: C_6  and  N_9
REMARK    9  A    between atoms: C_10  and  C_12
REMARK   10  A    between atoms: C_12  and  N_13
REMARK                            x       y       z     vdW  Elec       q    Type
REMARK                         _______ _______ _______ _____ _____    ______ ____
ROOT
ATOM      1  C   UNL     1       3.877   5.800  18.162  0.00  0.00    +0.000 C 
ATOM      2  C   UNL     1       3.955   4.881  16.896  0.00  0.00    +0.000 C 
ATOM      3  O   UNL     1       4.698   4.999  15.929  0.00  0.00    +0.000 OA
ATOM      4  N   UNL     1       3.079   3.817  17.076  0.00  0.00    +0.000 N 
ATOM      5  C   UNL     1       2.484   3.860  18.323  0.00  0.00    +0.000 A 
ATOM      6  C   UNL     1       1.595   2.947  18.853  0.00  0.00    +0.000 A 
ATOM      7  C   UNL     1       1.136   3.178  20.151  0.00  0.00    +0.000 A 
ATOM      8  C   UNL     1       1.575   4.297  20.882  0.00  0.00    +0.000 A 
ATOM      9  C   UNL     1       2.479   5.205  20.326  0.00  0.00    +0.000 A 
ATOM     10  C   UNL     1       2.927   4.977  19.034  0.00  0.00    +0.000 A 
ATOM     11  H   UNL     1       2.957   3.085  16.391  0.00  0.00    +0.000 HD
ENDROOT
BRANCH   1  12
ATOM     12  N   UNL     1       5.188   5.918  18.817  0.00  0.00    +0.000 N 
ATOM     13  C   UNL     1       5.954   4.780  19.368  0.00  0.00    +0.000 C 
ATOM     14  C   UNL     1       7.228   5.573  19.045  0.00  0.00    +0.000 C 
ATOM     15  C   UNL     1       6.288   6.466  18.226  0.00  0.00    +0.000 C 
ATOM     16  O   UNL     1       6.406   7.276  17.338  0.00  0.00    +0.000 OA
ENDBRANCH   1  12
BRANCH   1  18
ATOM     17  N   UNL     1       2.417   7.736  18.779  0.00  0.00    +0.000 N 
ATOM     18  C   UNL     1       3.209   7.166  17.795  0.00  0.00    +0.000 C 
ATOM     19  O   UNL     1       3.359   7.704  16.695  0.00  0.00    +0.000 OA
ATOM     20  H   UNL     1       2.093   7.089  19.503  0.00  0.00    +0.000 HD
BRANCH  17  21
ATOM     21  C   UNL     1       1.627   8.987  18.627  0.00  0.00    +0.000 C 
ATOM     22  C   UNL     1       0.553   8.689  17.562  0.00  0.00    +0.000 C 
ATOM     23  C   UNL     1       2.552  10.083  18.074  0.00  0.00    +0.000 C 
BRANCH  21  24
ATOM     24  C   UNL     1       0.992   9.329  20.019  0.00  0.00    +0.000 C 
BRANCH  24  26
ATOM     25  C   UNL     1      -0.904  10.940  19.312  0.00  0.00    +0.000 C 
ATOM     26  C   UNL     1       0.210  10.648  20.327  0.00  0.00    +0.000 C 
ATOM     27  C   UNL     1       1.125  11.873  20.452  0.00  0.00    +0.000 C 
ATOM     28  C   UNL     1      -0.483  10.468  21.705  0.00  0.00    +0.000 C 
ENDBRANCH  24  26
ENDBRANCH  21  24
ENDBRANCH  17  21
ENDBRANCH   1  18
TORSDOF 5
ENDMDL
MODEL 9
REMARK VINA RESULT:      -5.9      7.939     10.905
REMARK  Name = 
REMARK  10 active torsions:
REMARK  status: ('A' for Active; 'I' for Inactive)
REMARK    1  A    between atoms: C_1  and  C_2
REMARK    2  A    between atoms: C_2  and  C_3
REMARK    3  A    between atoms: C_2  and  C_4
REMARK    4  A    between atoms: C_2  and  C_5
REMARK    5  A    between atoms: C_5  and  C_6
REMARK    6  A    between atoms: C_6  and  C_7
REMARK    7  A    between atoms: C_6  and  C_8
REMARK    8  A    between atoms: C_6  and  N_9
REMARK    9  A    between atoms: C_10  and  C_12
REMARK   10  A    between atoms: C_12  and  N_13
REMARK                            x       y       z     vdW  Elec       q    Type
REMARK                         _______ _______ _______ _____ _____    ______ ____
ROOT
ATOM      1  C   UNL     1      -1.183  11.842  19.504  0.00  0.00    +0.000 C 
ATOM      2  C   UNL     1      -0.553  12.949  18.592  0.00  0.00    +0.000 C 
ATOM      3  O   UNL     1       0.293  13.780  18.900  0.00  0.00    +0.000 OA
ATOM      4  N   UNL     1      -1.053  12.789  17.305  0.00  0.00    +0.000 N 
ATOM      5  C   UNL     1      -1.873  11.679  17.217  0.00  0.00    +0.000 A 
ATOM      6  C   UNL     1      -2.505  11.199  16.089  0.00  0.00    +0.000 A 
ATOM      7  C   UNL     1      -3.270  10.039  16.226  0.00  0.00    +0.000 A 
ATOM      8  C   UNL     1      -3.378   9.391  17.470  0.00  0.00    +0.000 A 
ATOM      9  C   UNL     1      -2.725   9.894  18.598  0.00  0.00    +0.000 A 
ATOM     10  C   UNL     1      -1.971  11.050  18.459  0.00  0.00    +0.000 A 
ATOM     11  H   UNL     1      -0.788  13.387  16.536  0.00  0.00    +0.000 HD
ENDROOT
BRANCH   1  12
ATOM     12  N   UNL     1      -0.146  10.990  20.105  0.00  0.00    +0.000 N 
ATOM     13  C   UNL     1      -0.419   9.822  20.969  0.00  0.00    +0.000 C 
ATOM     14  C   UNL     1       0.886   9.213  20.436  0.00  0.00    +0.000 C 
ATOM     15  C   UNL     1       0.805  10.328  19.386  0.00  0.00    +0.000 C 
ATOM     16  O   UNL     1       1.290  10.542  18.301  0.00  0.00    +0.000 OA
ENDBRANCH   1  12
BRANCH   1  18
ATOM     17  N   UNL     1      -3.378  12.928  20.019  0.00  0.00    +0.000 N 
ATOM     18  C   UNL     1      -2.169  12.488  20.532  0.00  0.00    +0.000 C 
ATOM     19  O   UNL     1      -1.890  12.617  21.728  0.00  0.00    +0.000 OA
ATOM     20  H   UNL     1      -3.390  13.079  19.007  0.00  0.00    +0.000 HD
BRANCH  17  21
ATOM     21  C   UNL     1      -4.432  13.637  20.793  0.00  0.00    +0.000 C 
ATOM     22  C   UNL     1      -3.840  15.011  21.163  0.00  0.00    +0.000 C 
ATOM     23  C   UNL     1      -4.685  12.863  22.096  0.00  0.00    +0.000 C 
BRANCH  21  24
ATOM     24  C   UNL     1      -5.696  13.773  19.874  0.00  0.00    +0.000 C 
BRANCH  24  26
ATOM     25  C   UNL     1      -7.620  12.379  20.894  0.00  0.00    +0.000 C 
ATOM     26  C   UNL     1      -6.750  12.639  19.657  0.00  0.00    +0.000 C 
ATOM     27  C   UNL     1      -6.123  11.321  19.183  0.00  0.00    +0.000 C 
ATOM     28  C   UNL     1      -7.711  13.105  18.530  0.00  0.00    +0.000 C 
ENDBRANCH  24  26
ENDBRANCH  21  24
ENDBRANCH  17  21
ENDBRANCH   1  18
TORSDOF 5
ENDMDL
