MODEL 1
REMARK VINA RESULT:      -8.0      0.000      0.000
REMARK  Name = 
REMARK  11 active torsions:
REMARK  status: ('A' for Active; 'I' for Inactive)
REMARK    1  A    between atoms: C_1  and  O_2
REMARK    2  A    between atoms: O_2  and  C_3
REMARK    3  A    between atoms: C_5  and  C_6
REMARK    4  A    between atoms: N_8  and  C_9
REMARK    5  A    between atoms: C_14  and  C_15
REMARK    6  A    between atoms: N_18  and  C_19
REMARK    7  A    between atoms: C_19  and  C_20
REMARK    8  A    between atoms: C_25  and  O_26
REMARK    9  A    between atoms: O_26  and  C_27
REMARK   10  A    between atoms: C_28  and  O_29
REMARK   11  A    between atoms: O_29  and  C_30
REMARK                            x       y       z     vdW  Elec       q    Type
REMARK                         _______ _______ _______ _____ _____    ______ ____
ROOT
ATOM      1  C   UNL     1       3.399   3.870  19.637  0.00  0.00    +0.000 A 
ATOM      2  C   UNL     1       3.367   2.653  20.339  0.00  0.00    +0.000 A 
ATOM      3  C   UNL     1       2.437   2.416  21.351  0.00  0.00    +0.000 A 
ATOM      4  C   UNL     1       1.527   3.401  21.700  0.00  0.00    +0.000 A 
ATOM      5  C   UNL     1       1.548   4.625  21.032  0.00  0.00    +0.000 A 
ATOM      6  C   UNL     1       2.475   4.881  19.996  0.00  0.00    +0.000 A 
ENDROOT
BRANCH   6   7
ATOM      7  C   UNL     1       2.409   6.181  19.324  0.00  0.00    +0.000 A 
ATOM      8  N   UNL     1       2.685   6.343  17.983  0.00  0.00    +0.000 NA
ATOM      9  N   UNL     1       2.493   7.623  17.698  0.00  0.00    +0.000 NA
ATOM     10  N   UNL     1       2.132   8.185  18.861  0.00  0.00    +0.000 N 
ATOM     11  N   UNL     1       2.071   7.342  19.918  0.00  0.00    +0.000 NA
BRANCH  10  12
ATOM     12  C   UNL     1       1.613   9.531  18.925  0.00  0.00    +0.000 C 
BRANCH  12  13
ATOM     13  C   UNL     1       0.579   9.781  19.994  0.00  0.00    +0.000 C 
ATOM     14  N   UNL     1       0.925   9.777  21.309  0.00  0.00    +0.000 N 
ATOM     15  O   UNL     1      -0.597  10.005  19.694  0.00  0.00    +0.000 OA
ATOM     16  H   UNL     1       1.884   9.893  21.624  0.00  0.00    +0.000 HD
ATOM     17  H   UNL     1       0.196  10.035  21.966  0.00  0.00    +0.000 HD
ENDBRANCH  12  13
ENDBRANCH  10  12
ENDBRANCH   6   7
BRANCH   1  20
ATOM     18  C   UNL     1       4.145   3.699  17.256  0.00  0.00    +0.000 C 
ATOM     19  O   UNL     1       3.179   3.104  16.790  0.00  0.00    +0.000 OA
ATOM     20  N   UNL     1       4.324   4.078  18.574  0.00  0.00    +0.000 N 
ATOM     21  H   UNL     1       5.092   4.713  18.793  0.00  0.00    +0.000 HD
BRANCH  18  24
ATOM     22  C   UNL     1       6.964   5.770  15.913  0.00  0.00    +0.000 A 
ATOM     23  C   UNL     1       5.884   5.313  16.672  0.00  0.00    +0.000 A 
ATOM     24  C   UNL     1       5.156   4.190  16.288  0.00  0.00    +0.000 A 
ATOM     25  C   UNL     1       5.421   3.589  15.064  0.00  0.00    +0.000 A 
ATOM     26  C   UNL     1       6.430   4.105  14.225  0.00  0.00    +0.000 A 
ATOM     27  C   UNL     1       7.224   5.204  14.646  0.00  0.00    +0.000 A 
BRANCH  22  29
ATOM     28  C   UNL     1       7.611   7.028  17.810  0.00  0.00    +0.000 C 
ATOM     29  O   UNL     1       7.753   6.779  16.406  0.00  0.00    +0.000 OA
ENDBRANCH  22  29
BRANCH  26  30
ATOM     30  O   UNL     1       6.511   3.396  13.050  0.00  0.00    +0.000 OA
ATOM     31  C   UNL     1       5.354   3.241  12.241  0.00  0.00    +0.000 C 
ENDBRANCH  26  30
BRANCH  27  32
ATOM     32  O   UNL     1       8.187   5.623  13.771  0.00  0.00    +0.000 OA
ATOM     33  C   UNL     1       7.915   5.748  12.384  0.00  0.00    +0.000 C 
ENDBRANCH  27  32
ENDBRANCH  18  24
ENDBRANCH   1  20
TORSDOF 8
ENDMDL
MODEL 2
REMARK VINA RESULT:      -7.9      0.185      2.390
REMARK  Name = 
REMARK  11 active torsions:
REMARK  status: ('A' for Active; 'I' for Inactive)
REMARK    1  A    between atoms: C_1  and  O_2
REMARK    2  A    between atoms: O_2  and  C_3
REMARK    3  A    between atoms: C_5  and  C_6
REMARK    4  A    between atoms: N_8  and  C_9
REMARK    5  A    between atoms: C_14  and  C_15
REMARK    6  A    between atoms: N_18  and  C_19
REMARK    7  A    between atoms: C_19  and  C_20
REMARK    8  A    between atoms: C_25  and  O_26
REMARK    9  A    between atoms: O_26  and  C_27
REMARK   10  A    between atoms: C_28  and  O_29
REMARK   11  A    between atoms: O_29  and  C_30
REMARK                            x       y       z     vdW  Elec       q    Type
REMARK                         _______ _______ _______ _____ _____    ______ ____
ROOT
ATOM      1  C   UNL     1       3.393   3.854  19.708  0.00  0.00    +0.000 A 
ATOM      2  C   UNL     1       3.312   2.625  20.384  0.00  0.00    +0.000 A 
ATOM      3  C   UNL     1       2.319   2.375  21.332  0.00  0.00    +0.000 A 
ATOM      4  C   UNL     1       1.394   3.359  21.642  0.00  0.00    +0.000 A 
ATOM      5  C   UNL     1       1.463   4.595  20.999  0.00  0.00    +0.000 A 
ATOM      6  C   UNL     1       2.454   4.863  20.028  0.00  0.00    +0.000 A 
ENDROOT
BRANCH   6   7
ATOM      7  C   UNL     1       2.437   6.176  19.377  0.00  0.00    +0.000 A 
ATOM      8  N   UNL     1       2.931   6.387  18.107  0.00  0.00    +0.000 NA
ATOM      9  N   UNL     1       2.723   7.662  17.815  0.00  0.00    +0.000 NA
ATOM     10  N   UNL     1       2.138   8.176  18.908  0.00  0.00    +0.000 N 
ATOM     11  N   UNL     1       1.941   7.304  19.923  0.00  0.00    +0.000 NA
BRANCH  10  12
ATOM     12  C   UNL     1       1.546   9.493  18.904  0.00  0.00    +0.000 C 
BRANCH  12  13
ATOM     13  C   UNL     1       0.557   9.766  20.010  0.00  0.00    +0.000 C 
ATOM     14  N   UNL     1       0.960   9.803  21.308  0.00  0.00    +0.000 N 
ATOM     15  O   UNL     1      -0.632   9.972  19.755  0.00  0.00    +0.000 OA
ATOM     16  H   UNL     1       1.931   9.935  21.577  0.00  0.00    +0.000 HD
ATOM     17  H   UNL     1       0.258  10.074  21.988  0.00  0.00    +0.000 HD
ENDBRANCH  12  13
ENDBRANCH  10  12
ENDBRANCH   6   7
BRANCH   1  20
ATOM     18  C   UNL     1       4.285   3.726  17.374  0.00  0.00    +0.000 C 
ATOM     19  O   UNL     1       3.345   3.149  16.838  0.00  0.00    +0.000 OA
ATOM     20  N   UNL     1       4.385   4.076  18.709  0.00  0.00    +0.000 N 
ATOM     21  H   UNL     1       5.143   4.699  18.988  0.00  0.00    +0.000 HD
BRANCH  18  24
ATOM     22  C   UNL     1       6.386   4.037  14.288  0.00  0.00    +0.000 A 
ATOM     23  C   UNL     1       5.515   3.559  15.271  0.00  0.00    +0.000 A 
ATOM     24  C   UNL     1       5.358   4.228  16.481  0.00  0.00    +0.000 A 
ATOM     25  C   UNL     1       6.173   5.313  16.774  0.00  0.00    +0.000 A 
ATOM     26  C   UNL     1       7.142   5.742  15.845  0.00  0.00    +0.000 A 
ATOM     27  C   UNL     1       7.255   5.110  14.579  0.00  0.00    +0.000 A 
BRANCH  22  29
ATOM     28  C   UNL     1       5.114   3.347  12.415  0.00  0.00    +0.000 C 
ATOM     29  O   UNL     1       6.394   3.442  13.051  0.00  0.00    +0.000 OA
ENDBRANCH  22  29
BRANCH  26  30
ATOM     30  O   UNL     1       7.867   6.803  16.335  0.00  0.00    +0.000 OA
ATOM     31  C   UNL     1       7.458   7.437  17.538  0.00  0.00    +0.000 C 
ENDBRANCH  26  30
BRANCH  27  32
ATOM     32  O   UNL     1       8.214   5.607  13.740  0.00  0.00    +0.000 OA
ATOM     33  C   UNL     1       7.964   5.767  12.353  0.00  0.00    +0.000 C 
ENDBRANCH  27  32
ENDBRANCH  18  24
ENDBRANCH   1  20
TORSDOF 8
ENDMDL
MODEL 3
REMARK VINA RESULT:      -7.6      2.970      7.529
REMARK  Name = 
REMARK  11 active torsions:
REMARK  status: ('A' for Active; 'I' for Inactive)
REMARK    1  A    between atoms: C_1  and  O_2
REMARK    2  A    between atoms: O_2  and  C_3
REMARK    3  A    between atoms: C_5  and  C_6
REMARK    4  A    between atoms: N_8  and  C_9
REMARK    5  A    between atoms: C_14  and  C_15
REMARK    6  A    between atoms: N_18  and  C_19
REMARK    7  A    between atoms: C_19  and  C_20
REMARK    8  A    between atoms: C_25  and  O_26
REMARK    9  A    between atoms: O_26  and  C_27
REMARK   10  A    between atoms: C_28  and  O_29
REMARK   11  A    between atoms: O_29  and  C_30
REMARK                            x       y       z     vdW  Elec       q    Type
REMARK                         _______ _______ _______ _____ _____    ______ ____
ROOT
ATOM      1  C   UNL     1       4.919   6.175  17.772  0.00  0.00    +0.000 A 
ATOM      2  C   UNL     1       6.146   6.708  17.343  0.00  0.00    +0.000 A 
ATOM      3  C   UNL     1       7.110   5.917  16.718  0.00  0.00    +0.000 A 
ATOM      4  C   UNL     1       6.876   4.565  16.524  0.00  0.00    +0.000 A 
ATOM      5  C   UNL     1       5.674   4.006  16.957  0.00  0.00    +0.000 A 
ATOM      6  C   UNL     1       4.680   4.793  17.581  0.00  0.00    +0.000 A 
ENDROOT
BRANCH   6   7
ATOM      7  C   UNL     1       3.433   4.134  17.977  0.00  0.00    +0.000 A 
ATOM      8  N   UNL     1       2.726   3.304  17.132  0.00  0.00    +0.000 NA
ATOM      9  N   UNL     1       1.684   2.851  17.813  0.00  0.00    +0.000 NA
ATOM     10  N   UNL     1       1.784   3.428  19.020  0.00  0.00    +0.000 N 
ATOM     11  N   UNL     1       2.846   4.250  19.184  0.00  0.00    +0.000 NA
BRANCH  10  12
ATOM     12  C   UNL     1       0.959   3.013  20.131  0.00  0.00    +0.000 C 
BRANCH  12  13
ATOM     13  C   UNL     1       1.700   2.655  21.395  0.00  0.00    +0.000 C 
ATOM     14  N   UNL     1       3.028   2.366  21.362  0.00  0.00    +0.000 N 
ATOM     15  O   UNL     1       1.117   2.629  22.482  0.00  0.00    +0.000 OA
ATOM     16  H   UNL     1       3.630   2.641  20.591  0.00  0.00    +0.000 HD
ATOM     17  H   UNL     1       3.477   2.216  22.260  0.00  0.00    +0.000 HD
ENDBRANCH  12  13
ENDBRANCH  10  12
ENDBRANCH   6   7
BRANCH   1  20
ATOM     18  C   UNL     1       3.107   7.898  17.697  0.00  0.00    +0.000 C 
ATOM     19  O   UNL     1       3.115   8.137  16.494  0.00  0.00    +0.000 OA
ATOM     20  N   UNL     1       3.927   7.008  18.366  0.00  0.00    +0.000 N 
ATOM     21  H   UNL     1       3.703   6.782  19.336  0.00  0.00    +0.000 HD
BRANCH  18  24
ATOM     22  C   UNL     1       1.032   8.729  20.704  0.00  0.00    +0.000 A 
ATOM     23  C   UNL     1       1.916   8.105  19.819  0.00  0.00    +0.000 A 
ATOM     24  C   UNL     1       2.019   8.516  18.493  0.00  0.00    +0.000 A 
ATOM     25  C   UNL     1       1.138   9.472  18.003  0.00  0.00    +0.000 A 
ATOM     26  C   UNL     1       0.158  10.031  18.848  0.00  0.00    +0.000 A 
ATOM     27  C   UNL     1       0.099   9.670  20.219  0.00  0.00    +0.000 A 
BRANCH  22  29
ATOM     28  C   UNL     1       1.809   9.317  22.861  0.00  0.00    +0.000 C 
ATOM     29  O   UNL     1       1.074   8.404  22.037  0.00  0.00    +0.000 OA
ENDBRANCH  22  29
BRANCH  26  30
ATOM     30  O   UNL     1      -0.633  10.926  18.167  0.00  0.00    +0.000 OA
ATOM     31  C   UNL     1      -1.838  10.480  17.562  0.00  0.00    +0.000 C 
ENDBRANCH  26  30
BRANCH  27  32
ATOM     32  O   UNL     1      -0.876  10.278  20.961  0.00  0.00    +0.000 OA
ATOM     33  C   UNL     1      -0.680  11.569  21.515  0.00  0.00    +0.000 C 
ENDBRANCH  27  32
ENDBRANCH  18  24
ENDBRANCH   1  20
TORSDOF 8
ENDMDL
MODEL 4
REMARK VINA RESULT:      -7.6      2.423      7.406
REMARK  Name = 
REMARK  11 active torsions:
REMARK  status: ('A' for Active; 'I' for Inactive)
REMARK    1  A    between atoms: C_1  and  O_2
REMARK    2  A    between atoms: O_2  and  C_3
REMARK    3  A    between atoms: C_5  and  C_6
REMARK    4  A    between atoms: N_8  and  C_9
REMARK    5  A    between atoms: C_14  and  C_15
REMARK    6  A    between atoms: N_18  and  C_19
REMARK    7  A    between atoms: C_19  and  C_20
REMARK    8  A    between atoms: C_25  and  O_26
REMARK    9  A    between atoms: O_26  and  C_27
REMARK   10  A    between atoms: C_28  and  O_29
REMARK   11  A    between atoms: O_29  and  C_30
REMARK                            x       y       z     vdW  Elec       q    Type
REMARK                         _______ _______ _______ _____ _____    ______ ____
ROOT
ATOM      1  C   UNL     1       2.226   4.439  19.694  0.00  0.00    +0.000 A 
ATOM      2  C   UNL     1       1.125   3.581  19.851  0.00  0.00    +0.000 A 
ATOM      3  C   UNL     1       1.230   2.207  19.633  0.00  0.00    +0.000 A 
ATOM      4  C   UNL     1       2.439   1.660  19.231  0.00  0.00    +0.000 A 
ATOM      5  C   UNL     1       3.543   2.492  19.050  0.00  0.00    +0.000 A 
ATOM      6  C   UNL     1       3.460   3.884  19.277  0.00  0.00    +0.000 A 
ENDROOT
BRANCH   6   7
ATOM      7  C   UNL     1       4.676   4.681  19.095  0.00  0.00    +0.000 A 
ATOM      8  N   UNL     1       5.739   4.634  19.971  0.00  0.00    +0.000 NA
ATOM      9  N   UNL     1       6.676   5.437  19.491  0.00  0.00    +0.000 NA
ATOM     10  N   UNL     1       6.150   5.950  18.368  0.00  0.00    +0.000 N 
ATOM     11  N   UNL     1       4.899   5.528  18.070  0.00  0.00    +0.000 NA
BRANCH  10  12
ATOM     12  C   UNL     1       6.948   6.701  17.428  0.00  0.00    +0.000 C 
BRANCH  12  13
ATOM     13  C   UNL     1       6.785   6.315  15.979  0.00  0.00    +0.000 C 
ATOM     14  N   UNL     1       5.615   6.549  15.327  0.00  0.00    +0.000 N 
ATOM     15  O   UNL     1       7.713   5.791  15.359  0.00  0.00    +0.000 OA
ATOM     16  H   UNL     1       4.927   7.218  15.658  0.00  0.00    +0.000 HD
ATOM     17  H   UNL     1       5.606   6.340  14.334  0.00  0.00    +0.000 HD
ENDBRANCH  12  13
ENDBRANCH  10  12
ENDBRANCH   6   7
BRANCH   1  20
ATOM     18  C   UNL     1       1.940   6.833  19.027  0.00  0.00    +0.000 C 
ATOM     19  O   UNL     1       1.881   6.691  17.810  0.00  0.00    +0.000 OA
ATOM     20  N   UNL     1       2.113   5.833  19.967  0.00  0.00    +0.000 N 
ATOM     21  H   UNL     1       1.976   6.068  20.950  0.00  0.00    +0.000 HD
BRANCH  18  24
ATOM     22  C   UNL     1       1.289   9.521  21.554  0.00  0.00    +0.000 A 
ATOM     23  C   UNL     1       1.416   8.280  20.923  0.00  0.00    +0.000 A 
ATOM     24  C   UNL     1       1.655   8.189  19.555  0.00  0.00    +0.000 A 
ATOM     25  C   UNL     1       1.639   9.342  18.779  0.00  0.00    +0.000 A 
ATOM     26  C   UNL     1       1.396  10.595  19.378  0.00  0.00    +0.000 A 
ATOM     27  C   UNL     1       1.225  10.700  20.783  0.00  0.00    +0.000 A 
BRANCH  22  29
ATOM     28  C   UNL     1      -0.109   9.454  23.463  0.00  0.00    +0.000 C 
ATOM     29  O   UNL     1       1.214   9.572  22.924  0.00  0.00    +0.000 OA
ENDBRANCH  22  29
BRANCH  26  30
ATOM     30  O   UNL     1       1.384  11.600  18.440  0.00  0.00    +0.000 OA
ATOM     31  C   UNL     1       2.598  12.247  18.088  0.00  0.00    +0.000 C 
ENDBRANCH  26  30
BRANCH  27  32
ATOM     32  O   UNL     1       1.010  11.959  21.271  0.00  0.00    +0.000 OA
ATOM     33  C   UNL     1      -0.300  12.494  21.372  0.00  0.00    +0.000 C 
ENDBRANCH  27  32
ENDBRANCH  18  24
ENDBRANCH   1  20
TORSDOF 8
ENDMDL
MODEL 5
REMARK VINA RESULT:      -7.5      3.200      7.407
REMARK  Name = 
REMARK  11 active torsions:
REMARK  status: ('A' for Active; 'I' for Inactive)
REMARK    1  A    between atoms: C_1  and  O_2
REMARK    2  A    between atoms: O_2  and  C_3
REMARK    3  A    between atoms: C_5  and  C_6
REMARK    4  A    between atoms: N_8  and  C_9
REMARK    5  A    between atoms: C_14  and  C_15
REMARK    6  A    between atoms: N_18  and  C_19
REMARK    7  A    between atoms: C_19  and  C_20
REMARK    8  A    between atoms: C_25  and  O_26
REMARK    9  A    between atoms: O_26  and  C_27
REMARK   10  A    between atoms: C_28  and  O_29
REMARK   11  A    between atoms: O_29  and  C_30
REMARK                            x       y       z     vdW  Elec       q    Type
REMARK                         _______ _______ _______ _____ _____    ______ ____
ROOT
ATOM      1  C   UNL     1       2.187   4.258  18.777  0.00  0.00    +0.000 A 
ATOM      2  C   UNL     1       1.384   3.165  19.142  0.00  0.00    +0.000 A 
ATOM      3  C   UNL     1       1.770   1.851  18.874  0.00  0.00    +0.000 A 
ATOM      4  C   UNL     1       2.962   1.600  18.214  0.00  0.00    +0.000 A 
ATOM      5  C   UNL     1       3.770   2.668  17.824  0.00  0.00    +0.000 A 
ATOM      6  C   UNL     1       3.403   4.005  18.097  0.00  0.00    +0.000 A 
ENDROOT
BRANCH   6   7
ATOM      7  C   UNL     1       4.324   5.066  17.681  0.00  0.00    +0.000 A 
ATOM      8  N   UNL     1       3.898   6.334  17.342  0.00  0.00    +0.000 NA
ATOM      9  N   UNL     1       4.980   7.044  17.059  0.00  0.00    +0.000 NA
ATOM     10  N   UNL     1       6.004   6.192  17.215  0.00  0.00    +0.000 N 
ATOM     11  N   UNL     1       5.662   4.938  17.592  0.00  0.00    +0.000 NA
BRANCH  10  12
ATOM     12  C   UNL     1       7.376   6.645  17.220  0.00  0.00    +0.000 C 
BRANCH  12  13
ATOM     13  C   UNL     1       8.019   6.763  18.579  0.00  0.00    +0.000 C 
ATOM     14  N   UNL     1       7.985   5.723  19.455  0.00  0.00    +0.000 N 
ATOM     15  O   UNL     1       8.597   7.800  18.915  0.00  0.00    +0.000 OA
ATOM     16  H   UNL     1       7.799   4.768  19.165  0.00  0.00    +0.000 HD
ATOM     17  H   UNL     1       8.509   5.845  20.315  0.00  0.00    +0.000 HD
ENDBRANCH  12  13
ENDBRANCH  10  12
ENDBRANCH   6   7
BRANCH   1  20
ATOM     18  C   UNL     1       1.858   6.170  20.356  0.00  0.00    +0.000 C 
ATOM     19  O   UNL     1       2.224   5.631  21.395  0.00  0.00    +0.000 OA
ATOM     20  N   UNL     1       1.801   5.591  19.101  0.00  0.00    +0.000 N 
ATOM     21  H   UNL     1       1.640   6.198  18.297  0.00  0.00    +0.000 HD
BRANCH  18  24
ATOM     22  C   UNL     1       1.346   9.675  19.133  0.00  0.00    +0.000 A 
ATOM     23  C   UNL     1       1.724   8.332  19.227  0.00  0.00    +0.000 A 
ATOM     24  C   UNL     1       1.587   7.628  20.419  0.00  0.00    +0.000 A 
ATOM     25  C   UNL     1       1.192   8.299  21.569  0.00  0.00    +0.000 A 
ATOM     26  C   UNL     1       0.919   9.681  21.524  0.00  0.00    +0.000 A 
ATOM     27  C   UNL     1       0.985  10.388  20.296  0.00  0.00    +0.000 A 
BRANCH  22  29
ATOM     28  C   UNL     1       2.456  11.163  17.664  0.00  0.00    +0.000 C 
ATOM     29  O   UNL     1       1.347  10.288  17.904  0.00  0.00    +0.000 OA
ENDBRANCH  22  29
BRANCH  26  30
ATOM     30  O   UNL     1       0.581  10.162  22.767  0.00  0.00    +0.000 OA
ATOM     31  C   UNL     1      -0.699   9.870  23.310  0.00  0.00    +0.000 C 
ENDBRANCH  26  30
BRANCH  27  32
ATOM     32  O   UNL     1       0.687  11.722  20.350  0.00  0.00    +0.000 OA
ATOM     33  C   UNL     1       1.660  12.675  20.746  0.00  0.00    +0.000 C 
ENDBRANCH  27  32
ENDBRANCH  18  24
ENDBRANCH   1  20
TORSDOF 8
ENDMDL
MODEL 6
REMARK VINA RESULT:      -7.5      3.147      7.405
REMARK  Name = 
REMARK  11 active torsions:
REMARK  status: ('A' for Active; 'I' for Inactive)
REMARK    1  A    between atoms: C_1  and  O_2
REMARK    2  A    between atoms: O_2  and  C_3
REMARK    3  A    between atoms: C_5  and  C_6
REMARK    4  A    between atoms: N_8  and  C_9
REMARK    5  A    between atoms: C_14  and  C_15
REMARK    6  A    between atoms: N_18  and  C_19
REMARK    7  A    between atoms: C_19  and  C_20
REMARK    8  A    between atoms: C_25  and  O_26
REMARK    9  A    between atoms: O_26  and  C_27
REMARK   10  A    between atoms: C_28  and  O_29
REMARK   11  A    between atoms: O_29  and  C_30
REMARK                            x       y       z     vdW  Elec       q    Type
REMARK                         _______ _______ _______ _____ _____    ______ ____
ROOT
ATOM      1  C   UNL     1       2.377   4.417  19.382  0.00  0.00    +0.000 A 
ATOM      2  C   UNL     1       1.274   3.550  19.461  0.00  0.00    +0.000 A 
ATOM      3  C   UNL     1       1.379   2.200  19.126  0.00  0.00    +0.000 A 
ATOM      4  C   UNL     1       2.588   1.688  18.682  0.00  0.00    +0.000 A 
ATOM      5  C   UNL     1       3.694   2.531  18.576  0.00  0.00    +0.000 A 
ATOM      6  C   UNL     1       3.612   3.898  18.922  0.00  0.00    +0.000 A 
ENDROOT
BRANCH   6   7
ATOM      7  C   UNL     1       4.828   4.707  18.811  0.00  0.00    +0.000 A 
ATOM      8  N   UNL     1       5.826   4.689  19.763  0.00  0.00    +0.000 NA
ATOM      9  N   UNL     1       6.787   5.495  19.336  0.00  0.00    +0.000 NA
ATOM     10  N   UNL     1       6.337   5.980  18.169  0.00  0.00    +0.000 N 
ATOM     11  N   UNL     1       5.115   5.537  17.790  0.00  0.00    +0.000 NA
BRANCH  10  12
ATOM     12  C   UNL     1       7.193   6.723  17.274  0.00  0.00    +0.000 C 
BRANCH  12  13
ATOM     13  C   UNL     1       7.889   7.916  17.879  0.00  0.00    +0.000 C 
ATOM     14  N   UNL     1       8.647   7.782  19.000  0.00  0.00    +0.000 N 
ATOM     15  O   UNL     1       7.794   9.032  17.361  0.00  0.00    +0.000 OA
ATOM     16  H   UNL     1       9.010   6.886  19.312  0.00  0.00    +0.000 HD
ATOM     17  H   UNL     1       9.152   8.609  19.302  0.00  0.00    +0.000 HD
ENDBRANCH  12  13
ENDBRANCH  10  12
ENDBRANCH   6   7
BRANCH   1  20
ATOM     18  C   UNL     1       2.056   6.856  18.925  0.00  0.00    +0.000 C 
ATOM     19  O   UNL     1       1.959   6.815  17.703  0.00  0.00    +0.000 OA
ATOM     20  N   UNL     1       2.265   5.783  19.773  0.00  0.00    +0.000 N 
ATOM     21  H   UNL     1       2.157   5.934  20.776  0.00  0.00    +0.000 HD
BRANCH  18  24
ATOM     22  C   UNL     1       1.386  10.531  19.208  0.00  0.00    +0.000 A 
ATOM     23  C   UNL     1       1.784   9.276  18.739  0.00  0.00    +0.000 A 
ATOM     24  C   UNL     1       1.780   8.161  19.573  0.00  0.00    +0.000 A 
ATOM     25  C   UNL     1       1.504   8.319  20.925  0.00  0.00    +0.000 A 
ATOM     26  C   UNL     1       1.215   9.597  21.445  0.00  0.00    +0.000 A 
ATOM     27  C   UNL     1       1.144  10.724  20.585  0.00  0.00    +0.000 A 
BRANCH  22  29
ATOM     28  C   UNL     1       2.479  12.187  17.918  0.00  0.00    +0.000 C 
ATOM     29  O   UNL     1       1.251  11.568  18.319  0.00  0.00    +0.000 OA
ENDBRANCH  22  29
BRANCH  26  30
ATOM     30  O   UNL     1       1.007   9.547  22.803  0.00  0.00    +0.000 OA
ATOM     31  C   UNL     1      -0.319   9.546  23.311  0.00  0.00    +0.000 C 
ENDBRANCH  26  30
BRANCH  27  32
ATOM     32  O   UNL     1       0.842  11.918  21.179  0.00  0.00    +0.000 OA
ATOM     33  C   UNL     1       1.778  12.984  21.203  0.00  0.00    +0.000 C 
ENDBRANCH  27  32
ENDBRANCH  18  24
ENDBRANCH   1  20
TORSDOF 8
ENDMDL
MODEL 7
REMARK VINA RESULT:      -7.4      2.513      7.584
REMARK  Name = 
REMARK  11 active torsions:
REMARK  status: ('A' for Active; 'I' for Inactive)
REMARK    1  A    between atoms: C_1  and  O_2
REMARK    2  A    between atoms: O_2  and  C_3
REMARK    3  A    between atoms: C_5  and  C_6
REMARK    4  A    between atoms: N_8  and  C_9
REMARK    5  A    between atoms: C_14  and  C_15
REMARK    6  A    between atoms: N_18  and  C_19
REMARK    7  A    between atoms: C_19  and  C_20
REMARK    8  A    between atoms: C_25  and  O_26
REMARK    9  A    between atoms: O_26  and  C_27
REMARK   10  A    between atoms: C_28  and  O_29
REMARK   11  A    between atoms: O_29  and  C_30
REMARK                            x       y       z     vdW  Elec       q    Type
REMARK                         _______ _______ _______ _____ _____    ______ ____
ROOT
ATOM      1  C   UNL     1       2.160   4.451  19.884  0.00  0.00    +0.000 A 
ATOM      2  C   UNL     1       1.047   3.613  20.065  0.00  0.00    +0.000 A 
ATOM      3  C   UNL     1       1.110   2.245  19.803  0.00  0.00    +0.000 A 
ATOM      4  C   UNL     1       2.287   1.682  19.334  0.00  0.00    +0.000 A 
ATOM      5  C   UNL     1       3.402   2.494  19.128  0.00  0.00    +0.000 A 
ATOM      6  C   UNL     1       3.362   3.881  19.398  0.00  0.00    +0.000 A 
ENDROOT
BRANCH   6   7
ATOM      7  C   UNL     1       4.587   4.655  19.185  0.00  0.00    +0.000 A 
ATOM      8  N   UNL     1       5.683   4.564  20.016  0.00  0.00    +0.000 NA
ATOM      9  N   UNL     1       6.618   5.358  19.517  0.00  0.00    +0.000 NA
ATOM     10  N   UNL     1       6.059   5.909  18.429  0.00  0.00    +0.000 N 
ATOM     11  N   UNL     1       4.788   5.522  18.172  0.00  0.00    +0.000 NA
BRANCH  10  12
ATOM     12  C   UNL     1       6.836   6.665  17.475  0.00  0.00    +0.000 C 
BRANCH  12  13
ATOM     13  C   UNL     1       6.678   6.252  16.033  0.00  0.00    +0.000 C 
ATOM     14  N   UNL     1       7.584   5.426  15.445  0.00  0.00    +0.000 N 
ATOM     15  O   UNL     1       5.719   6.647  15.366  0.00  0.00    +0.000 OA
ATOM     16  H   UNL     1       8.216   4.837  15.979  0.00  0.00    +0.000 HD
ATOM     17  H   UNL     1       7.369   5.124  14.500  0.00  0.00    +0.000 HD
ENDBRANCH  12  13
ENDBRANCH  10  12
ENDBRANCH   6   7
BRANCH   1  20
ATOM     18  C   UNL     1       1.913   6.870  19.296  0.00  0.00    +0.000 C 
ATOM     19  O   UNL     1       1.809   6.765  18.079  0.00  0.00    +0.000 OA
ATOM     20  N   UNL     1       2.092   5.839  20.201  0.00  0.00    +0.000 N 
ATOM     21  H   UNL     1       1.994   6.047  21.195  0.00  0.00    +0.000 HD
BRANCH  18  24
ATOM     22  C   UNL     1       1.347  10.572  19.380  0.00  0.00    +0.000 A 
ATOM     23  C   UNL     1       1.704   9.282  18.978  0.00  0.00    +0.000 A 
ATOM     24  C   UNL     1       1.681   8.217  19.873  0.00  0.00    +0.000 A 
ATOM     25  C   UNL     1       1.426   8.457  21.217  0.00  0.00    +0.000 A 
ATOM     26  C   UNL     1       1.178   9.769  21.667  0.00  0.00    +0.000 A 
ATOM     27  C   UNL     1       1.127  10.848  20.747  0.00  0.00    +0.000 A 
BRANCH  22  29
ATOM     28  C   UNL     1       2.427  12.304  18.182  0.00  0.00    +0.000 C 
ATOM     29  O   UNL     1       1.228  11.562  18.436  0.00  0.00    +0.000 OA
ENDBRANCH  22  29
BRANCH  26  30
ATOM     30  O   UNL     1       0.986   9.800  23.028  0.00  0.00    +0.000 OA
ATOM     31  C   UNL     1      -0.312   9.577  23.560  0.00  0.00    +0.000 C 
ENDBRANCH  26  30
BRANCH  27  32
ATOM     32  O   UNL     1       0.865  12.082  21.277  0.00  0.00    +0.000 OA
ATOM     33  C   UNL     1      -0.455  12.599  21.314  0.00  0.00    +0.000 C 
ENDBRANCH  27  32
ENDBRANCH  18  24
ENDBRANCH   1  20
TORSDOF 8
ENDMDL
MODEL 8
REMARK VINA RESULT:      -7.4      2.949      7.715
REMARK  Name = 
REMARK  11 active torsions:
REMARK  status: ('A' for Active; 'I' for Inactive)
REMARK    1  A    between atoms: C_1  and  O_2
REMARK    2  A    between atoms: O_2  and  C_3
REMARK    3  A    between atoms: C_5  and  C_6
REMARK    4  A    between atoms: N_8  and  C_9
REMARK    5  A    between atoms: C_14  and  C_15
REMARK    6  A    between atoms: N_18  and  C_19
REMARK    7  A    between atoms: C_19  and  C_20
REMARK    8  A    between atoms: C_25  and  O_26
REMARK    9  A    between atoms: O_26  and  C_27
REMARK   10  A    between atoms: C_28  and  O_29
REMARK   11  A    between atoms: O_29  and  C_30
REMARK                            x       y       z     vdW  Elec       q    Type
REMARK                         _______ _______ _______ _____ _____    ______ ____
ROOT
ATOM      1  C   UNL     1       4.586   6.059  17.501  0.00  0.00    +0.000 A 
ATOM      2  C   UNL     1       5.778   6.542  16.936  0.00  0.00    +0.000 A 
ATOM      3  C   UNL     1       6.608   5.724  16.169  0.00  0.00    +0.000 A 
ATOM      4  C   UNL     1       6.275   4.395  15.965  0.00  0.00    +0.000 A 
ATOM      5  C   UNL     1       5.107   3.885  16.531  0.00  0.00    +0.000 A 
ATOM      6  C   UNL     1       4.247   4.699  17.301  0.00  0.00    +0.000 A 
ENDROOT
BRANCH   6   7
ATOM      7  C   UNL     1       3.023   4.093  17.832  0.00  0.00    +0.000 A 
ATOM      8  N   UNL     1       2.189   3.302  17.070  0.00  0.00    +0.000 NA
ATOM      9  N   UNL     1       1.211   2.890  17.863  0.00  0.00    +0.000 NA
ATOM     10  N   UNL     1       1.471   3.452  19.053  0.00  0.00    +0.000 N 
ATOM     11  N   UNL     1       2.582   4.225  19.099  0.00  0.00    +0.000 NA
BRANCH  10  12
ATOM     12  C   UNL     1       0.759   3.065  20.248  0.00  0.00    +0.000 C 
BRANCH  12  13
ATOM     13  C   UNL     1       1.571   3.064  21.520  0.00  0.00    +0.000 C 
ATOM     14  N   UNL     1       2.360   4.124  21.840  0.00  0.00    +0.000 N 
ATOM     15  O   UNL     1       1.524   2.106  22.296  0.00  0.00    +0.000 OA
ATOM     16  H   UNL     1       2.237   5.043  21.427  0.00  0.00    +0.000 HD
ATOM     17  H   UNL     1       2.811   4.089  22.748  0.00  0.00    +0.000 HD
ENDBRANCH  12  13
ENDBRANCH  10  12
ENDBRANCH   6   7
BRANCH   1  20
ATOM     18  C   UNL     1       2.964   7.951  17.722  0.00  0.00    +0.000 C 
ATOM     19  O   UNL     1       2.921   8.309  16.550  0.00  0.00    +0.000 OA
ATOM     20  N   UNL     1       3.726   6.920  18.243  0.00  0.00    +0.000 N 
ATOM     21  H   UNL     1       3.541   6.620  19.200  0.00  0.00    +0.000 HD
BRANCH  18  24
ATOM     22  C   UNL     1       0.143  10.144  18.848  0.00  0.00    +0.000 A 
ATOM     23  C   UNL     1       1.190   9.584  18.111  0.00  0.00    +0.000 A 
ATOM     24  C   UNL     1       1.999   8.588  18.651  0.00  0.00    +0.000 A 
ATOM     25  C   UNL     1       1.850   8.234  19.986  0.00  0.00    +0.000 A 
ATOM     26  C   UNL     1       0.876   8.870  20.783  0.00  0.00    +0.000 A 
ATOM     27  C   UNL     1       0.001   9.833  20.217  0.00  0.00    +0.000 A 
BRANCH  22  29
ATOM     28  C   UNL     1      -0.368  12.391  18.307  0.00  0.00    +0.000 C 
ATOM     29  O   UNL     1      -0.728  11.006  18.229  0.00  0.00    +0.000 OA
ENDBRANCH  22  29
BRANCH  26  30
ATOM     30  O   UNL     1       0.913   8.407  22.077  0.00  0.00    +0.000 OA
ATOM     31  C   UNL     1       1.581   9.164  23.076  0.00  0.00    +0.000 C 
ENDBRANCH  26  30
BRANCH  27  32
ATOM     32  O   UNL     1      -0.920  10.383  21.066  0.00  0.00    +0.000 OA
ATOM     33  C   UNL     1      -0.648  11.589  21.762  0.00  0.00    +0.000 C 
ENDBRANCH  27  32
ENDBRANCH  18  24
ENDBRANCH   1  20
TORSDOF 8
ENDMDL
MODEL 9
REMARK VINA RESULT:      -7.3      3.171      7.627
REMARK  Name = 
REMARK  11 active torsions:
REMARK  status: ('A' for Active; 'I' for Inactive)
REMARK    1  A    between atoms: C_1  and  O_2
REMARK    2  A    between atoms: O_2  and  C_3
REMARK    3  A    between atoms: C_5  and  C_6
REMARK    4  A    between atoms: N_8  and  C_9
REMARK    5  A    between atoms: C_14  and  C_15
REMARK    6  A    between atoms: N_18  and  C_19
REMARK    7  A    between atoms: C_19  and  C_20
REMARK    8  A    between atoms: C_25  and  O_26
REMARK    9  A    between atoms: O_26  and  C_27
REMARK   10  A    between atoms: C_28  and  O_29
REMARK   11  A    between atoms: O_29  and  C_30
REMARK                            x       y       z     vdW  Elec       q    Type
REMARK                         _______ _______ _______ _____ _____    ______ ____
ROOT
ATOM      1  C   UNL     1       4.099   6.152  17.099  0.00  0.00    +0.000 A 
ATOM      2  C   UNL     1       5.239   6.712  16.501  0.00  0.00    +0.000 A 
ATOM      3  C   UNL     1       6.251   5.915  15.965  0.00  0.00    +0.000 A 
ATOM      4  C   UNL     1       6.155   4.534  16.033  0.00  0.00    +0.000 A 
ATOM      5  C   UNL     1       5.042   3.952  16.639  0.00  0.00    +0.000 A 
ATOM      6  C   UNL     1       4.001   4.741  17.177  0.00  0.00    +0.000 A 
ENDROOT
BRANCH   6   7
ATOM      7  C   UNL     1       2.852   4.050  17.766  0.00  0.00    +0.000 A 
ATOM      8  N   UNL     1       2.108   3.115  17.077  0.00  0.00    +0.000 NA
ATOM      9  N   UNL     1       1.182   2.663  17.910  0.00  0.00    +0.000 NA
ATOM     10  N   UNL     1       1.381   3.343  19.049  0.00  0.00    +0.000 N 
ATOM     11  N   UNL     1       2.400   4.233  19.023  0.00  0.00    +0.000 NA
BRANCH  10  12
ATOM     12  C   UNL     1       0.717   2.977  20.279  0.00  0.00    +0.000 C 
BRANCH  12  13
ATOM     13  C   UNL     1       1.625   2.613  21.427  0.00  0.00    +0.000 C 
ATOM     14  N   UNL     1       2.958   2.437  21.227  0.00  0.00    +0.000 N 
ATOM     15  O   UNL     1       1.175   2.482  22.568  0.00  0.00    +0.000 OA
ATOM     16  H   UNL     1       3.444   2.801  20.413  0.00  0.00    +0.000 HD
ATOM     17  H   UNL     1       3.519   2.277  22.058  0.00  0.00    +0.000 HD
ENDBRANCH  12  13
ENDBRANCH  10  12
ENDBRANCH   6   7
BRANCH   1  20
ATOM     18  C   UNL     1       2.802   7.258  18.931  0.00  0.00    +0.000 C 
ATOM     19  O   UNL     1       3.419   6.821  19.897  0.00  0.00    +0.000 OA
ATOM     20  N   UNL     1       3.052   6.980  17.599  0.00  0.00    +0.000 N 
ATOM     21  H   UNL     1       2.574   7.540  16.892  0.00  0.00    +0.000 HD
BRANCH  18  24
ATOM     22  C   UNL     1       0.789   9.728  20.900  0.00  0.00    +0.000 A 
ATOM     23  C   UNL     1       1.608   8.656  20.539  0.00  0.00    +0.000 A 
ATOM     24  C   UNL     1       1.781   8.298  19.205  0.00  0.00    +0.000 A 
ATOM     25  C   UNL     1       1.027   8.929  18.224  0.00  0.00    +0.000 A 
ATOM     26  C   UNL     1       0.105   9.935  18.577  0.00  0.00    +0.000 A 
ATOM     27  C   UNL     1      -0.019  10.355  19.927  0.00  0.00    +0.000 A 
BRANCH  22  29
ATOM     28  C   UNL     1      -0.170   9.471  23.048  0.00  0.00    +0.000 C 
ATOM     29  O   UNL     1       0.770  10.149  22.206  0.00  0.00    +0.000 OA
ENDBRANCH  22  29
BRANCH  26  30
ATOM     30  O   UNL     1      -0.564  10.407  17.473  0.00  0.00    +0.000 OA
ATOM     31  C   UNL     1      -1.901   9.992  17.231  0.00  0.00    +0.000 C 
ENDBRANCH  26  30
BRANCH  27  32
ATOM     32  O   UNL     1      -0.928  11.348  20.169  0.00  0.00    +0.000 OA
ATOM     33  C   UNL     1      -0.510  12.674  20.449  0.00  0.00    +0.000 C 
ENDBRANCH  27  32
ENDBRANCH  18  24
ENDBRANCH   1  20
TORSDOF 8
ENDMDL
