MODEL 1
REMARK VINA RESULT:      -9.7      0.000      0.000
REMARK  Name = 
REMARK  7 active torsions:
REMARK  status: ('A' for Active; 'I' for Inactive)
REMARK    1  A    between atoms: C_1  and  C_2
REMARK    2  A    between atoms: C_6  and  N_7
REMARK    3  A    between atoms: C_8  and  C_9
REMARK    4  A    between atoms: N_11  and  C_12
REMARK    5  A    between atoms: C_12  and  C_13
REMARK    6  A    between atoms: C_13  and  C_14
REMARK    7  A    between atoms: C_17  and  N_18
REMARK                            x       y       z     vdW  Elec       q    Type
REMARK                         _______ _______ _______ _____ _____    ______ ____
ROOT
ATOM      1  C   UNL     1       8.147   8.739  18.379  0.00  0.00    +0.000 C 
ENDROOT
BRANCH   1   4
ATOM      2  C   UNL     1       9.243  10.838  19.012  0.00  0.00    +0.000 C 
ATOM      3  O   UNL     1       9.383  10.384  20.152  0.00  0.00    +0.000 OA
ATOM      4  N   UNL     1       8.642  10.060  18.030  0.00  0.00    +0.000 N 
ATOM      5  H   UNL     1       8.478  10.463  17.115  0.00  0.00    +0.000 HD
BRANCH   2  12
ATOM      6  C   UNL     1      10.495  18.101  17.374  0.00  0.00    +0.000 C 
ATOM      7  C   UNL     1      10.708  16.621  17.518  0.00  0.00    +0.000 A 
ATOM      8  C   UNL     1      11.881  16.045  17.042  0.00  0.00    +0.000 A 
ATOM      9  C   UNL     1      12.057  14.668  17.164  0.00  0.00    +0.000 A 
ATOM     10  C   UNL     1      11.034  13.903  17.762  0.00  0.00    +0.000 A 
ATOM     11  C   UNL     1      10.889  12.505  18.022  0.00  0.00    +0.000 A 
ATOM     12  C   UNL     1       9.692  12.176  18.647  0.00  0.00    +0.000 A 
ATOM     13  S   UNL     1       8.751  13.581  18.927  0.00  0.00    +0.000 S 
ATOM     14  C   UNL     1       9.914  14.599  18.207  0.00  0.00    +0.000 A 
ATOM     15  N   UNL     1       9.707  15.929  18.110  0.00  0.00    +0.000 NA
BRANCH  11  16
ATOM     16  N   UNL     1      11.826  11.589  17.689  0.00  0.00    +0.000 N 
ATOM     17  H   UNL     1      12.727  11.826  17.286  0.00  0.00    +0.000 HD
ATOM     18  H   UNL     1      11.568  10.603  17.585  0.00  0.00    +0.000 HD
ENDBRANCH  11  16
ENDBRANCH   2  12
ENDBRANCH   1   4
BRANCH   1  19
ATOM     19  C   UNL     1       7.877   7.819  17.188  0.00  0.00    +0.000 C 
BRANCH  19  20
ATOM     20  C   UNL     1       6.830   6.783  17.531  0.00  0.00    +0.000 A 
ATOM     21  C   UNL     1       5.576   6.791  16.915  0.00  0.00    +0.000 A 
ATOM     22  C   UNL     1       4.635   5.780  17.182  0.00  0.00    +0.000 A 
ATOM     23  C   UNL     1       4.901   4.747  18.094  0.00  0.00    +0.000 A 
ATOM     24  C   UNL     1       6.162   4.759  18.711  0.00  0.00    +0.000 A 
ATOM     25  C   UNL     1       7.105   5.749  18.425  0.00  0.00    +0.000 A 
ATOM     26  F   UNL     1       8.305   5.687  19.022  0.00  0.00    +0.000 F 
BRANCH  23  27
ATOM     27  N   UNL     1       3.993   3.735  18.417  0.00  0.00    +0.000 N 
ATOM     28  C   UNL     1       2.882   3.373  17.496  0.00  0.00    +0.000 C 
ATOM     29  C   UNL     1       1.486   3.727  18.100  0.00  0.00    +0.000 C 
ATOM     30  C   UNL     1       0.955   2.634  19.050  0.00  0.00    +0.000 C 
ATOM     31  C   UNL     1       1.217   3.191  20.449  0.00  0.00    +0.000 C 
ATOM     32  C   UNL     1       2.256   4.271  20.184  0.00  0.00    +0.000 C 
ATOM     33  C   UNL     1       3.655   3.632  19.863  0.00  0.00    +0.000 C 
ATOM     34  N   UNL     1       1.606   4.899  19.004  0.00  0.00    +0.000 NA
ATOM     35  H   UNL     1       2.283   5.546  18.600  0.00  0.00    +0.000 HD
ENDBRANCH  23  27
ENDBRANCH  19  20
ENDBRANCH   1  19
TORSDOF 6
ENDMDL
MODEL 2
REMARK VINA RESULT:      -9.2      2.565     11.643
REMARK  Name = 
REMARK  7 active torsions:
REMARK  status: ('A' for Active; 'I' for Inactive)
REMARK    1  A    between atoms: C_1  and  C_2
REMARK    2  A    between atoms: C_6  and  N_7
REMARK    3  A    between atoms: C_8  and  C_9
REMARK    4  A    between atoms: N_11  and  C_12
REMARK    5  A    between atoms: C_12  and  C_13
REMARK    6  A    between atoms: C_13  and  C_14
REMARK    7  A    between atoms: C_17  and  N_18
REMARK                            x       y       z     vdW  Elec       q    Type
REMARK                         _______ _______ _______ _____ _____    ______ ____
ROOT
ATOM      1  C   UNL     1       7.774   8.736  17.475  0.00  0.00    +0.000 C 
ENDROOT
BRANCH   1   4
ATOM      2  C   UNL     1       6.616   6.608  17.101  0.00  0.00    +0.000 C 
ATOM      3  O   UNL     1       7.489   6.314  16.280  0.00  0.00    +0.000 OA
ATOM      4  N   UNL     1       6.690   7.818  17.780  0.00  0.00    +0.000 N 
ATOM      5  H   UNL     1       5.938   8.076  18.409  0.00  0.00    +0.000 HD
BRANCH   2  12
ATOM      6  C   UNL     1       0.439   2.875  19.315  0.00  0.00    +0.000 C 
ATOM      7  C   UNL     1       1.755   3.178  18.657  0.00  0.00    +0.000 A 
ATOM      8  C   UNL     1       2.434   2.172  17.978  0.00  0.00    +0.000 A 
ATOM      9  C   UNL     1       3.663   2.461  17.389  0.00  0.00    +0.000 A 
ATOM     10  C   UNL     1       4.181   3.768  17.508  0.00  0.00    +0.000 A 
ATOM     11  C   UNL     1       5.388   4.382  17.051  0.00  0.00    +0.000 A 
ATOM     12  C   UNL     1       5.496   5.724  17.396  0.00  0.00    +0.000 A 
ATOM     13  S   UNL     1       4.113   6.235  18.270  0.00  0.00    +0.000 S 
ATOM     14  C   UNL     1       3.401   4.687  18.203  0.00  0.00    +0.000 A 
ATOM     15  N   UNL     1       2.207   4.447  18.784  0.00  0.00    +0.000 NA
BRANCH  11  16
ATOM     16  N   UNL     1       6.336   3.720  16.350  0.00  0.00    +0.000 N 
ATOM     17  H   UNL     1       7.106   4.178  15.875  0.00  0.00    +0.000 HD
ATOM     18  H   UNL     1       6.172   2.755  16.048  0.00  0.00    +0.000 HD
ENDBRANCH  11  16
ENDBRANCH   2  12
ENDBRANCH   1   4
BRANCH   1  19
ATOM     19  C   UNL     1       8.656   9.109  18.666  0.00  0.00    +0.000 C 
BRANCH  19  20
ATOM     20  C   UNL     1       9.021  10.576  18.631  0.00  0.00    +0.000 A 
ATOM     21  C   UNL     1       8.632  11.393  17.566  0.00  0.00    +0.000 A 
ATOM     22  C   UNL     1       8.908  12.772  17.576  0.00  0.00    +0.000 A 
ATOM     23  C   UNL     1       9.608  13.376  18.632  0.00  0.00    +0.000 A 
ATOM     24  C   UNL     1       9.999  12.540  19.690  0.00  0.00    +0.000 A 
ATOM     25  C   UNL     1       9.701  11.175  19.691  0.00  0.00    +0.000 A 
ATOM     26  F   UNL     1      10.073  10.435  20.746  0.00  0.00    +0.000 F 
BRANCH  23  27
ATOM     27  N   UNL     1       9.933  14.734  18.681  0.00  0.00    +0.000 N 
ATOM     28  C   UNL     1       9.188  15.735  17.870  0.00  0.00    +0.000 C 
ATOM     29  C   UNL     1      10.086  16.371  16.762  0.00  0.00    +0.000 C 
ATOM     30  C   UNL     1      10.938  17.544  17.289  0.00  0.00    +0.000 C 
ATOM     31  C   UNL     1      12.333  16.947  17.465  0.00  0.00    +0.000 C 
ATOM     32  C   UNL     1      12.051  15.451  17.485  0.00  0.00    +0.000 C 
ATOM     33  C   UNL     1      11.384  15.027  18.843  0.00  0.00    +0.000 C 
ATOM     34  N   UNL     1      11.121  15.401  16.326  0.00  0.00    +0.000 NA
ATOM     35  H   UNL     1      10.704  14.470  16.320  0.00  0.00    +0.000 HD
ENDBRANCH  23  27
ENDBRANCH  19  20
ENDBRANCH   1  19
TORSDOF 6
ENDMDL
MODEL 3
REMARK VINA RESULT:      -8.8      2.547     11.428
REMARK  Name = 
REMARK  7 active torsions:
REMARK  status: ('A' for Active; 'I' for Inactive)
REMARK    1  A    between atoms: C_1  and  C_2
REMARK    2  A    between atoms: C_6  and  N_7
REMARK    3  A    between atoms: C_8  and  C_9
REMARK    4  A    between atoms: N_11  and  C_12
REMARK    5  A    between atoms: C_12  and  C_13
REMARK    6  A    between atoms: C_13  and  C_14
REMARK    7  A    between atoms: C_17  and  N_18
REMARK                            x       y       z     vdW  Elec       q    Type
REMARK                         _______ _______ _______ _____ _____    ______ ____
ROOT
ATOM      1  C   UNL     1       7.898   8.869  17.585  0.00  0.00    +0.000 C 
ENDROOT
BRANCH   1   4
ATOM      2  C   UNL     1       6.765   6.741  17.144  0.00  0.00    +0.000 C 
ATOM      3  O   UNL     1       7.657   6.470  16.334  0.00  0.00    +0.000 OA
ATOM      4  N   UNL     1       6.815   7.936  17.850  0.00  0.00    +0.000 N 
ATOM      5  H   UNL     1       6.049   8.175  18.468  0.00  0.00    +0.000 HD
BRANCH   2  12
ATOM      6  C   UNL     1       0.564   2.923  19.134  0.00  0.00    +0.000 C 
ATOM      7  C   UNL     1       1.898   3.244  18.523  0.00  0.00    +0.000 A 
ATOM      8  C   UNL     1       2.611   2.250  17.863  0.00  0.00    +0.000 A 
ATOM      9  C   UNL     1       3.855   2.557  17.317  0.00  0.00    +0.000 A 
ATOM     10  C   UNL     1       4.353   3.869  17.458  0.00  0.00    +0.000 A 
ATOM     11  C   UNL     1       5.567   4.500  17.044  0.00  0.00    +0.000 A 
ATOM     12  C   UNL     1       5.647   5.841  17.398  0.00  0.00    +0.000 A 
ATOM     13  S   UNL     1       4.229   6.332  18.227  0.00  0.00    +0.000 S 
ATOM     14  C   UNL     1       3.539   4.776  18.130  0.00  0.00    +0.000 A 
ATOM     15  N   UNL     1       2.329   4.519  18.670  0.00  0.00    +0.000 NA
BRANCH  11  16
ATOM     16  N   UNL     1       6.546   3.852  16.373  0.00  0.00    +0.000 N 
ATOM     17  H   UNL     1       7.491   3.743  16.724  0.00  0.00    +0.000 HD
ATOM     18  H   UNL     1       6.450   3.672  15.369  0.00  0.00    +0.000 HD
ENDBRANCH  11  16
ENDBRANCH   2  12
ENDBRANCH   1   4
BRANCH   1  19
ATOM     19  C   UNL     1       8.879   9.060  18.741  0.00  0.00    +0.000 C 
BRANCH  19  20
ATOM     20  C   UNL     1       9.262  10.515  18.892  0.00  0.00    +0.000 A 
ATOM     21  C   UNL     1       9.422  11.340  17.775  0.00  0.00    +0.000 A 
ATOM     22  C   UNL     1       9.703  12.710  17.925  0.00  0.00    +0.000 A 
ATOM     23  C   UNL     1       9.863  13.296  19.190  0.00  0.00    +0.000 A 
ATOM     24  C   UNL     1       9.706  12.452  20.301  0.00  0.00    +0.000 A 
ATOM     25  C   UNL     1       9.402  11.097  20.151  0.00  0.00    +0.000 A 
ATOM     26  F   UNL     1       9.232  10.350  21.252  0.00  0.00    +0.000 F 
BRANCH  23  27
ATOM     27  N   UNL     1      10.169  14.644  19.396  0.00  0.00    +0.000 N 
ATOM     28  C   UNL     1       9.292  15.516  20.223  0.00  0.00    +0.000 C 
ATOM     29  C   UNL     1       8.598  16.623  19.367  0.00  0.00    +0.000 C 
ATOM     30  C   UNL     1       9.496  17.858  19.150  0.00  0.00    +0.000 C 
ATOM     31  C   UNL     1      10.021  17.697  17.725  0.00  0.00    +0.000 C 
ATOM     32  C   UNL     1       9.777  16.220  17.449  0.00  0.00    +0.000 C 
ATOM     33  C   UNL     1      10.803  15.328  18.236  0.00  0.00    +0.000 C 
ATOM     34  N   UNL     1       8.391  16.137  17.980  0.00  0.00    +0.000 NA
ATOM     35  H   UNL     1       8.146  15.148  18.020  0.00  0.00    +0.000 HD
ENDBRANCH  23  27
ENDBRANCH  19  20
ENDBRANCH   1  19
TORSDOF 6
ENDMDL
MODEL 4
REMARK VINA RESULT:      -8.8      8.041     11.106
REMARK  Name = 
REMARK  7 active torsions:
REMARK  status: ('A' for Active; 'I' for Inactive)
REMARK    1  A    between atoms: C_1  and  C_2
REMARK    2  A    between atoms: C_6  and  N_7
REMARK    3  A    between atoms: C_8  and  C_9
REMARK    4  A    between atoms: N_11  and  C_12
REMARK    5  A    between atoms: C_12  and  C_13
REMARK    6  A    between atoms: C_13  and  C_14
REMARK    7  A    between atoms: C_17  and  N_18
REMARK                            x       y       z     vdW  Elec       q    Type
REMARK                         _______ _______ _______ _____ _____    ______ ____
ROOT
ATOM      1  C   UNL     1      -0.181  10.725  18.386  0.00  0.00    +0.000 C 
ENDROOT
BRANCH   1   4
ATOM      2  C   UNL     1      -1.832  12.250  19.365  0.00  0.00    +0.000 C 
ATOM      3  O   UNL     1      -1.153  13.197  18.958  0.00  0.00    +0.000 OA
ATOM      4  N   UNL     1      -1.427  10.948  19.101  0.00  0.00    +0.000 N 
ATOM      5  H   UNL     1      -1.959  10.178  19.491  0.00  0.00    +0.000 HD
BRANCH   2  12
ATOM      6  C   UNL     1      -7.546  13.139  24.219  0.00  0.00    +0.000 C 
ATOM      7  C   UNL     1      -6.789  12.976  22.931  0.00  0.00    +0.000 A 
ATOM      8  C   UNL     1      -7.485  12.877  21.732  0.00  0.00    +0.000 A 
ATOM      9  C   UNL     1      -6.771  12.707  20.547  0.00  0.00    +0.000 A 
ATOM     10  C   UNL     1      -5.363  12.634  20.607  0.00  0.00    +0.000 A 
ATOM     11  C   UNL     1      -4.355  12.452  19.611  0.00  0.00    +0.000 A 
ATOM     12  C   UNL     1      -3.063  12.445  20.122  0.00  0.00    +0.000 A 
ATOM     13  S   UNL     1      -3.084  12.673  21.820  0.00  0.00    +0.000 S 
ATOM     14  C   UNL     1      -4.786  12.757  21.867  0.00  0.00    +0.000 A 
ATOM     15  N   UNL     1      -5.441  12.926  23.035  0.00  0.00    +0.000 NA
BRANCH  11  16
ATOM     16  N   UNL     1      -4.632  12.300  18.296  0.00  0.00    +0.000 N 
ATOM     17  H   UNL     1      -4.081  12.717  17.553  0.00  0.00    +0.000 HD
ATOM     18  H   UNL     1      -5.558  11.978  17.999  0.00  0.00    +0.000 HD
ENDBRANCH  11  16
ENDBRANCH   2  12
ENDBRANCH   1   4
BRANCH   1  19
ATOM     19  C   UNL     1       1.043  10.515  19.277  0.00  0.00    +0.000 C 
BRANCH  19  20
ATOM     20  C   UNL     1       1.567   9.103  19.151  0.00  0.00    +0.000 A 
ATOM     21  C   UNL     1       2.226   8.676  17.994  0.00  0.00    +0.000 A 
ATOM     22  C   UNL     1       2.778   7.385  17.913  0.00  0.00    +0.000 A 
ATOM     23  C   UNL     1       2.666   6.467  18.970  0.00  0.00    +0.000 A 
ATOM     24  C   UNL     1       1.995   6.909  20.121  0.00  0.00    +0.000 A 
ATOM     25  C   UNL     1       1.470   8.200  20.210  0.00  0.00    +0.000 A 
ATOM     26  F   UNL     1       0.869   8.574  21.349  0.00  0.00    +0.000 F 
BRANCH  23  27
ATOM     27  N   UNL     1       3.171   5.165  18.933  0.00  0.00    +0.000 N 
ATOM     28  C   UNL     1       3.595   4.539  17.651  0.00  0.00    +0.000 C 
ATOM     29  C   UNL     1       2.671   3.344  17.253  0.00  0.00    +0.000 C 
ATOM     30  C   UNL     1       3.073   2.026  17.944  0.00  0.00    +0.000 C 
ATOM     31  C   UNL     1       2.058   1.867  19.075  0.00  0.00    +0.000 C 
ATOM     32  C   UNL     1       1.503   3.277  19.218  0.00  0.00    +0.000 C 
ATOM     33  C   UNL     1       2.553   4.224  19.905  0.00  0.00    +0.000 C 
ATOM     34  N   UNL     1       1.299   3.568  17.775  0.00  0.00    +0.000 NA
ATOM     35  H   UNL     1       1.086   4.562  17.698  0.00  0.00    +0.000 HD
ENDBRANCH  23  27
ENDBRANCH  19  20
ENDBRANCH   1  19
TORSDOF 6
ENDMDL
MODEL 5
REMARK VINA RESULT:      -8.6      2.486     11.705
REMARK  Name = 
REMARK  7 active torsions:
REMARK  status: ('A' for Active; 'I' for Inactive)
REMARK    1  A    between atoms: C_1  and  C_2
REMARK    2  A    between atoms: C_6  and  N_7
REMARK    3  A    between atoms: C_8  and  C_9
REMARK    4  A    between atoms: N_11  and  C_12
REMARK    5  A    between atoms: C_12  and  C_13
REMARK    6  A    between atoms: C_13  and  C_14
REMARK    7  A    between atoms: C_17  and  N_18
REMARK                            x       y       z     vdW  Elec       q    Type
REMARK                         _______ _______ _______ _____ _____    ______ ____
ROOT
ATOM      1  C   UNL     1       8.312   9.203  17.538  0.00  0.00    +0.000 C 
ENDROOT
BRANCH   1   4
ATOM      2  C   UNL     1       7.069   7.098  17.352  0.00  0.00    +0.000 C 
ATOM      3  O   UNL     1       7.797   6.789  16.404  0.00  0.00    +0.000 OA
ATOM      4  N   UNL     1       7.271   8.305  18.010  0.00  0.00    +0.000 N 
ATOM      5  H   UNL     1       6.632   8.577  18.748  0.00  0.00    +0.000 HD
BRANCH   2  12
ATOM      6  C   UNL     1       0.824   3.569  19.708  0.00  0.00    +0.000 C 
ATOM      7  C   UNL     1       2.261   3.827  19.353  0.00  0.00    +0.000 A 
ATOM      8  C   UNL     1       3.217   2.845  19.592  0.00  0.00    +0.000 A 
ATOM      9  C   UNL     1       4.549   3.105  19.276  0.00  0.00    +0.000 A 
ATOM     10  C   UNL     1       4.884   4.361  18.728  0.00  0.00    +0.000 A 
ATOM     11  C   UNL     1       6.122   4.944  18.316  0.00  0.00    +0.000 A 
ATOM     12  C   UNL     1       5.991   6.235  17.819  0.00  0.00    +0.000 A 
ATOM     13  S   UNL     1       4.350   6.729  17.846  0.00  0.00    +0.000 S 
ATOM     14  C   UNL     1       3.835   5.253  18.527  0.00  0.00    +0.000 A 
ATOM     15  N   UNL     1       2.534   5.039  18.817  0.00  0.00    +0.000 NA
BRANCH  11  16
ATOM     16  N   UNL     1       7.308   4.301  18.403  0.00  0.00    +0.000 N 
ATOM     17  H   UNL     1       8.192   4.771  18.572  0.00  0.00    +0.000 HD
ATOM     18  H   UNL     1       7.405   3.347  18.043  0.00  0.00    +0.000 HD
ENDBRANCH  11  16
ENDBRANCH   2  12
ENDBRANCH   1   4
BRANCH   1  19
ATOM     19  C   UNL     1       9.085   9.927  18.640  0.00  0.00    +0.000 C 
BRANCH  19  20
ATOM     20  C   UNL     1       9.405  11.347  18.232  0.00  0.00    +0.000 A 
ATOM     21  C   UNL     1       8.397  12.306  18.097  0.00  0.00    +0.000 A 
ATOM     22  C   UNL     1       8.709  13.643  17.792  0.00  0.00    +0.000 A 
ATOM     23  C   UNL     1      10.032  14.062  17.583  0.00  0.00    +0.000 A 
ATOM     24  C   UNL     1      11.032  13.086  17.715  0.00  0.00    +0.000 A 
ATOM     25  C   UNL     1      10.723  11.764  18.043  0.00  0.00    +0.000 A 
ATOM     26  F   UNL     1      11.725  10.884  18.187  0.00  0.00    +0.000 F 
BRANCH  23  27
ATOM     27  N   UNL     1      10.396  15.370  17.251  0.00  0.00    +0.000 N 
ATOM     28  C   UNL     1      11.823  15.790  17.222  0.00  0.00    +0.000 C 
ATOM     29  C   UNL     1      12.147  16.828  18.344  0.00  0.00    +0.000 C 
ATOM     30  C   UNL     1      11.792  18.272  17.938  0.00  0.00    +0.000 C 
ATOM     31  C   UNL     1      10.476  18.554  18.662  0.00  0.00    +0.000 C 
ATOM     32  C   UNL     1       9.982  17.156  19.003  0.00  0.00    +0.000 C 
ATOM     33  C   UNL     1       9.452  16.421  17.719  0.00  0.00    +0.000 C 
ATOM     34  N   UNL     1      11.263  16.603  19.515  0.00  0.00    +0.000 NA
ATOM     35  H   UNL     1      11.130  15.598  19.627  0.00  0.00    +0.000 HD
ENDBRANCH  23  27
ENDBRANCH  19  20
ENDBRANCH   1  19
TORSDOF 6
ENDMDL
MODEL 6
REMARK VINA RESULT:      -8.6      2.667     11.649
REMARK  Name = 
REMARK  7 active torsions:
REMARK  status: ('A' for Active; 'I' for Inactive)
REMARK    1  A    between atoms: C_1  and  C_2
REMARK    2  A    between atoms: C_6  and  N_7
REMARK    3  A    between atoms: C_8  and  C_9
REMARK    4  A    between atoms: N_11  and  C_12
REMARK    5  A    between atoms: C_12  and  C_13
REMARK    6  A    between atoms: C_13  and  C_14
REMARK    7  A    between atoms: C_17  and  N_18
REMARK                            x       y       z     vdW  Elec       q    Type
REMARK                         _______ _______ _______ _____ _____    ______ ____
ROOT
ATOM      1  C   UNL     1       8.206   8.885  17.672  0.00  0.00    +0.000 C 
ENDROOT
BRANCH   1   4
ATOM      2  C   UNL     1       6.910   6.827  17.365  0.00  0.00    +0.000 C 
ATOM      3  O   UNL     1       7.727   6.477  16.509  0.00  0.00    +0.000 OA
ATOM      4  N   UNL     1       7.084   8.034  18.032  0.00  0.00    +0.000 N 
ATOM      5  H   UNL     1       6.377   8.339  18.690  0.00  0.00    +0.000 HD
BRANCH   2  12
ATOM      6  C   UNL     1       1.688   1.803  19.484  0.00  0.00    +0.000 C 
ATOM      7  C   UNL     1       2.316   3.044  18.916  0.00  0.00    +0.000 A 
ATOM      8  C   UNL     1       1.517   4.002  18.301  0.00  0.00    +0.000 A 
ATOM      9  C   UNL     1       2.115   5.139  17.762  0.00  0.00    +0.000 A 
ATOM     10  C   UNL     1       3.516   5.277  17.853  0.00  0.00    +0.000 A 
ATOM     11  C   UNL     1       4.426   6.282  17.403  0.00  0.00    +0.000 A 
ATOM     12  C   UNL     1       5.753   6.012  17.715  0.00  0.00    +0.000 A 
ATOM     13  S   UNL     1       5.883   4.532  18.569  0.00  0.00    +0.000 S 
ATOM     14  C   UNL     1       4.202   4.255  18.502  0.00  0.00    +0.000 A 
ATOM     15  N   UNL     1       3.660   3.141  19.039  0.00  0.00    +0.000 NA
BRANCH  11  16
ATOM     16  N   UNL     1       4.034   7.391  16.735  0.00  0.00    +0.000 N 
ATOM     17  H   UNL     1       4.461   8.303  16.859  0.00  0.00    +0.000 HD
ATOM     18  H   UNL     1       3.121   7.416  16.272  0.00  0.00    +0.000 HD
ENDBRANCH  11  16
ENDBRANCH   2  12
ENDBRANCH   1   4
BRANCH   1  19
ATOM     19  C   UNL     1       9.102   9.294  18.841  0.00  0.00    +0.000 C 
BRANCH  19  20
ATOM     20  C   UNL     1       9.386  10.779  18.810  0.00  0.00    +0.000 A 
ATOM     21  C   UNL     1       9.218  11.524  17.639  0.00  0.00    +0.000 A 
ATOM     22  C   UNL     1       9.409  12.917  17.637  0.00  0.00    +0.000 A 
ATOM     23  C   UNL     1       9.804  13.609  18.793  0.00  0.00    +0.000 A 
ATOM     24  C   UNL     1       9.976  12.846  19.958  0.00  0.00    +0.000 A 
ATOM     25  C   UNL     1       9.760  11.466  19.965  0.00  0.00    +0.000 A 
ATOM     26  F   UNL     1       9.909  10.796  21.118  0.00  0.00    +0.000 F 
BRANCH  23  27
ATOM     27  N   UNL     1      10.035  14.987  18.840  0.00  0.00    +0.000 N 
ATOM     28  C   UNL     1       9.224  15.933  18.027  0.00  0.00    +0.000 C 
ATOM     29  C   UNL     1      10.079  16.629  16.920  0.00  0.00    +0.000 C 
ATOM     30  C   UNL     1      10.847  17.858  17.447  0.00  0.00    +0.000 C 
ATOM     31  C   UNL     1      12.280  17.358  17.627  0.00  0.00    +0.000 C 
ATOM     32  C   UNL     1      12.101  15.847  17.648  0.00  0.00    +0.000 C 
ATOM     33  C   UNL     1      11.461  15.379  19.005  0.00  0.00    +0.000 C 
ATOM     34  N   UNL     1      11.179  15.731  16.488  0.00  0.00    +0.000 NA
ATOM     35  H   UNL     1      10.827  14.774  16.481  0.00  0.00    +0.000 HD
ENDBRANCH  23  27
ENDBRANCH  19  20
ENDBRANCH   1  19
TORSDOF 6
ENDMDL
MODEL 7
REMARK VINA RESULT:      -8.6      7.950     11.061
REMARK  Name = 
REMARK  7 active torsions:
REMARK  status: ('A' for Active; 'I' for Inactive)
REMARK    1  A    between atoms: C_1  and  C_2
REMARK    2  A    between atoms: C_6  and  N_7
REMARK    3  A    between atoms: C_8  and  C_9
REMARK    4  A    between atoms: N_11  and  C_12
REMARK    5  A    between atoms: C_12  and  C_13
REMARK    6  A    between atoms: C_13  and  C_14
REMARK    7  A    between atoms: C_17  and  N_18
REMARK                            x       y       z     vdW  Elec       q    Type
REMARK                         _______ _______ _______ _____ _____    ______ ____
ROOT
ATOM      1  C   UNL     1      -0.198  10.499  18.280  0.00  0.00    +0.000 C 
ENDROOT
BRANCH   1   4
ATOM      2  C   UNL     1      -1.808  12.089  19.222  0.00  0.00    +0.000 C 
ATOM      3  O   UNL     1      -1.127  13.006  18.755  0.00  0.00    +0.000 OA
ATOM      4  N   UNL     1      -1.424  10.770  19.012  0.00  0.00    +0.000 N 
ATOM      5  H   UNL     1      -1.956  10.027  19.449  0.00  0.00    +0.000 HD
BRANCH   2  12
ATOM      6  C   UNL     1      -7.411  13.220  24.155  0.00  0.00    +0.000 C 
ATOM      7  C   UNL     1      -6.680  13.022  22.857  0.00  0.00    +0.000 A 
ATOM      8  C   UNL     1      -7.396  12.946  21.668  0.00  0.00    +0.000 A 
ATOM      9  C   UNL     1      -6.708  12.743  20.473  0.00  0.00    +0.000 A 
ATOM     10  C   UNL     1      -5.303  12.616  20.513  0.00  0.00    +0.000 A 
ATOM     11  C   UNL     1      -4.317  12.391  19.504  0.00  0.00    +0.000 A 
ATOM     12  C   UNL     1      -3.019  12.335  19.995  0.00  0.00    +0.000 A 
ATOM     13  S   UNL     1      -3.007  12.570  21.693  0.00  0.00    +0.000 S 
ATOM     14  C   UNL     1      -4.703  12.721  21.764  0.00  0.00    +0.000 A 
ATOM     15  N   UNL     1      -5.333  12.920  22.941  0.00  0.00    +0.000 NA
BRANCH  11  16
ATOM     16  N   UNL     1      -4.619  12.244  18.194  0.00  0.00    +0.000 N 
ATOM     17  H   UNL     1      -5.352  12.765  17.724  0.00  0.00    +0.000 HD
ATOM     18  H   UNL     1      -4.301  11.416  17.681  0.00  0.00    +0.000 HD
ENDBRANCH  11  16
ENDBRANCH   2  12
ENDBRANCH   1   4
BRANCH   1  19
ATOM     19  C   UNL     1       1.067  10.456  19.138  0.00  0.00    +0.000 C 
BRANCH  19  20
ATOM     20  C   UNL     1       1.555   9.036  19.311  0.00  0.00    +0.000 A 
ATOM     21  C   UNL     1       1.353   8.342  20.509  0.00  0.00    +0.000 A 
ATOM     22  C   UNL     1       1.742   6.997  20.637  0.00  0.00    +0.000 A 
ATOM     23  C   UNL     1       2.371   6.308  19.588  0.00  0.00    +0.000 A 
ATOM     24  C   UNL     1       2.573   7.020  18.396  0.00  0.00    +0.000 A 
ATOM     25  C   UNL     1       2.163   8.349  18.261  0.00  0.00    +0.000 A 
ATOM     26  F   UNL     1       2.355   8.966  17.086  0.00  0.00    +0.000 F 
BRANCH  23  27
ATOM     27  N   UNL     1       2.801   4.980  19.671  0.00  0.00    +0.000 N 
ATOM     28  C   UNL     1       3.800   4.433  18.713  0.00  0.00    +0.000 C 
ATOM     29  C   UNL     1       3.178   3.342  17.785  0.00  0.00    +0.000 C 
ATOM     30  C   UNL     1       3.153   1.946  18.441  0.00  0.00    +0.000 C 
ATOM     31  C   UNL     1       1.704   1.768  18.892  0.00  0.00    +0.000 C 
ATOM     32  C   UNL     1       1.179   3.196  18.887  0.00  0.00    +0.000 C 
ATOM     33  C   UNL     1       1.760   4.008  20.101  0.00  0.00    +0.000 C 
ATOM     34  N   UNL     1       1.734   3.616  17.574  0.00  0.00    +0.000 NA
ATOM     35  H   UNL     1       1.607   4.626  17.506  0.00  0.00    +0.000 HD
ENDBRANCH  23  27
ENDBRANCH  19  20
ENDBRANCH   1  19
TORSDOF 6
ENDMDL
MODEL 8
REMARK VINA RESULT:      -8.5      2.504     11.568
REMARK  Name = 
REMARK  7 active torsions:
REMARK  status: ('A' for Active; 'I' for Inactive)
REMARK    1  A    between atoms: C_1  and  C_2
REMARK    2  A    between atoms: C_6  and  N_7
REMARK    3  A    between atoms: C_8  and  C_9
REMARK    4  A    between atoms: N_11  and  C_12
REMARK    5  A    between atoms: C_12  and  C_13
REMARK    6  A    between atoms: C_13  and  C_14
REMARK    7  A    between atoms: C_17  and  N_18
REMARK                            x       y       z     vdW  Elec       q    Type
REMARK                         _______ _______ _______ _____ _____    ______ ____
ROOT
ATOM      1  C   UNL     1       8.151   9.202  17.800  0.00  0.00    +0.000 C 
ENDROOT
BRANCH   1   4
ATOM      2  C   UNL     1       7.006   7.087  17.332  0.00  0.00    +0.000 C 
ATOM      3  O   UNL     1       7.817   6.885  16.424  0.00  0.00    +0.000 OA
ATOM      4  N   UNL     1       7.110   8.235  18.106  0.00  0.00    +0.000 N 
ATOM      5  H   UNL     1       6.405   8.421  18.810  0.00  0.00    +0.000 HD
BRANCH   2  12
ATOM      6  C   UNL     1       0.718   3.163  18.770  0.00  0.00    +0.000 C 
ATOM      7  C   UNL     1       2.172   3.505  18.607  0.00  0.00    +0.000 A 
ATOM      8  C   UNL     1       3.142   2.564  18.934  0.00  0.00    +0.000 A 
ATOM      9  C   UNL     1       4.487   2.901  18.796  0.00  0.00    +0.000 A 
ATOM     10  C   UNL     1       4.819   4.193  18.334  0.00  0.00    +0.000 A 
ATOM     11  C   UNL     1       6.065   4.853  18.100  0.00  0.00    +0.000 A 
ATOM     12  C   UNL     1       5.927   6.154  17.632  0.00  0.00    +0.000 A 
ATOM     13  S   UNL     1       4.271   6.563  17.467  0.00  0.00    +0.000 S 
ATOM     14  C   UNL     1       3.756   5.039  18.031  0.00  0.00    +0.000 A 
ATOM     15  N   UNL     1       2.443   4.749  18.148  0.00  0.00    +0.000 NA
BRANCH  11  16
ATOM     16  N   UNL     1       7.264   4.267  18.316  0.00  0.00    +0.000 N 
ATOM     17  H   UNL     1       7.872   4.500  19.094  0.00  0.00    +0.000 HD
ATOM     18  H   UNL     1       7.729   3.753  17.562  0.00  0.00    +0.000 HD
ENDBRANCH  11  16
ENDBRANCH   2  12
ENDBRANCH   1   4
BRANCH   1  19
ATOM     19  C   UNL     1       9.116   9.493  18.950  0.00  0.00    +0.000 C 
BRANCH  19  20
ATOM     20  C   UNL     1       9.409  10.973  19.049  0.00  0.00    +0.000 A 
ATOM     21  C   UNL     1       8.904  11.741  20.102  0.00  0.00    +0.000 A 
ATOM     22  C   UNL     1       9.243  13.100  20.230  0.00  0.00    +0.000 A 
ATOM     23  C   UNL     1      10.071  13.745  19.298  0.00  0.00    +0.000 A 
ATOM     24  C   UNL     1      10.563  12.961  18.243  0.00  0.00    +0.000 A 
ATOM     25  C   UNL     1      10.247  11.605  18.131  0.00  0.00    +0.000 A 
ATOM     26  F   UNL     1      10.775  10.902  17.118  0.00  0.00    +0.000 F 
BRANCH  23  27
ATOM     27  N   UNL     1      10.417  15.098  19.362  0.00  0.00    +0.000 N 
ATOM     28  C   UNL     1       9.383  16.150  19.551  0.00  0.00    +0.000 C 
ATOM     29  C   UNL     1       9.242  17.061  18.291  0.00  0.00    +0.000 C 
ATOM     30  C   UNL     1      10.285  18.197  18.260  0.00  0.00    +0.000 C 
ATOM     31  C   UNL     1      11.335  17.718  17.259  0.00  0.00    +0.000 C 
ATOM     32  C   UNL     1      11.059  16.223  17.183  0.00  0.00    +0.000 C 
ATOM     33  C   UNL     1      11.552  15.497  18.486  0.00  0.00    +0.000 C 
ATOM     34  N   UNL     1       9.579  16.292  17.067  0.00  0.00    +0.000 NA
ATOM     35  H   UNL     1       9.227  15.341  17.180  0.00  0.00    +0.000 HD
ENDBRANCH  23  27
ENDBRANCH  19  20
ENDBRANCH   1  19
TORSDOF 6
ENDMDL
MODEL 9
REMARK VINA RESULT:      -8.5      1.290      1.611
REMARK  Name = 
REMARK  7 active torsions:
REMARK  status: ('A' for Active; 'I' for Inactive)
REMARK    1  A    between atoms: C_1  and  C_2
REMARK    2  A    between atoms: C_6  and  N_7
REMARK    3  A    between atoms: C_8  and  C_9
REMARK    4  A    between atoms: N_11  and  C_12
REMARK    5  A    between atoms: C_12  and  C_13
REMARK    6  A    between atoms: C_13  and  C_14
REMARK    7  A    between atoms: C_17  and  N_18
REMARK                            x       y       z     vdW  Elec       q    Type
REMARK                         _______ _______ _______ _____ _____    ______ ____
ROOT
ATOM      1  C   UNL     1       8.551   8.664  18.453  0.00  0.00    +0.000 C 
ENDROOT
BRANCH   1   4
ATOM      2  C   UNL     1       9.376  10.856  19.176  0.00  0.00    +0.000 C 
ATOM      3  O   UNL     1       9.322  10.457  20.343  0.00  0.00    +0.000 OA
ATOM      4  N   UNL     1       9.023  10.002  18.139  0.00  0.00    +0.000 N 
ATOM      5  H   UNL     1       9.015  10.357  17.190  0.00  0.00    +0.000 HD
BRANCH   2  12
ATOM      6  C   UNL     1      12.333  17.747  18.299  0.00  0.00    +0.000 C 
ATOM      7  C   UNL     1      11.445  16.550  18.115  0.00  0.00    +0.000 A 
ATOM      8  C   UNL     1      10.371  16.617  17.235  0.00  0.00    +0.000 A 
ATOM      9  C   UNL     1       9.543  15.506  17.089  0.00  0.00    +0.000 A 
ATOM     10  C   UNL     1       9.821  14.348  17.847  0.00  0.00    +0.000 A 
ATOM     11  C   UNL     1       9.182  13.074  17.948  0.00  0.00    +0.000 A 
ATOM     12  C   UNL     1       9.806  12.207  18.836  0.00  0.00    +0.000 A 
ATOM     13  S   UNL     1      11.183  12.949  19.537  0.00  0.00    +0.000 S 
ATOM     14  C   UNL     1      10.931  14.403  18.684  0.00  0.00    +0.000 A 
ATOM     15  N   UNL     1      11.757  15.458  18.851  0.00  0.00    +0.000 NA
BRANCH  11  16
ATOM     16  N   UNL     1       8.073  12.745  17.247  0.00  0.00    +0.000 N 
ATOM     17  H   UNL     1       7.130  12.962  17.551  0.00  0.00    +0.000 HD
ATOM     18  H   UNL     1       8.122  12.033  16.512  0.00  0.00    +0.000 HD
ENDBRANCH  11  16
ENDBRANCH   2  12
ENDBRANCH   1   4
BRANCH   1  19
ATOM     19  C   UNL     1       7.823   7.954  17.312  0.00  0.00    +0.000 C 
BRANCH  19  20
ATOM     20  C   UNL     1       6.776   7.004  17.847  0.00  0.00    +0.000 A 
ATOM     21  C   UNL     1       5.454   7.054  17.394  0.00  0.00    +0.000 A 
ATOM     22  C   UNL     1       4.503   6.118  17.838  0.00  0.00    +0.000 A 
ATOM     23  C   UNL     1       4.830   5.122  18.772  0.00  0.00    +0.000 A 
ATOM     24  C   UNL     1       6.158   5.090  19.223  0.00  0.00    +0.000 A 
ATOM     25  C   UNL     1       7.108   6.004  18.760  0.00  0.00    +0.000 A 
ATOM     26  F   UNL     1       8.370   5.902  19.204  0.00  0.00    +0.000 F 
BRANCH  23  27
ATOM     27  N   UNL     1       3.919   4.185  19.268  0.00  0.00    +0.000 N 
ATOM     28  C   UNL     1       4.096   2.729  19.016  0.00  0.00    +0.000 C 
ATOM     29  C   UNL     1       2.972   2.156  18.095  0.00  0.00    +0.000 C 
ATOM     30  C   UNL     1       1.693   1.790  18.875  0.00  0.00    +0.000 C 
ATOM     31  C   UNL     1       0.735   2.945  18.591  0.00  0.00    +0.000 C 
ATOM     32  C   UNL     1       1.673   4.038  18.100  0.00  0.00    +0.000 C 
ATOM     33  C   UNL     1       2.502   4.640  19.292  0.00  0.00    +0.000 C 
ATOM     34  N   UNL     1       2.486   3.211  17.171  0.00  0.00    +0.000 NA
ATOM     35  H   UNL     1       3.283   3.780  16.886  0.00  0.00    +0.000 HD
ENDBRANCH  23  27
ENDBRANCH  19  20
ENDBRANCH   1  19
TORSDOF 6
ENDMDL
