MODEL 1
REMARK VINA RESULT:      -7.9      0.000      0.000
REMARK  Name = 
REMARK  4 active torsions:
REMARK  status: ('A' for Active; 'I' for Inactive)
REMARK    1  A    between atoms: C_1  and  O_2
REMARK    2  A    between atoms: O_2  and  C_3
REMARK    3  A    between atoms: N_6  and  N_7
REMARK    4  A    between atoms: C_8  and  C_9
REMARK                            x       y       z     vdW  Elec       q    Type
REMARK                         _______ _______ _______ _____ _____    ______ ____
ROOT
ATOM      1  C   UNL     1      -0.789  11.692  22.338  0.00  0.00    +0.000 A 
ATOM      2  N   UNL     1       0.139  10.783  22.599  0.00  0.00    +0.000 NA
ATOM      3  C   UNL     1       0.315   9.894  21.629  0.00  0.00    +0.000 A 
ATOM      4  N   UNL     1       1.263   8.889  21.839  0.00  0.00    +0.000 N 
ATOM      5  N   UNL     1      -0.338   9.937  20.470  0.00  0.00    +0.000 NA
ATOM      6  C   UNL     1      -1.147  10.956  20.253  0.00  0.00    +0.000 A 
ATOM      7  N   UNL     1      -1.685  11.118  18.999  0.00  0.00    +0.000 N 
ATOM      8  C   UNL     1      -2.506  12.268  18.652  0.00  0.00    +0.000 C 
ATOM      9  C   UNL     1      -3.909  11.799  18.242  0.00  0.00    +0.000 C 
ATOM     10  O   UNL     1      -3.851  10.799  17.210  0.00  0.00    +0.000 OA
ATOM     11  C   UNL     1      -3.116   9.652  17.669  0.00  0.00    +0.000 C 
ATOM     12  C   UNL     1      -1.669  10.016  18.039  0.00  0.00    +0.000 C 
ATOM     13  N   UNL     1      -1.427  11.855  21.190  0.00  0.00    +0.000 NA
ATOM     14  H   UNL     1       1.954   9.104  22.545  0.00  0.00    +0.000 HD
ENDROOT
BRANCH   1  16
ATOM     15  C   UNL     1      -2.565  12.588  23.569  0.00  0.00    +0.000 C 
ATOM     16  O   UNL     1      -1.167  12.592  23.311  0.00  0.00    +0.000 OA
ENDBRANCH   1  16
BRANCH   4  17
ATOM     17  N   UNL     1       1.163   7.715  21.165  0.00  0.00    +0.000 NA
ATOM     18  C   UNL     1       2.180   7.377  20.439  0.00  0.00    +0.000 C 
BRANCH  18  19
ATOM     19  C   UNL     1       2.166   6.097  19.691  0.00  0.00    +0.000 A 
ATOM     20  C   UNL     1       1.537   4.991  20.289  0.00  0.00    +0.000 A 
ATOM     21  C   UNL     1       1.473   3.811  19.587  0.00  0.00    +0.000 A 
ATOM     22  C   UNL     1       2.013   3.694  18.326  0.00  0.00    +0.000 A 
ATOM     23  C   UNL     1       2.662   4.739  17.718  0.00  0.00    +0.000 A 
ATOM     24  C   UNL     1       2.746   5.961  18.404  0.00  0.00    +0.000 A 
ATOM     25 BR   UNL     1       3.664   7.373  17.528  0.00  0.00    +0.000 Br
ATOM     26  O   UNL     1       1.821   2.454  17.801  0.00  0.00    +0.000 OA
ATOM     27  C   UNL     1       1.039   1.832  18.841  0.00  0.00    +0.000 C 
ATOM     28  O   UNL     1       0.887   2.665  20.009  0.00  0.00    +0.000 OA
ENDBRANCH  18  19
ENDBRANCH   4  17
TORSDOF 3
ENDMDL
MODEL 2
REMARK VINA RESULT:      -7.7      2.805      3.879
REMARK  Name = 
REMARK  4 active torsions:
REMARK  status: ('A' for Active; 'I' for Inactive)
REMARK    1  A    between atoms: C_1  and  O_2
REMARK    2  A    between atoms: O_2  and  C_3
REMARK    3  A    between atoms: N_6  and  N_7
REMARK    4  A    between atoms: C_8  and  C_9
REMARK                            x       y       z     vdW  Elec       q    Type
REMARK                         _______ _______ _______ _____ _____    ______ ____
ROOT
ATOM      1  C   UNL     1       1.947  12.416  18.458  0.00  0.00    +0.000 A 
ATOM      2  N   UNL     1       2.365  11.377  17.751  0.00  0.00    +0.000 NA
ATOM      3  C   UNL     1       1.918  10.207  18.190  0.00  0.00    +0.000 A 
ATOM      4  N   UNL     1       2.332   9.060  17.508  0.00  0.00    +0.000 N 
ATOM      5  N   UNL     1       1.077  10.083  19.215  0.00  0.00    +0.000 NA
ATOM      6  C   UNL     1       0.615  11.186  19.773  0.00  0.00    +0.000 A 
ATOM      7  N   UNL     1      -0.390  11.085  20.704  0.00  0.00    +0.000 N 
ATOM      8  C   UNL     1      -1.020  12.257  21.292  0.00  0.00    +0.000 C 
ATOM      9  C   UNL     1      -0.799  12.257  22.811  0.00  0.00    +0.000 C 
ATOM     10  O   UNL     1      -1.218  11.016  23.407  0.00  0.00    +0.000 OA
ATOM     11  C   UNL     1      -0.473   9.921  22.849  0.00  0.00    +0.000 C 
ATOM     12  C   UNL     1      -0.689   9.800  21.333  0.00  0.00    +0.000 C 
ATOM     13  N   UNL     1       1.056  12.393  19.435  0.00  0.00    +0.000 NA
ATOM     14  H   UNL     1       2.658   9.226  16.565  0.00  0.00    +0.000 HD
ENDROOT
BRANCH   1  16
ATOM     15  C   UNL     1       2.903  14.354  19.355  0.00  0.00    +0.000 C 
ATOM     16  O   UNL     1       2.443  13.675  18.194  0.00  0.00    +0.000 OA
ENDBRANCH   1  16
BRANCH   4  17
ATOM     17  N   UNL     1       2.338   7.861  18.144  0.00  0.00    +0.000 NA
ATOM     18  C   UNL     1       3.352   7.090  17.914  0.00  0.00    +0.000 C 
BRANCH  18  19
ATOM     19  C   UNL     1       3.451   5.773  18.587  0.00  0.00    +0.000 A 
ATOM     20  C   UNL     1       2.757   5.597  19.797  0.00  0.00    +0.000 A 
ATOM     21  C   UNL     1       2.799   4.366  20.407  0.00  0.00    +0.000 A 
ATOM     22  C   UNL     1       3.507   3.317  19.863  0.00  0.00    +0.000 A 
ATOM     23  C   UNL     1       4.222   3.454  18.700  0.00  0.00    +0.000 A 
ATOM     24  C   UNL     1       4.201   4.696  18.047  0.00  0.00    +0.000 A 
ATOM     25 BR   UNL     1       5.216   4.841  16.449  0.00  0.00    +0.000 Br
ATOM     26  O   UNL     1       3.398   2.186  20.610  0.00  0.00    +0.000 OA
ATOM     27  C   UNL     1       2.488   2.622  21.641  0.00  0.00    +0.000 C 
ATOM     28  O   UNL     1       2.173   4.027  21.559  0.00  0.00    +0.000 OA
ENDBRANCH  18  19
ENDBRANCH   4  17
TORSDOF 3
ENDMDL
MODEL 3
REMARK VINA RESULT:      -7.7      3.173      8.489
REMARK  Name = 
REMARK  4 active torsions:
REMARK  status: ('A' for Active; 'I' for Inactive)
REMARK    1  A    between atoms: C_1  and  O_2
REMARK    2  A    between atoms: O_2  and  C_3
REMARK    3  A    between atoms: N_6  and  N_7
REMARK    4  A    between atoms: C_8  and  C_9
REMARK                            x       y       z     vdW  Elec       q    Type
REMARK                         _______ _______ _______ _____ _____    ______ ____
ROOT
ATOM      1  C   UNL     1       5.043   5.377  17.359  0.00  0.00    +0.000 A 
ATOM      2  N   UNL     1       4.740   6.640  17.103  0.00  0.00    +0.000 NA
ATOM      3  C   UNL     1       3.677   7.087  17.761  0.00  0.00    +0.000 A 
ATOM      4  N   UNL     1       3.280   8.406  17.528  0.00  0.00    +0.000 N 
ATOM      5  N   UNL     1       3.004   6.355  18.646  0.00  0.00    +0.000 NA
ATOM      6  C   UNL     1       3.463   5.151  18.930  0.00  0.00    +0.000 A 
ATOM      7  N   UNL     1       2.896   4.454  19.969  0.00  0.00    +0.000 N 
ATOM      8  C   UNL     1       3.407   3.165  20.408  0.00  0.00    +0.000 C 
ATOM      9  C   UNL     1       2.321   2.093  20.244  0.00  0.00    +0.000 C 
ATOM     10  O   UNL     1       1.096   2.478  20.892  0.00  0.00    +0.000 OA
ATOM     11  C   UNL     1       0.599   3.704  20.329  0.00  0.00    +0.000 C 
ATOM     12  C   UNL     1       1.598   4.858  20.509  0.00  0.00    +0.000 C 
ATOM     13  N   UNL     1       4.482   4.605  18.274  0.00  0.00    +0.000 NA
ATOM     14  H   UNL     1       4.003   9.001  17.145  0.00  0.00    +0.000 HD
ENDROOT
BRANCH   1  16
ATOM     15  C   UNL     1       7.284   4.704  17.332  0.00  0.00    +0.000 C 
ATOM     16  O   UNL     1       6.041   4.748  16.644  0.00  0.00    +0.000 OA
ENDBRANCH   1  16
BRANCH   4  17
ATOM     17  N   UNL     1       1.993   8.775  17.753  0.00  0.00    +0.000 NA
ATOM     18  C   UNL     1       1.791  10.019  18.044  0.00  0.00    +0.000 C 
BRANCH  18  19
ATOM     19  C   UNL     1       0.413  10.513  18.279  0.00  0.00    +0.000 A 
ATOM     20  C   UNL     1      -0.641   9.871  17.605  0.00  0.00    +0.000 A 
ATOM     21  C   UNL     1      -1.928  10.285  17.850  0.00  0.00    +0.000 A 
ATOM     22  C   UNL     1      -2.199  11.309  18.729  0.00  0.00    +0.000 A 
ATOM     23  C   UNL     1      -1.200  11.982  19.384  0.00  0.00    +0.000 A 
ATOM     24  C   UNL     1       0.129  11.587  19.161  0.00  0.00    +0.000 A 
ATOM     25 BR   UNL     1       1.477  12.555  20.081  0.00  0.00    +0.000 Br
ATOM     26  O   UNL     1      -3.534  11.544  18.843  0.00  0.00    +0.000 OA
ATOM     27  C   UNL     1      -4.071  10.507  17.996  0.00  0.00    +0.000 C 
ATOM     28  O   UNL     1      -3.051   9.761  17.302  0.00  0.00    +0.000 OA
ENDBRANCH  18  19
ENDBRANCH   4  17
TORSDOF 3
ENDMDL
MODEL 4
REMARK VINA RESULT:      -7.6      3.870      8.900
REMARK  Name = 
REMARK  4 active torsions:
REMARK  status: ('A' for Active; 'I' for Inactive)
REMARK    1  A    between atoms: C_1  and  O_2
REMARK    2  A    between atoms: O_2  and  C_3
REMARK    3  A    between atoms: N_6  and  N_7
REMARK    4  A    between atoms: C_8  and  C_9
REMARK                            x       y       z     vdW  Elec       q    Type
REMARK                         _______ _______ _______ _____ _____    ______ ____
ROOT
ATOM      1  C   UNL     1       3.356   3.594  20.135  0.00  0.00    +0.000 A 
ATOM      2  N   UNL     1       2.418   4.400  20.608  0.00  0.00    +0.000 NA
ATOM      3  C   UNL     1       2.454   5.628  20.105  0.00  0.00    +0.000 A 
ATOM      4  N   UNL     1       1.508   6.545  20.570  0.00  0.00    +0.000 N 
ATOM      5  N   UNL     1       3.316   6.008  19.164  0.00  0.00    +0.000 NA
ATOM      6  C   UNL     1       4.126   5.095  18.662  0.00  0.00    +0.000 A 
ATOM      7  N   UNL     1       4.891   5.419  17.569  0.00  0.00    +0.000 N 
ATOM      8  C   UNL     1       5.735   4.442  16.897  0.00  0.00    +0.000 C 
ATOM      9  C   UNL     1       7.202   4.890  16.965  0.00  0.00    +0.000 C 
ATOM     10  O   UNL     1       7.368   6.232  16.473  0.00  0.00    +0.000 OA
ATOM     11  C   UNL     1       6.586   7.149  17.256  0.00  0.00    +0.000 C 
ATOM     12  C   UNL     1       5.087   6.818  17.191  0.00  0.00    +0.000 C 
ATOM     13  N   UNL     1       4.198   3.861  19.151  0.00  0.00    +0.000 NA
ATOM     14  H   UNL     1       0.689   6.128  20.991  0.00  0.00    +0.000 HD
ENDROOT
BRANCH   1  16
ATOM     15  C   UNL     1       4.832   1.817  20.509  0.00  0.00    +0.000 C 
ATOM     16  O   UNL     1       3.517   2.333  20.671  0.00  0.00    +0.000 OA
ENDBRANCH   1  16
BRANCH   4  17
ATOM     17  N   UNL     1       1.764   7.876  20.497  0.00  0.00    +0.000 NA
ATOM     18  C   UNL     1       0.756   8.646  20.239  0.00  0.00    +0.000 C 
BRANCH  18  19
ATOM     19  C   UNL     1       0.941  10.114  20.168  0.00  0.00    +0.000 A 
ATOM     20  C   UNL     1       1.626  10.639  19.057  0.00  0.00    +0.000 A 
ATOM     21  C   UNL     1       1.762  12.002  18.952  0.00  0.00    +0.000 A 
ATOM     22  C   UNL     1       1.251  12.852  19.907  0.00  0.00    +0.000 A 
ATOM     23  C   UNL     1       0.603  12.382  21.020  0.00  0.00    +0.000 A 
ATOM     24  C   UNL     1       0.442  10.994  21.162  0.00  0.00    +0.000 A 
ATOM     25 BR   UNL     1      -0.450  10.391  22.725  0.00  0.00    +0.000 Br
ATOM     26  O   UNL     1       1.474  14.158  19.599  0.00  0.00    +0.000 OA
ATOM     27  C   UNL     1       2.116  14.034  18.314  0.00  0.00    +0.000 C 
ATOM     28  O   UNL     1       2.372  12.665  17.940  0.00  0.00    +0.000 OA
ENDBRANCH  18  19
ENDBRANCH   4  17
TORSDOF 3
ENDMDL
MODEL 5
REMARK VINA RESULT:      -7.5      3.036      3.334
REMARK  Name = 
REMARK  4 active torsions:
REMARK  status: ('A' for Active; 'I' for Inactive)
REMARK    1  A    between atoms: C_1  and  O_2
REMARK    2  A    between atoms: O_2  and  C_3
REMARK    3  A    between atoms: N_6  and  N_7
REMARK    4  A    between atoms: C_8  and  C_9
REMARK                            x       y       z     vdW  Elec       q    Type
REMARK                         _______ _______ _______ _____ _____    ______ ____
ROOT
ATOM      1  C   UNL     1      -1.780  11.657  22.876  0.00  0.00    +0.000 A 
ATOM      2  N   UNL     1      -1.167  10.509  23.123  0.00  0.00    +0.000 NA
ATOM      3  C   UNL     1      -0.002  10.372  22.501  0.00  0.00    +0.000 A 
ATOM      4  N   UNL     1       0.697   9.178  22.695  0.00  0.00    +0.000 N 
ATOM      5  N   UNL     1       0.537  11.322  21.740  0.00  0.00    +0.000 NA
ATOM      6  C   UNL     1      -0.089  12.481  21.661  0.00  0.00    +0.000 A 
ATOM      7  N   UNL     1       0.539  13.530  21.036  0.00  0.00    +0.000 N 
ATOM      8  C   UNL     1      -0.041  14.864  20.992  0.00  0.00    +0.000 C 
ATOM      9  C   UNL     1      -0.284  15.276  19.533  0.00  0.00    +0.000 C 
ATOM     10  O   UNL     1       0.908  15.139  18.740  0.00  0.00    +0.000 OA
ATOM     11  C   UNL     1       1.356  13.773  18.747  0.00  0.00    +0.000 C 
ATOM     12  C   UNL     1       1.691  13.292  20.167  0.00  0.00    +0.000 C 
ATOM     13  N   UNL     1      -1.287  12.681  22.201  0.00  0.00    +0.000 NA
ATOM     14  H   UNL     1       0.434   8.666  23.527  0.00  0.00    +0.000 HD
ENDROOT
BRANCH   1  16
ATOM     15  C   UNL     1      -3.450  13.238  23.305  0.00  0.00    +0.000 C 
ATOM     16  O   UNL     1      -3.057  11.872  23.350  0.00  0.00    +0.000 OA
ENDBRANCH   1  16
BRANCH   4  17
ATOM     17  N   UNL     1       1.594   8.761  21.765  0.00  0.00    +0.000 NA
ATOM     18  C   UNL     1       1.157   7.933  20.871  0.00  0.00    +0.000 C 
BRANCH  18  19
ATOM     19  C   UNL     1       2.063   7.446  19.803  0.00  0.00    +0.000 A 
ATOM     20  C   UNL     1       2.728   6.225  20.009  0.00  0.00    +0.000 A 
ATOM     21  C   UNL     1       3.533   5.736  19.007  0.00  0.00    +0.000 A 
ATOM     22  C   UNL     1       3.701   6.419  17.823  0.00  0.00    +0.000 A 
ATOM     23  C   UNL     1       3.095   7.628  17.593  0.00  0.00    +0.000 A 
ATOM     24  C   UNL     1       2.264   8.158  18.593  0.00  0.00    +0.000 A 
ATOM     25 BR   UNL     1       1.458   9.838  18.234  0.00  0.00    +0.000 Br
ATOM     26  O   UNL     1       4.516   5.752  16.962  0.00  0.00    +0.000 OA
ATOM     27  C   UNL     1       4.779   4.546  17.708  0.00  0.00    +0.000 C 
ATOM     28  O   UNL     1       4.223   4.571  19.038  0.00  0.00    +0.000 OA
ENDBRANCH  18  19
ENDBRANCH   4  17
TORSDOF 3
ENDMDL
MODEL 6
REMARK VINA RESULT:      -7.4      3.220      8.710
REMARK  Name = 
REMARK  4 active torsions:
REMARK  status: ('A' for Active; 'I' for Inactive)
REMARK    1  A    between atoms: C_1  and  O_2
REMARK    2  A    between atoms: O_2  and  C_3
REMARK    3  A    between atoms: N_6  and  N_7
REMARK    4  A    between atoms: C_8  and  C_9
REMARK                            x       y       z     vdW  Elec       q    Type
REMARK                         _______ _______ _______ _____ _____    ______ ____
ROOT
ATOM      1  C   UNL     1       3.345   3.546  20.416  0.00  0.00    +0.000 A 
ATOM      2  N   UNL     1       2.435   4.341  20.959  0.00  0.00    +0.000 NA
ATOM      3  C   UNL     1       2.353   5.538  20.392  0.00  0.00    +0.000 A 
ATOM      4  N   UNL     1       1.430   6.442  20.922  0.00  0.00    +0.000 N 
ATOM      5  N   UNL     1       3.076   5.897  19.333  0.00  0.00    +0.000 NA
ATOM      6  C   UNL     1       3.860   4.989  18.783  0.00  0.00    +0.000 A 
ATOM      7  N   UNL     1       4.471   5.280  17.588  0.00  0.00    +0.000 N 
ATOM      8  C   UNL     1       5.271   4.300  16.869  0.00  0.00    +0.000 C 
ATOM      9  C   UNL     1       6.713   4.808  16.731  0.00  0.00    +0.000 C 
ATOM     10  O   UNL     1       6.757   6.125  16.153  0.00  0.00    +0.000 OA
ATOM     11  C   UNL     1       6.035   7.055  16.978  0.00  0.00    +0.000 C 
ATOM     12  C   UNL     1       4.556   6.662  17.116  0.00  0.00    +0.000 C 
ATOM     13  N   UNL     1       4.048   3.790  19.322  0.00  0.00    +0.000 NA
ATOM     14  H   UNL     1       0.687   6.018  21.462  0.00  0.00    +0.000 HD
ENDROOT
BRANCH   1  16
ATOM     15  C   UNL     1       4.780   1.698  20.444  0.00  0.00    +0.000 C 
ATOM     16  O   UNL     1       3.627   2.326  20.992  0.00  0.00    +0.000 OA
ENDBRANCH   1  16
BRANCH   4  17
ATOM     17  N   UNL     1       1.613   7.776  20.749  0.00  0.00    +0.000 NA
ATOM     18  C   UNL     1       0.545   8.503  20.680  0.00  0.00    +0.000 C 
BRANCH  18  19
ATOM     19  C   UNL     1       0.654   9.972  20.517  0.00  0.00    +0.000 A 
ATOM     20  C   UNL     1       0.172  10.788  21.556  0.00  0.00    +0.000 A 
ATOM     21  C   UNL     1       0.311  12.150  21.442  0.00  0.00    +0.000 A 
ATOM     22  C   UNL     1       0.902  12.723  20.338  0.00  0.00    +0.000 A 
ATOM     23  C   UNL     1       1.360  11.966  19.289  0.00  0.00    +0.000 A 
ATOM     24  C   UNL     1       1.237  10.570  19.370  0.00  0.00    +0.000 A 
ATOM     25 BR   UNL     1       1.872   9.567  17.890  0.00  0.00    +0.000 Br
ATOM     26  O   UNL     1       0.961  14.078  20.436  0.00  0.00    +0.000 OA
ATOM     27  C   UNL     1       0.408  14.284  21.752  0.00  0.00    +0.000 C 
ATOM     28  O   UNL     1      -0.079  13.069  22.357  0.00  0.00    +0.000 OA
ENDBRANCH  18  19
ENDBRANCH   4  17
TORSDOF 3
ENDMDL
MODEL 7
REMARK VINA RESULT:      -7.4      2.752      3.778
REMARK  Name = 
REMARK  4 active torsions:
REMARK  status: ('A' for Active; 'I' for Inactive)
REMARK    1  A    between atoms: C_1  and  O_2
REMARK    2  A    between atoms: O_2  and  C_3
REMARK    3  A    between atoms: N_6  and  N_7
REMARK    4  A    between atoms: C_8  and  C_9
REMARK                            x       y       z     vdW  Elec       q    Type
REMARK                         _______ _______ _______ _____ _____    ______ ____
ROOT
ATOM      1  C   UNL     1       1.906  12.731  18.728  0.00  0.00    +0.000 A 
ATOM      2  N   UNL     1       2.418  11.782  17.959  0.00  0.00    +0.000 NA
ATOM      3  C   UNL     1       2.020  10.555  18.275  0.00  0.00    +0.000 A 
ATOM      4  N   UNL     1       2.533   9.496  17.522  0.00  0.00    +0.000 N 
ATOM      5  N   UNL     1       1.140  10.298  19.240  0.00  0.00    +0.000 NA
ATOM      6  C   UNL     1       0.587  11.321  19.863  0.00  0.00    +0.000 A 
ATOM      7  N   UNL     1      -0.453  11.085  20.728  0.00  0.00    +0.000 N 
ATOM      8  C   UNL     1      -1.179  12.166  21.378  0.00  0.00    +0.000 C 
ATOM      9  C   UNL     1      -1.031  12.046  22.902  0.00  0.00    +0.000 C 
ATOM     10  O   UNL     1      -1.404  10.737  23.368  0.00  0.00    +0.000 OA
ATOM     11  C   UNL     1      -0.570   9.736  22.761  0.00  0.00    +0.000 C 
ATOM     12  C   UNL     1      -0.706   9.736  21.231  0.00  0.00    +0.000 C 
ATOM     13  N   UNL     1       0.973  12.575  19.652  0.00  0.00    +0.000 NA
ATOM     14  H   UNL     1       2.893   9.760  16.615  0.00  0.00    +0.000 HD
ENDROOT
BRANCH   1  16
ATOM     15  C   UNL     1       3.374  14.377  19.509  0.00  0.00    +0.000 C 
ATOM     16  O   UNL     1       2.339  14.034  18.596  0.00  0.00    +0.000 OA
ENDBRANCH   1  16
BRANCH   4  17
ATOM     17  N   UNL     1       2.579   8.248  18.054  0.00  0.00    +0.000 NA
ATOM     18  C   UNL     1       3.329   7.387  17.445  0.00  0.00    +0.000 C 
BRANCH  18  19
ATOM     19  C   UNL     1       3.457   6.008  17.973  0.00  0.00    +0.000 A 
ATOM     20  C   UNL     1       2.279   5.317  18.306  0.00  0.00    +0.000 A 
ATOM     21  C   UNL     1       2.379   4.020  18.750  0.00  0.00    +0.000 A 
ATOM     22  C   UNL     1       3.599   3.397  18.879  0.00  0.00    +0.000 A 
ATOM     23  C   UNL     1       4.775   4.044  18.595  0.00  0.00    +0.000 A 
ATOM     24  C   UNL     1       4.714   5.369  18.137  0.00  0.00    +0.000 A 
ATOM     25 BR   UNL     1       6.366   6.226  17.769  0.00  0.00    +0.000 Br
ATOM     26  O   UNL     1       3.473   2.113  19.310  0.00  0.00    +0.000 OA
ATOM     27  C   UNL     1       2.038   1.980  19.366  0.00  0.00    +0.000 C 
ATOM     28  O   UNL     1       1.345   3.214  19.089  0.00  0.00    +0.000 OA
ENDBRANCH  18  19
ENDBRANCH   4  17
TORSDOF 3
ENDMDL
MODEL 8
REMARK VINA RESULT:      -7.3      2.876      4.014
REMARK  Name = 
REMARK  4 active torsions:
REMARK  status: ('A' for Active; 'I' for Inactive)
REMARK    1  A    between atoms: C_1  and  O_2
REMARK    2  A    between atoms: O_2  and  C_3
REMARK    3  A    between atoms: N_6  and  N_7
REMARK    4  A    between atoms: C_8  and  C_9
REMARK                            x       y       z     vdW  Elec       q    Type
REMARK                         _______ _______ _______ _____ _____    ______ ____
ROOT
ATOM      1  C   UNL     1       2.297  13.375  18.746  0.00  0.00    +0.000 A 
ATOM      2  N   UNL     1       2.546  12.313  17.994  0.00  0.00    +0.000 NA
ATOM      3  C   UNL     1       1.825  11.244  18.310  0.00  0.00    +0.000 A 
ATOM      4  N   UNL     1       2.044  10.077  17.575  0.00  0.00    +0.000 N 
ATOM      5  N   UNL     1       0.891  11.246  19.258  0.00  0.00    +0.000 NA
ATOM      6  C   UNL     1       0.625  12.389  19.863  0.00  0.00    +0.000 A 
ATOM      7  N   UNL     1      -0.455  12.454  20.709  0.00  0.00    +0.000 N 
ATOM      8  C   UNL     1      -0.872  13.699  21.336  0.00  0.00    +0.000 C 
ATOM      9  C   UNL     1      -0.789  13.563  22.863  0.00  0.00    +0.000 C 
ATOM     10  O   UNL     1      -1.512  12.410  23.331  0.00  0.00    +0.000 OA
ATOM     11  C   UNL     1      -0.970  11.213  22.748  0.00  0.00    +0.000 C 
ATOM     12  C   UNL     1      -1.074  11.230  21.215  0.00  0.00    +0.000 C 
ATOM     13  N   UNL     1       1.340  13.489  19.651  0.00  0.00    +0.000 NA
ATOM     14  H   UNL     1       2.479  10.222  16.673  0.00  0.00    +0.000 HD
ENDROOT
BRANCH   1  16
ATOM     15  C   UNL     1       2.331  15.714  18.774  0.00  0.00    +0.000 C 
ATOM     16  O   UNL     1       3.069  14.510  18.614  0.00  0.00    +0.000 OA
ENDBRANCH   1  16
BRANCH   4  17
ATOM     17  N   UNL     1       1.741   8.869  18.117  0.00  0.00    +0.000 NA
ATOM     18  C   UNL     1       2.697   7.998  18.160  0.00  0.00    +0.000 C 
BRANCH  18  19
ATOM     19  C   UNL     1       2.459   6.663  18.758  0.00  0.00    +0.000 A 
ATOM     20  C   UNL     1       2.805   5.530  18.001  0.00  0.00    +0.000 A 
ATOM     21  C   UNL     1       2.637   4.287  18.562  0.00  0.00    +0.000 A 
ATOM     22  C   UNL     1       2.136   4.134  19.835  0.00  0.00    +0.000 A 
ATOM     23  C   UNL     1       1.758   5.210  20.597  0.00  0.00    +0.000 A 
ATOM     24  C   UNL     1       1.917   6.497  20.059  0.00  0.00    +0.000 A 
ATOM     25 BR   UNL     1       1.369   7.954  21.145  0.00  0.00    +0.000 Br
ATOM     26  O   UNL     1       2.072   2.827  20.205  0.00  0.00    +0.000 OA
ATOM     27  C   UNL     1       2.655   2.184  19.053  0.00  0.00    +0.000 C 
ATOM     28  O   UNL     1       2.938   3.103  17.977  0.00  0.00    +0.000 OA
ENDBRANCH  18  19
ENDBRANCH   4  17
TORSDOF 3
ENDMDL
MODEL 9
REMARK VINA RESULT:      -7.3      3.030      3.598
REMARK  Name = 
REMARK  4 active torsions:
REMARK  status: ('A' for Active; 'I' for Inactive)
REMARK    1  A    between atoms: C_1  and  O_2
REMARK    2  A    between atoms: O_2  and  C_3
REMARK    3  A    between atoms: N_6  and  N_7
REMARK    4  A    between atoms: C_8  and  C_9
REMARK                            x       y       z     vdW  Elec       q    Type
REMARK                         _______ _______ _______ _____ _____    ______ ____
ROOT
ATOM      1  C   UNL     1      -1.268  11.392  22.660  0.00  0.00    +0.000 A 
ATOM      2  N   UNL     1      -0.823  10.147  22.751  0.00  0.00    +0.000 NA
ATOM      3  C   UNL     1       0.230   9.890  21.984  0.00  0.00    +0.000 A 
ATOM      4  N   UNL     1       0.745   8.592  22.008  0.00  0.00    +0.000 N 
ATOM      5  N   UNL     1       0.828  10.811  21.231  0.00  0.00    +0.000 NA
ATOM      6  C   UNL     1       0.391  12.053  21.309  0.00  0.00    +0.000 A 
ATOM      7  N   UNL     1       1.107  13.046  20.686  0.00  0.00    +0.000 N 
ATOM      8  C   UNL     1       0.748  14.451  20.806  0.00  0.00    +0.000 C 
ATOM      9  C   UNL     1       0.416  15.022  19.420  0.00  0.00    +0.000 C 
ATOM     10  O   UNL     1       1.477  14.775  18.479  0.00  0.00    +0.000 OA
ATOM     11  C   UNL     1       1.698  13.362  18.337  0.00  0.00    +0.000 C 
ATOM     12  C   UNL     1       2.104  12.714  19.670  0.00  0.00    +0.000 C 
ATOM     13  N   UNL     1      -0.693  12.385  22.003  0.00  0.00    +0.000 NA
ATOM     14  H   UNL     1       0.495   8.055  22.828  0.00  0.00    +0.000 HD
ENDROOT
BRANCH   1  16
ATOM     15  C   UNL     1      -2.671  13.158  23.281  0.00  0.00    +0.000 C 
ATOM     16  O   UNL     1      -2.434  11.756  23.300  0.00  0.00    +0.000 OA
ENDBRANCH   1  16
BRANCH   4  17
ATOM     17  N   UNL     1       1.456   8.127  20.949  0.00  0.00    +0.000 NA
ATOM     18  C   UNL     1       1.504   6.842  20.805  0.00  0.00    +0.000 C 
BRANCH  18  19
ATOM     19  C   UNL     1       2.238   6.250  19.661  0.00  0.00    +0.000 A 
ATOM     20  C   UNL     1       3.003   7.109  18.853  0.00  0.00    +0.000 A 
ATOM     21  C   UNL     1       3.729   6.567  17.819  0.00  0.00    +0.000 A 
ATOM     22  C   UNL     1       3.712   5.215  17.560  0.00  0.00    +0.000 A 
ATOM     23  C   UNL     1       2.956   4.346  18.303  0.00  0.00    +0.000 A 
ATOM     24  C   UNL     1       2.203   4.861  19.370  0.00  0.00    +0.000 A 
ATOM     25 BR   UNL     1       1.162   3.622  20.362  0.00  0.00    +0.000 Br
ATOM     26  O   UNL     1       4.514   4.887  16.511  0.00  0.00    +0.000 OA
ATOM     27  C   UNL     1       5.088   6.170  16.190  0.00  0.00    +0.000 C 
ATOM     28  O   UNL     1       4.529   7.250  16.965  0.00  0.00    +0.000 OA
ENDBRANCH  18  19
ENDBRANCH   4  17
TORSDOF 3
ENDMDL
