MODEL 1
REMARK VINA RESULT:      -7.0      0.000      0.000
REMARK  Name = 
REMARK  13 active torsions:
REMARK  status: ('A' for Active; 'I' for Inactive)
REMARK    1  A    between atoms: C_1  and  C_2
REMARK    2  A    between atoms: C_2  and  N_3
REMARK    3  A    between atoms: N_3  and  C_4
REMARK    4  A    between atoms: N_3  and  C_6
REMARK    5  A    between atoms: C_4  and  C_5
REMARK    6  A    between atoms: C_6  and  C_7
REMARK    7  A    between atoms: C_7  and  C_8
REMARK    8  A    between atoms: C_8  and  N_9
REMARK    9  A    between atoms: C_10  and  C_12
REMARK   10  A    between atoms: C_12  and  N_13
REMARK   11  A    between atoms: C_15  and  C_16
REMARK   12  A    between atoms: C_19  and  O_20
REMARK   13  A    between atoms: O_20  and  C_21
REMARK                            x       y       z     vdW  Elec       q    Type
REMARK                         _______ _______ _______ _____ _____    ______ ____
ROOT
ATOM      1  N   UNL     1       4.722   4.920  17.913  0.00  0.00    +0.000 N 
ATOM      2  N   UNL     1       4.146   6.124  18.220  0.00  0.00    +0.000 NA
ATOM      3  C   UNL     1       2.863   6.194  18.401  0.00  0.00    +0.000 C 
ATOM      4  C   UNL     1       1.953   4.997  18.321  0.00  0.00    +0.000 C 
ATOM      5  C   UNL     1       2.534   3.902  17.465  0.00  0.00    +0.000 C 
ATOM      6  C   UNL     1       4.023   3.761  17.607  0.00  0.00    +0.000 C 
ATOM      7  O   UNL     1       4.566   2.677  17.371  0.00  0.00    +0.000 OA
ENDROOT
BRANCH   3   8
ATOM      8  C   UNL     1       2.257   7.504  18.773  0.00  0.00    +0.000 A 
ATOM      9  C   UNL     1       1.796   7.707  20.077  0.00  0.00    +0.000 A 
ATOM     10  C   UNL     1       1.198   8.922  20.420  0.00  0.00    +0.000 A 
ATOM     11  C   UNL     1       1.064   9.939  19.472  0.00  0.00    +0.000 A 
ATOM     12  C   UNL     1       1.510   9.731  18.165  0.00  0.00    +0.000 A 
ATOM     13  C   UNL     1       2.107   8.516  17.818  0.00  0.00    +0.000 A 
BRANCH  11  14
ATOM     14  O   UNL     1       0.434  11.070  19.915  0.00  0.00    +0.000 OA
ATOM     15  C   UNL     1      -0.184  10.970  21.192  0.00  0.00    +0.000 C 
ENDBRANCH  11  14
ENDBRANCH   3   8
BRANCH   1  16
ATOM     16  C   UNL     1       6.185   4.883  17.913  0.00  0.00    +0.000 C 
BRANCH  16  18
ATOM     17  N   UNL     1       7.365   7.031  18.032  0.00  0.00    +0.000 N 
ATOM     18  C   UNL     1       6.808   6.082  17.203  0.00  0.00    +0.000 C 
ATOM     19  O   UNL     1       6.683   6.252  15.994  0.00  0.00    +0.000 OA
ATOM     20  H   UNL     1       7.255   6.894  19.034  0.00  0.00    +0.000 HD
BRANCH  17  21
ATOM     21  C   UNL     1       7.909   8.275  17.539  0.00  0.00    +0.000 C 
BRANCH  21  22
ATOM     22  C   UNL     1       8.563   9.112  18.635  0.00  0.00    +0.000 C 
BRANCH  22  23
ATOM     23  C   UNL     1       9.238  10.395  18.119  0.00  0.00    +0.000 C 
BRANCH  23  24
ATOM     24  N   UNL     1       9.228  11.527  19.071  0.00  0.00    +0.000 NA
BRANCH  24  26
ATOM     25  C   UNL     1       9.488  12.130  21.523  0.00  0.00    +0.000 C 
ATOM     26  C   UNL     1       9.431  11.051  20.450  0.00  0.00    +0.000 C 
ENDBRANCH  24  26
BRANCH  24  27
ATOM     27  C   UNL     1      10.170  12.585  18.660  0.00  0.00    +0.000 C 
ATOM     28  C   UNL     1      11.357  12.141  17.806  0.00  0.00    +0.000 C 
ENDBRANCH  24  27
ENDBRANCH  23  24
ENDBRANCH  22  23
ENDBRANCH  21  22
ENDBRANCH  17  21
ENDBRANCH  16  18
ENDBRANCH   1  16
TORSDOF 10
ENDMDL
MODEL 2
REMARK VINA RESULT:      -7.0      1.290      1.740
REMARK  Name = 
REMARK  13 active torsions:
REMARK  status: ('A' for Active; 'I' for Inactive)
REMARK    1  A    between atoms: C_1  and  C_2
REMARK    2  A    between atoms: C_2  and  N_3
REMARK    3  A    between atoms: N_3  and  C_4
REMARK    4  A    between atoms: N_3  and  C_6
REMARK    5  A    between atoms: C_4  and  C_5
REMARK    6  A    between atoms: C_6  and  C_7
REMARK    7  A    between atoms: C_7  and  C_8
REMARK    8  A    between atoms: C_8  and  N_9
REMARK    9  A    between atoms: C_10  and  C_12
REMARK   10  A    between atoms: C_12  and  N_13
REMARK   11  A    between atoms: C_15  and  C_16
REMARK   12  A    between atoms: C_19  and  O_20
REMARK   13  A    between atoms: O_20  and  C_21
REMARK                            x       y       z     vdW  Elec       q    Type
REMARK                         _______ _______ _______ _____ _____    ______ ____
ROOT
ATOM      1  N   UNL     1       5.526   5.745  16.858  0.00  0.00    +0.000 N 
ATOM      2  N   UNL     1       4.695   6.687  17.405  0.00  0.00    +0.000 NA
ATOM      3  C   UNL     1       3.530   6.332  17.854  0.00  0.00    +0.000 C 
ATOM      4  C   UNL     1       3.039   4.908  17.835  0.00  0.00    +0.000 C 
ATOM      5  C   UNL     1       3.715   4.091  16.766  0.00  0.00    +0.000 C 
ATOM      6  C   UNL     1       5.165   4.434  16.581  0.00  0.00    +0.000 C 
ATOM      7  O   UNL     1       5.946   3.593  16.122  0.00  0.00    +0.000 OA
ENDROOT
BRANCH   3   8
ATOM      8  C   UNL     1       2.654   7.361  18.481  0.00  0.00    +0.000 A 
ATOM      9  C   UNL     1       2.250   8.472  17.736  0.00  0.00    +0.000 A 
ATOM     10  C   UNL     1       1.455   9.454  18.332  0.00  0.00    +0.000 A 
ATOM     11  C   UNL     1       1.054   9.332  19.663  0.00  0.00    +0.000 A 
ATOM     12  C   UNL     1       1.470   8.229  20.413  0.00  0.00    +0.000 A 
ATOM     13  C   UNL     1       2.267   7.246  19.822  0.00  0.00    +0.000 A 
BRANCH  11  14
ATOM     14  O   UNL     1       0.305  10.370  20.146  0.00  0.00    +0.000 OA
ATOM     15  C   UNL     1      -0.273  10.166  21.431  0.00  0.00    +0.000 C 
ENDBRANCH  11  14
ENDBRANCH   3   8
BRANCH   1  16
ATOM     16  C   UNL     1       6.889   6.183  16.553  0.00  0.00    +0.000 C 
BRANCH  16  18
ATOM     17  N   UNL     1       7.764   8.283  17.470  0.00  0.00    +0.000 N 
ATOM     18  C   UNL     1       7.537   6.945  17.705  0.00  0.00    +0.000 C 
ATOM     19  O   UNL     1       7.959   6.369  18.703  0.00  0.00    +0.000 OA
ATOM     20  H   UNL     1       7.551   8.634  16.538  0.00  0.00    +0.000 HD
BRANCH  17  21
ATOM     21  C   UNL     1       8.458   9.134  18.409  0.00  0.00    +0.000 C 
BRANCH  21  22
ATOM     22  C   UNL     1       8.746  10.525  17.849  0.00  0.00    +0.000 C 
BRANCH  22  23
ATOM     23  C   UNL     1      10.032  11.163  18.401  0.00  0.00    +0.000 C 
BRANCH  23  24
ATOM     24  N   UNL     1      10.025  12.643  18.435  0.00  0.00    +0.000 NA
BRANCH  24  26
ATOM     25  C   UNL     1      10.339  12.247  20.923  0.00  0.00    +0.000 C 
ATOM     26  C   UNL     1      10.569  13.139  19.709  0.00  0.00    +0.000 C 
ENDBRANCH  24  26
BRANCH  24  27
ATOM     27  C   UNL     1      10.682  13.212  17.242  0.00  0.00    +0.000 C 
ATOM     28  C   UNL     1      11.240  14.627  17.387  0.00  0.00    +0.000 C 
ENDBRANCH  24  27
ENDBRANCH  23  24
ENDBRANCH  22  23
ENDBRANCH  21  22
ENDBRANCH  17  21
ENDBRANCH  16  18
ENDBRANCH   1  16
TORSDOF 10
ENDMDL
MODEL 3
REMARK VINA RESULT:      -7.0      1.023      1.850
REMARK  Name = 
REMARK  13 active torsions:
REMARK  status: ('A' for Active; 'I' for Inactive)
REMARK    1  A    between atoms: C_1  and  C_2
REMARK    2  A    between atoms: C_2  and  N_3
REMARK    3  A    between atoms: N_3  and  C_4
REMARK    4  A    between atoms: N_3  and  C_6
REMARK    5  A    between atoms: C_4  and  C_5
REMARK    6  A    between atoms: C_6  and  C_7
REMARK    7  A    between atoms: C_7  and  C_8
REMARK    8  A    between atoms: C_8  and  N_9
REMARK    9  A    between atoms: C_10  and  C_12
REMARK   10  A    between atoms: C_12  and  N_13
REMARK   11  A    between atoms: C_15  and  C_16
REMARK   12  A    between atoms: C_19  and  O_20
REMARK   13  A    between atoms: O_20  and  C_21
REMARK                            x       y       z     vdW  Elec       q    Type
REMARK                         _______ _______ _______ _____ _____    ______ ____
ROOT
ATOM      1  N   UNL     1       4.840   4.880  18.468  0.00  0.00    +0.000 N 
ATOM      2  N   UNL     1       4.111   6.038  18.395  0.00  0.00    +0.000 NA
ATOM      3  C   UNL     1       3.111   6.216  19.203  0.00  0.00    +0.000 C 
ATOM      4  C   UNL     1       2.714   5.217  20.258  0.00  0.00    +0.000 C 
ATOM      5  C   UNL     1       3.161   3.822  19.911  0.00  0.00    +0.000 C 
ATOM      6  C   UNL     1       4.502   3.776  19.236  0.00  0.00    +0.000 C 
ATOM      7  O   UNL     1       5.198   2.758  19.313  0.00  0.00    +0.000 OA
ENDROOT
BRANCH   3   8
ATOM      8  C   UNL     1       2.351   7.497  19.138  0.00  0.00    +0.000 A 
ATOM      9  C   UNL     1       2.317   8.221  17.943  0.00  0.00    +0.000 A 
ATOM     10  C   UNL     1       1.633   9.438  17.888  0.00  0.00    +0.000 A 
ATOM     11  C   UNL     1       0.975   9.933  19.016  0.00  0.00    +0.000 A 
ATOM     12  C   UNL     1       1.021   9.217  20.214  0.00  0.00    +0.000 A 
ATOM     13  C   UNL     1       1.706   8.001  20.274  0.00  0.00    +0.000 A 
BRANCH  11  14
ATOM     14  O   UNL     1       0.366  11.147  18.851  0.00  0.00    +0.000 OA
ATOM     15  C   UNL     1       0.292  11.961  20.017  0.00  0.00    +0.000 C 
ENDBRANCH  11  14
ENDBRANCH   3   8
BRANCH   1  16
ATOM     16  C   UNL     1       6.062   4.834  17.663  0.00  0.00    +0.000 C 
BRANCH  16  18
ATOM     17  N   UNL     1       7.420   6.864  17.901  0.00  0.00    +0.000 N 
ATOM     18  C   UNL     1       6.478   6.206  17.140  0.00  0.00    +0.000 C 
ATOM     19  O   UNL     1       5.902   6.740  16.197  0.00  0.00    +0.000 OA
ATOM     20  H   UNL     1       7.704   6.421  18.772  0.00  0.00    +0.000 HD
BRANCH  17  21
ATOM     21  C   UNL     1       7.857   8.210  17.612  0.00  0.00    +0.000 C 
BRANCH  21  22
ATOM     22  C   UNL     1       8.742   8.795  18.708  0.00  0.00    +0.000 C 
BRANCH  22  23
ATOM     23  C   UNL     1       9.022  10.299  18.545  0.00  0.00    +0.000 C 
BRANCH  23  24
ATOM     24  N   UNL     1       9.956  10.868  19.542  0.00  0.00    +0.000 NA
BRANCH  24  26
ATOM     25  C   UNL     1      10.320  12.467  17.605  0.00  0.00    +0.000 C 
ATOM     26  C   UNL     1      10.811  11.898  18.930  0.00  0.00    +0.000 C 
ENDBRANCH  24  26
BRANCH  24  27
ATOM     27  C   UNL     1       9.240  11.326  20.749  0.00  0.00    +0.000 C 
ATOM     28  C   UNL     1       9.748  12.618  21.388  0.00  0.00    +0.000 C 
ENDBRANCH  24  27
ENDBRANCH  23  24
ENDBRANCH  22  23
ENDBRANCH  21  22
ENDBRANCH  17  21
ENDBRANCH  16  18
ENDBRANCH   1  16
TORSDOF 10
ENDMDL
MODEL 4
REMARK VINA RESULT:      -6.9      1.257      1.676
REMARK  Name = 
REMARK  13 active torsions:
REMARK  status: ('A' for Active; 'I' for Inactive)
REMARK    1  A    between atoms: C_1  and  C_2
REMARK    2  A    between atoms: C_2  and  N_3
REMARK    3  A    between atoms: N_3  and  C_4
REMARK    4  A    between atoms: N_3  and  C_6
REMARK    5  A    between atoms: C_4  and  C_5
REMARK    6  A    between atoms: C_6  and  C_7
REMARK    7  A    between atoms: C_7  and  C_8
REMARK    8  A    between atoms: C_8  and  N_9
REMARK    9  A    between atoms: C_10  and  C_12
REMARK   10  A    between atoms: C_12  and  N_13
REMARK   11  A    between atoms: C_15  and  C_16
REMARK   12  A    between atoms: C_19  and  O_20
REMARK   13  A    between atoms: O_20  and  C_21
REMARK                            x       y       z     vdW  Elec       q    Type
REMARK                         _______ _______ _______ _____ _____    ______ ____
ROOT
ATOM      1  N   UNL     1       4.853   4.830  18.550  0.00  0.00    +0.000 N 
ATOM      2  N   UNL     1       4.144   5.996  18.430  0.00  0.00    +0.000 NA
ATOM      3  C   UNL     1       3.129   6.212  19.208  0.00  0.00    +0.000 C 
ATOM      4  C   UNL     1       2.691   5.248  20.279  0.00  0.00    +0.000 C 
ATOM      5  C   UNL     1       3.122   3.837  19.980  0.00  0.00    +0.000 C 
ATOM      6  C   UNL     1       4.478   3.751  19.339  0.00  0.00    +0.000 C 
ATOM      7  O   UNL     1       5.155   2.725  19.459  0.00  0.00    +0.000 OA
ENDROOT
BRANCH   3   8
ATOM      8  C   UNL     1       2.392   7.503  19.092  0.00  0.00    +0.000 A 
ATOM      9  C   UNL     1       2.454   8.229  17.899  0.00  0.00    +0.000 A 
ATOM     10  C   UNL     1       1.791   9.455  17.799  0.00  0.00    +0.000 A 
ATOM     11  C   UNL     1       1.061   9.957  18.877  0.00  0.00    +0.000 A 
ATOM     12  C   UNL     1       1.011   9.239  20.074  0.00  0.00    +0.000 A 
ATOM     13  C   UNL     1       1.675   8.014  20.180  0.00  0.00    +0.000 A 
BRANCH  11  14
ATOM     14  O   UNL     1       0.482  11.180  18.672  0.00  0.00    +0.000 OA
ATOM     15  C   UNL     1       1.374  12.288  18.659  0.00  0.00    +0.000 C 
ENDBRANCH  11  14
ENDBRANCH   3   8
BRANCH   1  16
ATOM     16  C   UNL     1       6.092   4.742  17.776  0.00  0.00    +0.000 C 
BRANCH  16  18
ATOM     17  N   UNL     1       7.155   6.947  17.955  0.00  0.00    +0.000 N 
ATOM     18  C   UNL     1       6.482   6.070  17.132  0.00  0.00    +0.000 C 
ATOM     19  O   UNL     1       6.089   6.385  16.013  0.00  0.00    +0.000 OA
ATOM     20  H   UNL     1       7.273   6.672  18.928  0.00  0.00    +0.000 HD
BRANCH  17  21
ATOM     21  C   UNL     1       7.514   8.284  17.545  0.00  0.00    +0.000 C 
BRANCH  21  22
ATOM     22  C   UNL     1       8.510   8.948  18.491  0.00  0.00    +0.000 C 
BRANCH  22  23
ATOM     23  C   UNL     1       9.104  10.260  17.948  0.00  0.00    +0.000 C 
BRANCH  23  24
ATOM     24  N   UNL     1       9.222  11.346  18.945  0.00  0.00    +0.000 NA
BRANCH  24  26
ATOM     25  C   UNL     1      10.755  12.331  20.712  0.00  0.00    +0.000 C 
ATOM     26  C   UNL     1      10.542  11.317  19.596  0.00  0.00    +0.000 C 
ENDBRANCH  24  26
BRANCH  24  27
ATOM     27  C   UNL     1       8.873  12.655  18.359  0.00  0.00    +0.000 C 
ATOM     28  C   UNL     1       7.850  12.639  17.225  0.00  0.00    +0.000 C 
ENDBRANCH  24  27
ENDBRANCH  23  24
ENDBRANCH  22  23
ENDBRANCH  21  22
ENDBRANCH  17  21
ENDBRANCH  16  18
ENDBRANCH   1  16
TORSDOF 10
ENDMDL
MODEL 5
REMARK VINA RESULT:      -6.9      0.962      1.380
REMARK  Name = 
REMARK  13 active torsions:
REMARK  status: ('A' for Active; 'I' for Inactive)
REMARK    1  A    between atoms: C_1  and  C_2
REMARK    2  A    between atoms: C_2  and  N_3
REMARK    3  A    between atoms: N_3  and  C_4
REMARK    4  A    between atoms: N_3  and  C_6
REMARK    5  A    between atoms: C_4  and  C_5
REMARK    6  A    between atoms: C_6  and  C_7
REMARK    7  A    between atoms: C_7  and  C_8
REMARK    8  A    between atoms: C_8  and  N_9
REMARK    9  A    between atoms: C_10  and  C_12
REMARK   10  A    between atoms: C_12  and  N_13
REMARK   11  A    between atoms: C_15  and  C_16
REMARK   12  A    between atoms: C_19  and  O_20
REMARK   13  A    between atoms: O_20  and  C_21
REMARK                            x       y       z     vdW  Elec       q    Type
REMARK                         _______ _______ _______ _____ _____    ______ ____
ROOT
ATOM      1  N   UNL     1       4.306   5.899  16.974  0.00  0.00    +0.000 N 
ATOM      2  N   UNL     1       3.588   6.983  17.406  0.00  0.00    +0.000 NA
ATOM      3  C   UNL     1       2.810   6.867  18.437  0.00  0.00    +0.000 C 
ATOM      4  C   UNL     1       2.666   5.589  19.222  0.00  0.00    +0.000 C 
ATOM      5  C   UNL     1       3.007   4.377  18.396  0.00  0.00    +0.000 C 
ATOM      6  C   UNL     1       4.150   4.605  17.448  0.00  0.00    +0.000 C 
ATOM      7  O   UNL     1       4.837   3.651  17.068  0.00  0.00    +0.000 OA
ENDROOT
BRANCH   3   8
ATOM      8  C   UNL     1       2.066   8.065  18.919  0.00  0.00    +0.000 A 
ATOM      9  C   UNL     1       1.927   9.176  18.082  0.00  0.00    +0.000 A 
ATOM     10  C   UNL     1       1.259  10.312  18.543  0.00  0.00    +0.000 A 
ATOM     11  C   UNL     1       0.722  10.346  19.831  0.00  0.00    +0.000 A 
ATOM     12  C   UNL     1       0.874   9.243  20.674  0.00  0.00    +0.000 A 
ATOM     13  C   UNL     1       1.544   8.105  20.218  0.00  0.00    +0.000 A 
BRANCH  11  14
ATOM     14  O   UNL     1       0.118  11.523  20.182  0.00  0.00    +0.000 OA
ATOM     15  C   UNL     1      -1.096  11.397  20.915  0.00  0.00    +0.000 C 
ENDBRANCH  11  14
ENDBRANCH   3   8
BRANCH   1  16
ATOM     16  C   UNL     1       5.302   6.155  15.932  0.00  0.00    +0.000 C 
BRANCH  16  18
ATOM     17  N   UNL     1       6.756   7.597  17.283  0.00  0.00    +0.000 N 
ATOM     18  C   UNL     1       6.684   6.466  16.499  0.00  0.00    +0.000 C 
ATOM     19  O   UNL     1       7.680   5.837  16.154  0.00  0.00    +0.000 OA
ATOM     20  H   UNL     1       5.913   8.163  17.360  0.00  0.00    +0.000 HD
BRANCH  17  21
ATOM     21  C   UNL     1       8.001   8.097  17.820  0.00  0.00    +0.000 C 
BRANCH  21  22
ATOM     22  C   UNL     1       8.129   9.613  17.707  0.00  0.00    +0.000 C 
BRANCH  22  23
ATOM     23  C   UNL     1       9.157  10.224  18.676  0.00  0.00    +0.000 C 
BRANCH  23  24
ATOM     24  N   UNL     1       9.216  11.702  18.665  0.00  0.00    +0.000 NA
BRANCH  24  26
ATOM     25  C   UNL     1       9.325  11.193  21.150  0.00  0.00    +0.000 C 
ATOM     26  C   UNL     1       9.292  12.232  20.037  0.00  0.00    +0.000 C 
ENDBRANCH  24  26
BRANCH  24  27
ATOM     27  C   UNL     1      10.286  12.192  17.775  0.00  0.00    +0.000 C 
ATOM     28  C   UNL     1      11.698  11.692  18.075  0.00  0.00    +0.000 C 
ENDBRANCH  24  27
ENDBRANCH  23  24
ENDBRANCH  22  23
ENDBRANCH  21  22
ENDBRANCH  17  21
ENDBRANCH  16  18
ENDBRANCH   1  16
TORSDOF 10
ENDMDL
MODEL 6
REMARK VINA RESULT:      -6.9      1.022      1.493
REMARK  Name = 
REMARK  13 active torsions:
REMARK  status: ('A' for Active; 'I' for Inactive)
REMARK    1  A    between atoms: C_1  and  C_2
REMARK    2  A    between atoms: C_2  and  N_3
REMARK    3  A    between atoms: N_3  and  C_4
REMARK    4  A    between atoms: N_3  and  C_6
REMARK    5  A    between atoms: C_4  and  C_5
REMARK    6  A    between atoms: C_6  and  C_7
REMARK    7  A    between atoms: C_7  and  C_8
REMARK    8  A    between atoms: C_8  and  N_9
REMARK    9  A    between atoms: C_10  and  C_12
REMARK   10  A    between atoms: C_12  and  N_13
REMARK   11  A    between atoms: C_15  and  C_16
REMARK   12  A    between atoms: C_19  and  O_20
REMARK   13  A    between atoms: O_20  and  C_21
REMARK                            x       y       z     vdW  Elec       q    Type
REMARK                         _______ _______ _______ _____ _____    ______ ____
ROOT
ATOM      1  N   UNL     1       4.683   5.684  16.849  0.00  0.00    +0.000 N 
ATOM      2  N   UNL     1       3.970   6.739  17.356  0.00  0.00    +0.000 NA
ATOM      3  C   UNL     1       2.943   6.511  18.116  0.00  0.00    +0.000 C 
ATOM      4  C   UNL     1       2.496   5.127  18.507  0.00  0.00    +0.000 C 
ATOM      5  C   UNL     1       2.939   4.088  17.511  0.00  0.00    +0.000 C 
ATOM      6  C   UNL     1       4.304   4.353  16.941  0.00  0.00    +0.000 C 
ATOM      7  O   UNL     1       4.985   3.417  16.508  0.00  0.00    +0.000 OA
ENDROOT
BRANCH   3   8
ATOM      8  C   UNL     1       2.201   7.669  18.692  0.00  0.00    +0.000 A 
ATOM      9  C   UNL     1       1.883   8.760  17.878  0.00  0.00    +0.000 A 
ATOM     10  C   UNL     1       1.216   9.860  18.422  0.00  0.00    +0.000 A 
ATOM     11  C   UNL     1       0.857   9.876  19.772  0.00  0.00    +0.000 A 
ATOM     12  C   UNL     1       1.188   8.792  20.589  0.00  0.00    +0.000 A 
ATOM     13  C   UNL     1       1.857   7.691  20.049  0.00  0.00    +0.000 A 
BRANCH  11  14
ATOM     14  O   UNL     1       0.237  11.019  20.198  0.00  0.00    +0.000 OA
ATOM     15  C   UNL     1       1.093  12.014  20.748  0.00  0.00    +0.000 C 
ENDBRANCH  11  14
ENDBRANCH   3   8
BRANCH   1  16
ATOM     16  C   UNL     1       5.933   6.018  16.164  0.00  0.00    +0.000 C 
BRANCH  16  18
ATOM     17  N   UNL     1       7.219   7.764  17.313  0.00  0.00    +0.000 N 
ATOM     18  C   UNL     1       7.050   6.409  17.129  0.00  0.00    +0.000 C 
ATOM     19  O   UNL     1       7.831   5.578  17.583  0.00  0.00    +0.000 OA
ATOM     20  H   UNL     1       6.644   8.384  16.747  0.00  0.00    +0.000 HD
BRANCH  17  21
ATOM     21  C   UNL     1       8.289   8.316  18.111  0.00  0.00    +0.000 C 
BRANCH  21  22
ATOM     22  C   UNL     1       8.363   9.838  18.032  0.00  0.00    +0.000 C 
BRANCH  22  23
ATOM     23  C   UNL     1       9.473  10.452  18.903  0.00  0.00    +0.000 C 
BRANCH  23  24
ATOM     24  N   UNL     1       9.096  11.703  19.597  0.00  0.00    +0.000 NA
BRANCH  24  26
ATOM     25  C   UNL     1       8.602  11.749  22.087  0.00  0.00    +0.000 C 
ATOM     26  C   UNL     1       9.635  11.722  20.968  0.00  0.00    +0.000 C 
ENDBRANCH  24  26
BRANCH  24  27
ATOM     27  C   UNL     1       9.452  12.891  18.798  0.00  0.00    +0.000 C 
ATOM     28  C   UNL     1       8.888  14.226  19.282  0.00  0.00    +0.000 C 
ENDBRANCH  24  27
ENDBRANCH  23  24
ENDBRANCH  22  23
ENDBRANCH  21  22
ENDBRANCH  17  21
ENDBRANCH  16  18
ENDBRANCH   1  16
TORSDOF 10
ENDMDL
MODEL 7
REMARK VINA RESULT:      -6.8      1.175      1.546
REMARK  Name = 
REMARK  13 active torsions:
REMARK  status: ('A' for Active; 'I' for Inactive)
REMARK    1  A    between atoms: C_1  and  C_2
REMARK    2  A    between atoms: C_2  and  N_3
REMARK    3  A    between atoms: N_3  and  C_4
REMARK    4  A    between atoms: N_3  and  C_6
REMARK    5  A    between atoms: C_4  and  C_5
REMARK    6  A    between atoms: C_6  and  C_7
REMARK    7  A    between atoms: C_7  and  C_8
REMARK    8  A    between atoms: C_8  and  N_9
REMARK    9  A    between atoms: C_10  and  C_12
REMARK   10  A    between atoms: C_12  and  N_13
REMARK   11  A    between atoms: C_15  and  C_16
REMARK   12  A    between atoms: C_19  and  O_20
REMARK   13  A    between atoms: O_20  and  C_21
REMARK                            x       y       z     vdW  Elec       q    Type
REMARK                         _______ _______ _______ _____ _____    ______ ____
ROOT
ATOM      1  N   UNL     1       4.820   4.765  19.122  0.00  0.00    +0.000 N 
ATOM      2  N   UNL     1       4.183   5.969  18.970  0.00  0.00    +0.000 NA
ATOM      3  C   UNL     1       2.958   6.101  19.376  0.00  0.00    +0.000 C 
ATOM      4  C   UNL     1       2.187   4.994  20.047  0.00  0.00    +0.000 C 
ATOM      5  C   UNL     1       2.713   3.633  19.674  0.00  0.00    +0.000 C 
ATOM      6  C   UNL     1       4.208   3.590  19.534  0.00  0.00    +0.000 C 
ATOM      7  O   UNL     1       4.814   2.526  19.700  0.00  0.00    +0.000 OA
ENDROOT
BRANCH   3   8
ATOM      8  C   UNL     1       2.292   7.427  19.239  0.00  0.00    +0.000 A 
ATOM      9  C   UNL     1       1.660   8.002  20.346  0.00  0.00    +0.000 A 
ATOM     10  C   UNL     1       1.008   9.229  20.213  0.00  0.00    +0.000 A 
ATOM     11  C   UNL     1       0.987   9.892  18.984  0.00  0.00    +0.000 A 
ATOM     12  C   UNL     1       1.604   9.311  17.874  0.00  0.00    +0.000 A 
ATOM     13  C   UNL     1       2.256   8.082  18.003  0.00  0.00    +0.000 A 
BRANCH  11  14
ATOM     14  O   UNL     1       0.290  11.070  18.967  0.00  0.00    +0.000 OA
ATOM     15  C   UNL     1      -0.524  11.319  20.107  0.00  0.00    +0.000 C 
ENDBRANCH  11  14
ENDBRANCH   3   8
BRANCH   1  16
ATOM     16  C   UNL     1       6.252   4.748  18.819  0.00  0.00    +0.000 C 
BRANCH  16  18
ATOM     17  N   UNL     1       7.380   6.871  18.326  0.00  0.00    +0.000 N 
ATOM     18  C   UNL     1       6.656   5.818  17.809  0.00  0.00    +0.000 C 
ATOM     19  O   UNL     1       6.234   5.810  16.656  0.00  0.00    +0.000 OA
ATOM     20  H   UNL     1       7.522   6.885  19.334  0.00  0.00    +0.000 HD
BRANCH  17  21
ATOM     21  C   UNL     1       7.760   8.019  17.537  0.00  0.00    +0.000 C 
BRANCH  21  22
ATOM     22  C   UNL     1       8.640   9.001  18.305  0.00  0.00    +0.000 C 
BRANCH  22  23
ATOM     23  C   UNL     1       8.402  10.474  17.930  0.00  0.00    +0.000 C 
BRANCH  23  24
ATOM     24  N   UNL     1       9.457  11.408  18.384  0.00  0.00    +0.000 NA
BRANCH  24  26
ATOM     25  C   UNL     1       8.145  13.558  18.067  0.00  0.00    +0.000 C 
ATOM     26  C   UNL     1       9.345  12.700  17.688  0.00  0.00    +0.000 C 
ENDBRANCH  24  26
BRANCH  24  27
ATOM     27  C   UNL     1       9.479  11.521  19.855  0.00  0.00    +0.000 C 
ATOM     28  C   UNL     1      10.826  11.871  20.487  0.00  0.00    +0.000 C 
ENDBRANCH  24  27
ENDBRANCH  23  24
ENDBRANCH  22  23
ENDBRANCH  21  22
ENDBRANCH  17  21
ENDBRANCH  16  18
ENDBRANCH   1  16
TORSDOF 10
ENDMDL
MODEL 8
REMARK VINA RESULT:      -6.8      1.211      1.366
REMARK  Name = 
REMARK  13 active torsions:
REMARK  status: ('A' for Active; 'I' for Inactive)
REMARK    1  A    between atoms: C_1  and  C_2
REMARK    2  A    between atoms: C_2  and  N_3
REMARK    3  A    between atoms: N_3  and  C_4
REMARK    4  A    between atoms: N_3  and  C_6
REMARK    5  A    between atoms: C_4  and  C_5
REMARK    6  A    between atoms: C_6  and  C_7
REMARK    7  A    between atoms: C_7  and  C_8
REMARK    8  A    between atoms: C_8  and  N_9
REMARK    9  A    between atoms: C_10  and  C_12
REMARK   10  A    between atoms: C_12  and  N_13
REMARK   11  A    between atoms: C_15  and  C_16
REMARK   12  A    between atoms: C_19  and  O_20
REMARK   13  A    between atoms: O_20  and  C_21
REMARK                            x       y       z     vdW  Elec       q    Type
REMARK                         _______ _______ _______ _____ _____    ______ ____
ROOT
ATOM      1  N   UNL     1       4.939   5.855  16.898  0.00  0.00    +0.000 N 
ATOM      2  N   UNL     1       4.191   6.863  17.446  0.00  0.00    +0.000 NA
ATOM      3  C   UNL     1       3.095   6.577  18.078  0.00  0.00    +0.000 C 
ATOM      4  C   UNL     1       2.600   5.167  18.274  0.00  0.00    +0.000 C 
ATOM      5  C   UNL     1       3.126   4.232  17.218  0.00  0.00    +0.000 C 
ATOM      6  C   UNL     1       4.541   4.530  16.810  0.00  0.00    +0.000 C 
ATOM      7  O   UNL     1       5.252   3.632  16.344  0.00  0.00    +0.000 OA
ENDROOT
BRANCH   3   8
ATOM      8  C   UNL     1       2.312   7.680  18.703  0.00  0.00    +0.000 A 
ATOM      9  C   UNL     1       1.968   7.605  20.056  0.00  0.00    +0.000 A 
ATOM     10  C   UNL     1       1.207   8.622  20.636  0.00  0.00    +0.000 A 
ATOM     11  C   UNL     1       0.793   9.719  19.878  0.00  0.00    +0.000 A 
ATOM     12  C   UNL     1       1.123   9.788  18.522  0.00  0.00    +0.000 A 
ATOM     13  C   UNL     1       1.882   8.771  17.938  0.00  0.00    +0.000 A 
BRANCH  11  14
ATOM     14  O   UNL     1       0.027  10.635  20.545  0.00  0.00    +0.000 OA
ATOM     15  C   UNL     1      -0.010  11.938  19.974  0.00  0.00    +0.000 C 
ENDBRANCH  11  14
ENDBRANCH   3   8
BRANCH   1  16
ATOM     16  C   UNL     1       6.252   6.236  16.372  0.00  0.00    +0.000 C 
BRANCH  16  18
ATOM     17  N   UNL     1       7.461   8.047  17.502  0.00  0.00    +0.000 N 
ATOM     18  C   UNL     1       7.216   6.692  17.464  0.00  0.00    +0.000 C 
ATOM     19  O   UNL     1       7.838   5.889  18.152  0.00  0.00    +0.000 OA
ATOM     20  H   UNL     1       7.043   8.615  16.768  0.00  0.00    +0.000 HD
BRANCH  17  21
ATOM     21  C   UNL     1       8.421   8.642  18.403  0.00  0.00    +0.000 C 
BRANCH  21  22
ATOM     22  C   UNL     1       8.783  10.075  18.022  0.00  0.00    +0.000 C 
BRANCH  22  23
ATOM     23  C   UNL     1       9.192  10.952  19.219  0.00  0.00    +0.000 C 
BRANCH  23  24
ATOM     24  N   UNL     1       9.801  12.250  18.856  0.00  0.00    +0.000 NA
BRANCH  24  26
ATOM     25  C   UNL     1       9.205  14.472  19.930  0.00  0.00    +0.000 C 
ATOM     26  C   UNL     1       8.820  13.341  18.985  0.00  0.00    +0.000 C 
ENDBRANCH  24  26
BRANCH  24  27
ATOM     27  C   UNL     1      11.055  12.484  19.598  0.00  0.00    +0.000 C 
ATOM     28  C   UNL     1      12.221  11.553  19.266  0.00  0.00    +0.000 C 
ENDBRANCH  24  27
ENDBRANCH  23  24
ENDBRANCH  22  23
ENDBRANCH  21  22
ENDBRANCH  17  21
ENDBRANCH  16  18
ENDBRANCH   1  16
TORSDOF 10
ENDMDL
MODEL 9
REMARK VINA RESULT:      -6.7      4.061      6.306
REMARK  Name = 
REMARK  13 active torsions:
REMARK  status: ('A' for Active; 'I' for Inactive)
REMARK    1  A    between atoms: C_1  and  C_2
REMARK    2  A    between atoms: C_2  and  N_3
REMARK    3  A    between atoms: N_3  and  C_4
REMARK    4  A    between atoms: N_3  and  C_6
REMARK    5  A    between atoms: C_4  and  C_5
REMARK    6  A    between atoms: C_6  and  C_7
REMARK    7  A    between atoms: C_7  and  C_8
REMARK    8  A    between atoms: C_8  and  N_9
REMARK    9  A    between atoms: C_10  and  C_12
REMARK   10  A    between atoms: C_12  and  N_13
REMARK   11  A    between atoms: C_15  and  C_16
REMARK   12  A    between atoms: C_19  and  O_20
REMARK   13  A    between atoms: O_20  and  C_21
REMARK                            x       y       z     vdW  Elec       q    Type
REMARK                         _______ _______ _______ _____ _____    ______ ____
ROOT
ATOM      1  N   UNL     1       4.605   4.558  19.179  0.00  0.00    +0.000 N 
ATOM      2  N   UNL     1       4.041   5.793  18.995  0.00  0.00    +0.000 NA
ATOM      3  C   UNL     1       2.829   6.011  19.401  0.00  0.00    +0.000 C 
ATOM      4  C   UNL     1       1.995   4.973  20.105  0.00  0.00    +0.000 C 
ATOM      5  C   UNL     1       2.435   3.573  19.770  0.00  0.00    +0.000 C 
ATOM      6  C   UNL     1       3.924   3.435  19.626  0.00  0.00    +0.000 C 
ATOM      7  O   UNL     1       4.465   2.341  19.821  0.00  0.00    +0.000 OA
ENDROOT
BRANCH   3   8
ATOM      8  C   UNL     1       2.244   7.372  19.228  0.00  0.00    +0.000 A 
ATOM      9  C   UNL     1       1.648   8.012  20.319  0.00  0.00    +0.000 A 
ATOM     10  C   UNL     1       1.071   9.273  20.152  0.00  0.00    +0.000 A 
ATOM     11  C   UNL     1       1.090   9.903  18.907  0.00  0.00    +0.000 A 
ATOM     12  C   UNL     1       1.671   9.257  17.813  0.00  0.00    +0.000 A 
ATOM     13  C   UNL     1       2.248   7.995  17.975  0.00  0.00    +0.000 A 
BRANCH  11  14
ATOM     14  O   UNL     1       0.467  11.120  18.857  0.00  0.00    +0.000 OA
ATOM     15  C   UNL     1      -0.907  11.092  18.488  0.00  0.00    +0.000 C 
ENDBRANCH  11  14
ENDBRANCH   3   8
BRANCH   1  16
ATOM     16  C   UNL     1       6.032   4.444  18.872  0.00  0.00    +0.000 C 
BRANCH  16  18
ATOM     17  N   UNL     1       5.491   5.007  16.546  0.00  0.00    +0.000 N 
ATOM     18  C   UNL     1       6.412   5.133  17.564  0.00  0.00    +0.000 C 
ATOM     19  O   UNL     1       7.522   5.628  17.393  0.00  0.00    +0.000 OA
ATOM     20  H   UNL     1       4.681   4.417  16.723  0.00  0.00    +0.000 HD
BRANCH  17  21
ATOM     21  C   UNL     1       5.729   5.509  15.213  0.00  0.00    +0.000 C 
BRANCH  21  22
ATOM     22  C   UNL     1       5.165   4.597  14.127  0.00  0.00    +0.000 C 
BRANCH  22  23
ATOM     23  C   UNL     1       6.236   3.781  13.381  0.00  0.00    +0.000 C 
BRANCH  23  24
ATOM     24  N   UNL     1       5.788   3.197  12.098  0.00  0.00    +0.000 NA
BRANCH  24  26
ATOM     25  C   UNL     1       7.057   1.630  10.556  0.00  0.00    +0.000 C 
ATOM     26  C   UNL     1       6.377   1.862  11.899  0.00  0.00    +0.000 C 
ENDBRANCH  24  26
BRANCH  24  27
ATOM     27  C   UNL     1       4.318   3.225  11.977  0.00  0.00    +0.000 C 
ATOM     28  C   UNL     1       3.758   3.696  10.635  0.00  0.00    +0.000 C 
ENDBRANCH  24  27
ENDBRANCH  23  24
ENDBRANCH  22  23
ENDBRANCH  21  22
ENDBRANCH  17  21
ENDBRANCH  16  18
ENDBRANCH   1  16
TORSDOF 10
ENDMDL
