MODEL 1
REMARK VINA RESULT:      -6.8      0.000      0.000
REMARK  Name = 
REMARK  19 active torsions:
REMARK  status: ('A' for Active; 'I' for Inactive)
REMARK    1  A    between atoms: C_1  and  O_2
REMARK    2  A    between atoms: O_2  and  C_3
REMARK    3  A    between atoms: C_3  and  C_5
REMARK    4  A    between atoms: C_5  and  N_6
REMARK    5  A    between atoms: C_7  and  C_9
REMARK    6  A    between atoms: C_9  and  C_10
REMARK    7  A    between atoms: C_10  and  C_11
REMARK    8  A    between atoms: C_11  and  C_12
REMARK    9  A    between atoms: C_15  and  O_16
REMARK   10  A    between atoms: O_16  and  C_17
REMARK   11  A    between atoms: C_17  and  C_18
REMARK   12  A    between atoms: C_18  and  C_19
REMARK   13  A    between atoms: C_19  and  N_20
REMARK   14  A    between atoms: C_21  and  C_22
REMARK   15  A    between atoms: C_22  and  C_23
REMARK   16  A    between atoms: C_23  and  C_24
REMARK   17  A    between atoms: C_24  and  C_25
REMARK   18  A    between atoms: C_25  and  C_26
REMARK   19  A    between atoms: C_25  and  C_27
REMARK                            x       y       z     vdW  Elec       q    Type
REMARK                         _______ _______ _______ _____ _____    ______ ____
ROOT
ATOM      1  C   UNL     1       4.654   3.752  17.553  0.00  0.00    +0.000 A 
ATOM      2  C   UNL     1       4.860   4.782  18.456  0.00  0.00    +0.000 A 
ATOM      3  C   UNL     1       5.721   5.823  18.129  0.00  0.00    +0.000 A 
ATOM      4  C   UNL     1       6.392   5.882  16.894  0.00  0.00    +0.000 A 
ATOM      5  C   UNL     1       6.188   4.841  15.963  0.00  0.00    +0.000 A 
ATOM      6  C   UNL     1       5.318   3.786  16.323  0.00  0.00    +0.000 A 
ENDROOT
BRANCH   1   7
ATOM      7  C   UNL     1       3.702   2.640  17.897  0.00  0.00    +0.000 C 
BRANCH   7   8
ATOM      8  C   UNL     1       2.251   2.947  17.544  0.00  0.00    +0.000 C 
BRANCH   8   9
ATOM      9  C   UNL     1       1.258   2.643  18.667  0.00  0.00    +0.000 C 
BRANCH   9  11
ATOM     10  N   UNL     1       1.490   4.833  19.685  0.00  0.00    +0.000 N 
ATOM     11  C   UNL     1       1.587   3.480  19.885  0.00  0.00    +0.000 C 
ATOM     12  O   UNL     1       1.918   2.998  20.970  0.00  0.00    +0.000 OA
ATOM     13  H   UNL     1       1.224   5.219  18.782  0.00  0.00    +0.000 HD
BRANCH  10  14
ATOM     14  C   UNL     1       1.799   5.744  20.772  0.00  0.00    +0.000 C 
BRANCH  14  15
ATOM     15  C   UNL     1       1.798   7.183  20.302  0.00  0.00    +0.000 C 
ATOM     16  O   UNL     1       1.277   8.112  20.918  0.00  0.00    +0.000 OA
BRANCH  15  18
ATOM     17  C   UNL     1       2.060   8.430  18.341  0.00  0.00    +0.000 C 
ATOM     18  O   UNL     1       2.451   7.294  19.113  0.00  0.00    +0.000 OA
ENDBRANCH  15  18
ENDBRANCH  14  15
ENDBRANCH  10  14
ENDBRANCH   9  11
ENDBRANCH   8   9
ENDBRANCH   7   8
ENDBRANCH   1   7
BRANCH   4  19
ATOM     19  O   UNL     1       7.230   6.939  16.579  0.00  0.00    +0.000 OA
BRANCH  19  20
ATOM     20  C   UNL     1       7.878   7.528  17.723  0.00  0.00    +0.000 C 
BRANCH  20  21
ATOM     21  C   UNL     1       7.900   9.049  17.709  0.00  0.00    +0.000 C 
BRANCH  21  22
ATOM     22  C   UNL     1       8.839   9.581  18.782  0.00  0.00    +0.000 C 
BRANCH  22  23
ATOM     23  N   UNL     1       9.533  10.771  18.306  0.00  0.00    +0.000 NA
ATOM     24  H   UNL     1       9.070  11.134  17.473  0.00  0.00    +0.000 HD
ATOM     25  H   UNL     1      10.475  10.506  18.016  0.00  0.00    +0.000 HD
ENDBRANCH  22  23
ENDBRANCH  21  22
ENDBRANCH  20  21
ENDBRANCH  19  20
ENDBRANCH   4  19
BRANCH   5  26
ATOM     26  C   UNL     1       6.770   4.765  14.566  0.00  0.00    +0.000 C 
BRANCH  26  27
ATOM     27  C   UNL     1       6.266   3.634  13.674  0.00  0.00    +0.000 C 
BRANCH  27  28
ATOM     28  C   UNL     1       5.049   4.026  12.830  0.00  0.00    +0.000 C 
BRANCH  28  29
ATOM     29  C   UNL     1       5.027   3.317  11.464  0.00  0.00    +0.000 C 
ATOM     30  C   UNL     1       5.721   1.955  11.519  0.00  0.00    +0.000 C 
ATOM     31  C   UNL     1       3.582   3.150  10.992  0.00  0.00    +0.000 C 
ENDBRANCH  28  29
ENDBRANCH  27  28
ENDBRANCH  26  27
ENDBRANCH   5  26
TORSDOF 16
ENDMDL
MODEL 2
REMARK VINA RESULT:      -6.8      3.234      6.469
REMARK  Name = 
REMARK  19 active torsions:
REMARK  status: ('A' for Active; 'I' for Inactive)
REMARK    1  A    between atoms: C_1  and  O_2
REMARK    2  A    between atoms: O_2  and  C_3
REMARK    3  A    between atoms: C_3  and  C_5
REMARK    4  A    between atoms: C_5  and  N_6
REMARK    5  A    between atoms: C_7  and  C_9
REMARK    6  A    between atoms: C_9  and  C_10
REMARK    7  A    between atoms: C_10  and  C_11
REMARK    8  A    between atoms: C_11  and  C_12
REMARK    9  A    between atoms: C_15  and  O_16
REMARK   10  A    between atoms: O_16  and  C_17
REMARK   11  A    between atoms: C_17  and  C_18
REMARK   12  A    between atoms: C_18  and  C_19
REMARK   13  A    between atoms: C_19  and  N_20
REMARK   14  A    between atoms: C_21  and  C_22
REMARK   15  A    between atoms: C_22  and  C_23
REMARK   16  A    between atoms: C_23  and  C_24
REMARK   17  A    between atoms: C_24  and  C_25
REMARK   18  A    between atoms: C_25  and  C_26
REMARK   19  A    between atoms: C_25  and  C_27
REMARK                            x       y       z     vdW  Elec       q    Type
REMARK                         _______ _______ _______ _____ _____    ______ ____
ROOT
ATOM      1  C   UNL     1       3.295   6.570  18.037  0.00  0.00    +0.000 A 
ATOM      2  C   UNL     1       4.166   7.112  17.105  0.00  0.00    +0.000 A 
ATOM      3  C   UNL     1       4.935   6.270  16.311  0.00  0.00    +0.000 A 
ATOM      4  C   UNL     1       4.857   4.869  16.406  0.00  0.00    +0.000 A 
ATOM      5  C   UNL     1       3.971   4.304  17.348  0.00  0.00    +0.000 A 
ATOM      6  C   UNL     1       3.207   5.180  18.155  0.00  0.00    +0.000 A 
ENDROOT
BRANCH   1   7
ATOM      7  C   UNL     1       2.444   7.480  18.878  0.00  0.00    +0.000 C 
BRANCH   7   8
ATOM      8  C   UNL     1       2.357   8.904  18.340  0.00  0.00    +0.000 C 
BRANCH   8   9
ATOM      9  C   UNL     1       0.999   9.258  17.728  0.00  0.00    +0.000 C 
BRANCH   9  11
ATOM     10  N   UNL     1       0.238   9.625  20.003  0.00  0.00    +0.000 N 
ATOM     11  C   UNL     1       0.191  10.080  18.710  0.00  0.00    +0.000 C 
ATOM     12  O   UNL     1      -0.461  11.074  18.387  0.00  0.00    +0.000 OA
ATOM     13  H   UNL     1       0.773   8.797  20.256  0.00  0.00    +0.000 HD
BRANCH  10  14
ATOM     14  C   UNL     1      -0.512  10.316  21.036  0.00  0.00    +0.000 C 
BRANCH  14  15
ATOM     15  C   UNL     1       0.168  10.198  22.383  0.00  0.00    +0.000 C 
ATOM     16  O   UNL     1       1.214   9.582  22.579  0.00  0.00    +0.000 OA
BRANCH  15  18
ATOM     17  C   UNL     1      -1.124  12.086  22.871  0.00  0.00    +0.000 C 
ATOM     18  O   UNL     1      -0.544  10.865  23.332  0.00  0.00    +0.000 OA
ENDBRANCH  15  18
ENDBRANCH  14  15
ENDBRANCH  10  14
ENDBRANCH   9  11
ENDBRANCH   8   9
ENDBRANCH   7   8
ENDBRANCH   1   7
BRANCH   4  19
ATOM     19  O   UNL     1       5.617   4.048  15.590  0.00  0.00    +0.000 OA
BRANCH  19  20
ATOM     20  C   UNL     1       5.469   4.325  14.185  0.00  0.00    +0.000 C 
BRANCH  20  21
ATOM     21  C   UNL     1       6.455   3.581  13.297  0.00  0.00    +0.000 C 
BRANCH  21  22
ATOM     22  C   UNL     1       5.791   3.159  11.995  0.00  0.00    +0.000 C 
BRANCH  22  23
ATOM     23  N   UNL     1       6.065   1.755  11.715  0.00  0.00    +0.000 NA
ATOM     24  H   UNL     1       6.415   1.653  10.762  0.00  0.00    +0.000 HD
ATOM     25  H   UNL     1       5.188   1.236  11.754  0.00  0.00    +0.000 HD
ENDBRANCH  22  23
ENDBRANCH  21  22
ENDBRANCH  20  21
ENDBRANCH  19  20
ENDBRANCH   4  19
BRANCH   5  26
ATOM     26  C   UNL     1       3.704   2.825  17.549  0.00  0.00    +0.000 C 
BRANCH  26  27
ATOM     27  C   UNL     1       3.403   2.371  18.974  0.00  0.00    +0.000 C 
BRANCH  27  28
ATOM     28  C   UNL     1       1.925   2.041  19.204  0.00  0.00    +0.000 C 
BRANCH  28  29
ATOM     29  C   UNL     1       1.389   2.628  20.522  0.00  0.00    +0.000 C 
ATOM     30  C   UNL     1       2.468   2.671  21.606  0.00  0.00    +0.000 C 
ATOM     31  C   UNL     1       0.838   4.033  20.276  0.00  0.00    +0.000 C 
ENDBRANCH  28  29
ENDBRANCH  27  28
ENDBRANCH  26  27
ENDBRANCH   5  26
TORSDOF 16
ENDMDL
MODEL 3
REMARK VINA RESULT:      -6.7      3.684      6.288
REMARK  Name = 
REMARK  19 active torsions:
REMARK  status: ('A' for Active; 'I' for Inactive)
REMARK    1  A    between atoms: C_1  and  O_2
REMARK    2  A    between atoms: O_2  and  C_3
REMARK    3  A    between atoms: C_3  and  C_5
REMARK    4  A    between atoms: C_5  and  N_6
REMARK    5  A    between atoms: C_7  and  C_9
REMARK    6  A    between atoms: C_9  and  C_10
REMARK    7  A    between atoms: C_10  and  C_11
REMARK    8  A    between atoms: C_11  and  C_12
REMARK    9  A    between atoms: C_15  and  O_16
REMARK   10  A    between atoms: O_16  and  C_17
REMARK   11  A    between atoms: C_17  and  C_18
REMARK   12  A    between atoms: C_18  and  C_19
REMARK   13  A    between atoms: C_19  and  N_20
REMARK   14  A    between atoms: C_21  and  C_22
REMARK   15  A    between atoms: C_22  and  C_23
REMARK   16  A    between atoms: C_23  and  C_24
REMARK   17  A    between atoms: C_24  and  C_25
REMARK   18  A    between atoms: C_25  and  C_26
REMARK   19  A    between atoms: C_25  and  C_27
REMARK                            x       y       z     vdW  Elec       q    Type
REMARK                         _______ _______ _______ _____ _____    ______ ____
ROOT
ATOM      1  C   UNL     1       2.936   6.938  17.955  0.00  0.00    +0.000 A 
ATOM      2  C   UNL     1       4.105   7.511  17.480  0.00  0.00    +0.000 A 
ATOM      3  C   UNL     1       5.089   6.704  16.920  0.00  0.00    +0.000 A 
ATOM      4  C   UNL     1       4.940   5.310  16.803  0.00  0.00    +0.000 A 
ATOM      5  C   UNL     1       3.753   4.714  17.279  0.00  0.00    +0.000 A 
ATOM      6  C   UNL     1       2.770   5.553  17.856  0.00  0.00    +0.000 A 
ENDROOT
BRANCH   1   7
ATOM      7  C   UNL     1       1.861   7.814  18.536  0.00  0.00    +0.000 C 
BRANCH   7   8
ATOM      8  C   UNL     1       1.494   8.999  17.649  0.00  0.00    +0.000 C 
BRANCH   8   9
ATOM      9  C   UNL     1       1.067  10.248  18.424  0.00  0.00    +0.000 C 
BRANCH   9  11
ATOM     10  N   UNL     1      -1.102   9.993  17.368  0.00  0.00    +0.000 N 
ATOM     11  C   UNL     1      -0.442  10.296  18.531  0.00  0.00    +0.000 C 
ATOM     12  O   UNL     1      -1.039  10.587  19.570  0.00  0.00    +0.000 OA
ATOM     13  H   UNL     1      -0.598   9.764  16.515  0.00  0.00    +0.000 HD
BRANCH  10  14
ATOM     14  C   UNL     1      -2.553  10.024  17.337  0.00  0.00    +0.000 C 
BRANCH  14  15
ATOM     15  C   UNL     1      -3.066  10.506  15.998  0.00  0.00    +0.000 C 
ATOM     16  O   UNL     1      -2.432  10.433  14.946  0.00  0.00    +0.000 OA
BRANCH  15  18
ATOM     17  C   UNL     1      -4.572  11.607  17.409  0.00  0.00    +0.000 C 
ATOM     18  O   UNL     1      -4.316  11.028  16.129  0.00  0.00    +0.000 OA
ENDBRANCH  15  18
ENDBRANCH  14  15
ENDBRANCH  10  14
ENDBRANCH   9  11
ENDBRANCH   8   9
ENDBRANCH   7   8
ENDBRANCH   1   7
BRANCH   4  19
ATOM     19  O   UNL     1       5.924   4.527  16.224  0.00  0.00    +0.000 OA
BRANCH  19  20
ATOM     20  C   UNL     1       7.195   4.597  16.897  0.00  0.00    +0.000 C 
BRANCH  20  21
ATOM     21  C   UNL     1       7.098   4.563  18.415  0.00  0.00    +0.000 C 
BRANCH  21  22
ATOM     22  C   UNL     1       7.844   5.738  19.026  0.00  0.00    +0.000 C 
BRANCH  22  23
ATOM     23  N   UNL     1       8.176   5.462  20.419  0.00  0.00    +0.000 NA
ATOM     24  H   UNL     1       8.966   4.820  20.467  0.00  0.00    +0.000 HD
ATOM     25  H   UNL     1       7.389   4.979  20.853  0.00  0.00    +0.000 HD
ENDBRANCH  22  23
ENDBRANCH  21  22
ENDBRANCH  20  21
ENDBRANCH  19  20
ENDBRANCH   4  19
BRANCH   5  26
ATOM     26  C   UNL     1       3.387   3.246  17.182  0.00  0.00    +0.000 C 
BRANCH  26  27
ATOM     27  C   UNL     1       3.144   2.512  18.497  0.00  0.00    +0.000 C 
BRANCH  27  28
ATOM     28  C   UNL     1       3.608   3.302  19.725  0.00  0.00    +0.000 C 
BRANCH  28  29
ATOM     29  C   UNL     1       2.520   3.396  20.810  0.00  0.00    +0.000 C 
ATOM     30  C   UNL     1       2.204   4.847  21.175  0.00  0.00    +0.000 C 
ATOM     31  C   UNL     1       1.252   2.688  20.332  0.00  0.00    +0.000 C 
ENDBRANCH  28  29
ENDBRANCH  27  28
ENDBRANCH  26  27
ENDBRANCH   5  26
TORSDOF 16
ENDMDL
MODEL 4
REMARK VINA RESULT:      -6.7      3.523      6.894
REMARK  Name = 
REMARK  19 active torsions:
REMARK  status: ('A' for Active; 'I' for Inactive)
REMARK    1  A    between atoms: C_1  and  O_2
REMARK    2  A    between atoms: O_2  and  C_3
REMARK    3  A    between atoms: C_3  and  C_5
REMARK    4  A    between atoms: C_5  and  N_6
REMARK    5  A    between atoms: C_7  and  C_9
REMARK    6  A    between atoms: C_9  and  C_10
REMARK    7  A    between atoms: C_10  and  C_11
REMARK    8  A    between atoms: C_11  and  C_12
REMARK    9  A    between atoms: C_15  and  O_16
REMARK   10  A    between atoms: O_16  and  C_17
REMARK   11  A    between atoms: C_17  and  C_18
REMARK   12  A    between atoms: C_18  and  C_19
REMARK   13  A    between atoms: C_19  and  N_20
REMARK   14  A    between atoms: C_21  and  C_22
REMARK   15  A    between atoms: C_22  and  C_23
REMARK   16  A    between atoms: C_23  and  C_24
REMARK   17  A    between atoms: C_24  and  C_25
REMARK   18  A    between atoms: C_25  and  C_26
REMARK   19  A    between atoms: C_25  and  C_27
REMARK                            x       y       z     vdW  Elec       q    Type
REMARK                         _______ _______ _______ _____ _____    ______ ____
ROOT
ATOM      1  C   UNL     1       3.006   7.527  18.061  0.00  0.00    +0.000 A 
ATOM      2  C   UNL     1       2.736   6.913  19.273  0.00  0.00    +0.000 A 
ATOM      3  C   UNL     1       3.164   5.609  19.495  0.00  0.00    +0.000 A 
ATOM      4  C   UNL     1       3.881   4.879  18.529  0.00  0.00    +0.000 A 
ATOM      5  C   UNL     1       4.166   5.493  17.292  0.00  0.00    +0.000 A 
ATOM      6  C   UNL     1       3.710   6.817  17.083  0.00  0.00    +0.000 A 
ENDROOT
BRANCH   1   7
ATOM      7  C   UNL     1       2.567   8.946  17.831  0.00  0.00    +0.000 C 
BRANCH   7   8
ATOM      8  C   UNL     1       1.074   9.166  18.048  0.00  0.00    +0.000 C 
BRANCH   8   9
ATOM      9  C   UNL     1       0.734   9.895  19.350  0.00  0.00    +0.000 C 
BRANCH   9  11
ATOM     10  N   UNL     1      -1.000  10.773  17.898  0.00  0.00    +0.000 N 
ATOM     11  C   UNL     1      -0.352  10.919  19.098  0.00  0.00    +0.000 C 
ATOM     12  O   UNL     1      -0.637  11.815  19.894  0.00  0.00    +0.000 OA
ATOM     13  H   UNL     1      -0.749  10.034  17.245  0.00  0.00    +0.000 HD
BRANCH  10  14
ATOM     14  C   UNL     1      -2.050  11.705  17.530  0.00  0.00    +0.000 C 
BRANCH  14  15
ATOM     15  C   UNL     1      -3.112  11.034  16.687  0.00  0.00    +0.000 C 
ATOM     16  O   UNL     1      -4.312  11.302  16.743  0.00  0.00    +0.000 OA
BRANCH  15  18
ATOM     17  C   UNL     1      -3.039  10.139  14.527  0.00  0.00    +0.000 C 
ATOM     18  O   UNL     1      -2.550  10.103  15.868  0.00  0.00    +0.000 OA
ENDBRANCH  15  18
ENDBRANCH  14  15
ENDBRANCH  10  14
ENDBRANCH   9  11
ENDBRANCH   8   9
ENDBRANCH   7   8
ENDBRANCH   1   7
BRANCH   4  19
ATOM     19  O   UNL     1       4.315   3.588  18.778  0.00  0.00    +0.000 OA
BRANCH  19  20
ATOM     20  C   UNL     1       3.387   2.570  18.357  0.00  0.00    +0.000 C 
BRANCH  20  21
ATOM     21  C   UNL     1       2.516   2.021  19.477  0.00  0.00    +0.000 C 
BRANCH  21  22
ATOM     22  C   UNL     1       1.098   2.562  19.368  0.00  0.00    +0.000 C 
BRANCH  22  23
ATOM     23  N   UNL     1       0.368   1.867  18.315  0.00  0.00    +0.000 NA
ATOM     24  H   UNL     1      -0.342   1.261  18.726  0.00  0.00    +0.000 HD
ATOM     25  H   UNL     1       1.014   1.254  17.819  0.00  0.00    +0.000 HD
ENDBRANCH  22  23
ENDBRANCH  21  22
ENDBRANCH  20  21
ENDBRANCH  19  20
ENDBRANCH   4  19
BRANCH   5  26
ATOM     26  C   UNL     1       4.977   4.893  16.161  0.00  0.00    +0.000 C 
BRANCH  26  27
ATOM     27  C   UNL     1       6.443   5.304  16.075  0.00  0.00    +0.000 C 
BRANCH  27  28
ATOM     28  C   UNL     1       7.291   4.765  17.232  0.00  0.00    +0.000 C 
BRANCH  28  29
ATOM     29  C   UNL     1       7.802   5.882  18.159  0.00  0.00    +0.000 C 
ATOM     30  C   UNL     1       7.476   7.272  17.608  0.00  0.00    +0.000 C 
ATOM     31  C   UNL     1       7.193   5.716  19.552  0.00  0.00    +0.000 C 
ENDBRANCH  28  29
ENDBRANCH  27  28
ENDBRANCH  26  27
ENDBRANCH   5  26
TORSDOF 16
ENDMDL
MODEL 5
REMARK VINA RESULT:      -6.7      3.641      6.848
REMARK  Name = 
REMARK  19 active torsions:
REMARK  status: ('A' for Active; 'I' for Inactive)
REMARK    1  A    between atoms: C_1  and  O_2
REMARK    2  A    between atoms: O_2  and  C_3
REMARK    3  A    between atoms: C_3  and  C_5
REMARK    4  A    between atoms: C_5  and  N_6
REMARK    5  A    between atoms: C_7  and  C_9
REMARK    6  A    between atoms: C_9  and  C_10
REMARK    7  A    between atoms: C_10  and  C_11
REMARK    8  A    between atoms: C_11  and  C_12
REMARK    9  A    between atoms: C_15  and  O_16
REMARK   10  A    between atoms: O_16  and  C_17
REMARK   11  A    between atoms: C_17  and  C_18
REMARK   12  A    between atoms: C_18  and  C_19
REMARK   13  A    between atoms: C_19  and  N_20
REMARK   14  A    between atoms: C_21  and  C_22
REMARK   15  A    between atoms: C_22  and  C_23
REMARK   16  A    between atoms: C_23  and  C_24
REMARK   17  A    between atoms: C_24  and  C_25
REMARK   18  A    between atoms: C_25  and  C_26
REMARK   19  A    between atoms: C_25  and  C_27
REMARK                            x       y       z     vdW  Elec       q    Type
REMARK                         _______ _______ _______ _____ _____    ______ ____
ROOT
ATOM      1  C   UNL     1       2.922   6.766  17.710  0.00  0.00    +0.000 A 
ATOM      2  C   UNL     1       1.761   6.149  18.148  0.00  0.00    +0.000 A 
ATOM      3  C   UNL     1       1.674   4.762  18.143  0.00  0.00    +0.000 A 
ATOM      4  C   UNL     1       2.737   3.945  17.717  0.00  0.00    +0.000 A 
ATOM      5  C   UNL     1       3.926   4.559  17.273  0.00  0.00    +0.000 A 
ATOM      6  C   UNL     1       3.988   5.973  17.274  0.00  0.00    +0.000 A 
ENDROOT
BRANCH   1   7
ATOM      7  C   UNL     1       3.025   8.265  17.740  0.00  0.00    +0.000 C 
BRANCH   7   8
ATOM      8  C   UNL     1       1.680   8.968  17.884  0.00  0.00    +0.000 C 
BRANCH   8   9
ATOM      9  C   UNL     1       1.780  10.414  18.373  0.00  0.00    +0.000 C 
BRANCH   9  11
ATOM     10  N   UNL     1      -0.585  10.556  17.851  0.00  0.00    +0.000 N 
ATOM     11  C   UNL     1       0.403  10.936  18.723  0.00  0.00    +0.000 C 
ATOM     12  O   UNL     1       0.176  11.647  19.704  0.00  0.00    +0.000 OA
ATOM     13  H   UNL     1      -0.383   9.976  17.040  0.00  0.00    +0.000 HD
BRANCH  10  14
ATOM     14  C   UNL     1      -1.947  11.008  18.067  0.00  0.00    +0.000 C 
BRANCH  14  15
ATOM     15  C   UNL     1      -2.842  10.637  16.905  0.00  0.00    +0.000 C 
ATOM     16  O   UNL     1      -2.439  10.404  15.767  0.00  0.00    +0.000 OA
BRANCH  15  18
ATOM     17  C   UNL     1      -4.901  11.747  16.918  0.00  0.00    +0.000 C 
ATOM     18  O   UNL     1      -4.144  10.599  17.303  0.00  0.00    +0.000 OA
ENDBRANCH  15  18
ENDBRANCH  14  15
ENDBRANCH  10  14
ENDBRANCH   9  11
ENDBRANCH   8   9
ENDBRANCH   7   8
ENDBRANCH   1   7
BRANCH   4  19
ATOM     19  O   UNL     1       2.637   2.564  17.740  0.00  0.00    +0.000 OA
BRANCH  19  20
ATOM     20  C   UNL     1       2.312   2.025  19.036  0.00  0.00    +0.000 C 
BRANCH  20  21
ATOM     21  C   UNL     1       3.233   2.495  20.152  0.00  0.00    +0.000 C 
BRANCH  21  22
ATOM     22  C   UNL     1       2.441   2.760  21.424  0.00  0.00    +0.000 C 
BRANCH  22  23
ATOM     23  N   UNL     1       1.021   2.896  21.120  0.00  0.00    +0.000 NA
ATOM     24  H   UNL     1       0.648   3.729  21.573  0.00  0.00    +0.000 HD
ATOM     25  H   UNL     1       0.523   2.103  21.526  0.00  0.00    +0.000 HD
ENDBRANCH  22  23
ENDBRANCH  21  22
ENDBRANCH  20  21
ENDBRANCH  19  20
ENDBRANCH   4  19
BRANCH   5  26
ATOM     26  C   UNL     1       5.193   3.848  16.840  0.00  0.00    +0.000 C 
BRANCH  26  27
ATOM     27  C   UNL     1       6.369   4.730  16.433  0.00  0.00    +0.000 C 
BRANCH  27  28
ATOM     28  C   UNL     1       7.585   4.578  17.353  0.00  0.00    +0.000 C 
BRANCH  28  29
ATOM     29  C   UNL     1       7.758   5.778  18.303  0.00  0.00    +0.000 C 
ATOM     30  C   UNL     1       7.438   7.103  17.609  0.00  0.00    +0.000 C 
ATOM     31  C   UNL     1       6.862   5.599  19.529  0.00  0.00    +0.000 C 
ENDBRANCH  28  29
ENDBRANCH  27  28
ENDBRANCH  26  27
ENDBRANCH   5  26
TORSDOF 16
ENDMDL
MODEL 6
REMARK VINA RESULT:      -6.7      3.220      7.319
REMARK  Name = 
REMARK  19 active torsions:
REMARK  status: ('A' for Active; 'I' for Inactive)
REMARK    1  A    between atoms: C_1  and  O_2
REMARK    2  A    between atoms: O_2  and  C_3
REMARK    3  A    between atoms: C_3  and  C_5
REMARK    4  A    between atoms: C_5  and  N_6
REMARK    5  A    between atoms: C_7  and  C_9
REMARK    6  A    between atoms: C_9  and  C_10
REMARK    7  A    between atoms: C_10  and  C_11
REMARK    8  A    between atoms: C_11  and  C_12
REMARK    9  A    between atoms: C_15  and  O_16
REMARK   10  A    between atoms: O_16  and  C_17
REMARK   11  A    between atoms: C_17  and  C_18
REMARK   12  A    between atoms: C_18  and  C_19
REMARK   13  A    between atoms: C_19  and  N_20
REMARK   14  A    between atoms: C_21  and  C_22
REMARK   15  A    between atoms: C_22  and  C_23
REMARK   16  A    between atoms: C_23  and  C_24
REMARK   17  A    between atoms: C_24  and  C_25
REMARK   18  A    between atoms: C_25  and  C_26
REMARK   19  A    between atoms: C_25  and  C_27
REMARK                            x       y       z     vdW  Elec       q    Type
REMARK                         _______ _______ _______ _____ _____    ______ ____
ROOT
ATOM      1  C   UNL     1       1.759   4.537  18.676  0.00  0.00    +0.000 A 
ATOM      2  C   UNL     1       1.503   4.480  20.036  0.00  0.00    +0.000 A 
ATOM      3  C   UNL     1       1.589   5.637  20.802  0.00  0.00    +0.000 A 
ATOM      4  C   UNL     1       1.917   6.885  20.244  0.00  0.00    +0.000 A 
ATOM      5  C   UNL     1       2.177   6.958  18.859  0.00  0.00    +0.000 A 
ATOM      6  C   UNL     1       2.096   5.767  18.100  0.00  0.00    +0.000 A 
ENDROOT
BRANCH   1   7
ATOM      7  C   UNL     1       1.641   3.292  17.843  0.00  0.00    +0.000 C 
BRANCH   7   8
ATOM      8  C   UNL     1       2.952   2.864  17.194  0.00  0.00    +0.000 C 
BRANCH   8   9
ATOM      9  C   UNL     1       4.187   3.104  18.065  0.00  0.00    +0.000 C 
BRANCH   9  11
ATOM     10  N   UNL     1       6.430   4.013  17.888  0.00  0.00    +0.000 N 
ATOM     11  C   UNL     1       5.183   3.967  17.319  0.00  0.00    +0.000 C 
ATOM     12  O   UNL     1       4.906   4.585  16.289  0.00  0.00    +0.000 OA
ATOM     13  H   UNL     1       6.643   3.506  18.743  0.00  0.00    +0.000 HD
BRANCH  10  14
ATOM     14  C   UNL     1       7.468   4.823  17.277  0.00  0.00    +0.000 C 
BRANCH  14  15
ATOM     15  C   UNL     1       7.634   6.142  18.001  0.00  0.00    +0.000 C 
ATOM     16  O   UNL     1       7.902   6.247  19.197  0.00  0.00    +0.000 OA
BRANCH  15  18
ATOM     17  C   UNL     1       7.864   8.445  17.659  0.00  0.00    +0.000 C 
ATOM     18  O   UNL     1       7.446   7.181  17.141  0.00  0.00    +0.000 OA
ENDBRANCH  15  18
ENDBRANCH  14  15
ENDBRANCH  10  14
ENDBRANCH   9  11
ENDBRANCH   8   9
ENDBRANCH   7   8
ENDBRANCH   1   7
BRANCH   4  19
ATOM     19  O   UNL     1       1.977   8.029  21.022  0.00  0.00    +0.000 OA
BRANCH  19  20
ATOM     20  C   UNL     1       0.689   8.504  21.458  0.00  0.00    +0.000 C 
BRANCH  20  21
ATOM     21  C   UNL     1       0.753   9.692  22.406  0.00  0.00    +0.000 C 
BRANCH  21  22
ATOM     22  C   UNL     1      -0.487   9.743  23.286  0.00  0.00    +0.000 C 
BRANCH  22  23
ATOM     23  N   UNL     1      -1.058  11.084  23.282  0.00  0.00    +0.000 NA
ATOM     24  H   UNL     1      -1.812  11.138  22.597  0.00  0.00    +0.000 HD
ATOM     25  H   UNL     1      -0.344  11.743  22.974  0.00  0.00    +0.000 HD
ENDBRANCH  22  23
ENDBRANCH  21  22
ENDBRANCH  20  21
ENDBRANCH  19  20
ENDBRANCH   4  19
BRANCH   5  26
ATOM     26  C   UNL     1       2.481   8.218  18.072  0.00  0.00    +0.000 C 
BRANCH  26  27
ATOM     27  C   UNL     1       1.285   9.057  17.632  0.00  0.00    +0.000 C 
BRANCH  27  28
ATOM     28  C   UNL     1       1.081  10.313  18.485  0.00  0.00    +0.000 C 
BRANCH  28  29
ATOM     29  C   UNL     1      -0.320  10.926  18.305  0.00  0.00    +0.000 C 
ATOM     30  C   UNL     1      -1.275   9.963  17.598  0.00  0.00    +0.000 C 
ATOM     31  C   UNL     1      -0.889  11.320  19.668  0.00  0.00    +0.000 C 
ENDBRANCH  28  29
ENDBRANCH  27  28
ENDBRANCH  26  27
ENDBRANCH   5  26
TORSDOF 16
ENDMDL
MODEL 7
REMARK VINA RESULT:      -6.5      3.323      6.370
REMARK  Name = 
REMARK  19 active torsions:
REMARK  status: ('A' for Active; 'I' for Inactive)
REMARK    1  A    between atoms: C_1  and  O_2
REMARK    2  A    between atoms: O_2  and  C_3
REMARK    3  A    between atoms: C_3  and  C_5
REMARK    4  A    between atoms: C_5  and  N_6
REMARK    5  A    between atoms: C_7  and  C_9
REMARK    6  A    between atoms: C_9  and  C_10
REMARK    7  A    between atoms: C_10  and  C_11
REMARK    8  A    between atoms: C_11  and  C_12
REMARK    9  A    between atoms: C_15  and  O_16
REMARK   10  A    between atoms: O_16  and  C_17
REMARK   11  A    between atoms: C_17  and  C_18
REMARK   12  A    between atoms: C_18  and  C_19
REMARK   13  A    between atoms: C_19  and  N_20
REMARK   14  A    between atoms: C_21  and  C_22
REMARK   15  A    between atoms: C_22  and  C_23
REMARK   16  A    between atoms: C_23  and  C_24
REMARK   17  A    between atoms: C_24  and  C_25
REMARK   18  A    between atoms: C_25  and  C_26
REMARK   19  A    between atoms: C_25  and  C_27
REMARK                            x       y       z     vdW  Elec       q    Type
REMARK                         _______ _______ _______ _____ _____    ______ ____
ROOT
ATOM      1  C   UNL     1       3.401   7.068  17.663  0.00  0.00    +0.000 A 
ATOM      2  C   UNL     1       4.542   7.267  16.903  0.00  0.00    +0.000 A 
ATOM      3  C   UNL     1       5.229   6.173  16.391  0.00  0.00    +0.000 A 
ATOM      4  C   UNL     1       4.800   4.850  16.605  0.00  0.00    +0.000 A 
ATOM      5  C   UNL     1       3.637   4.632  17.374  0.00  0.00    +0.000 A 
ATOM      6  C   UNL     1       2.961   5.761  17.896  0.00  0.00    +0.000 A 
ENDROOT
BRANCH   1   7
ATOM      7  C   UNL     1       2.644   8.252  18.194  0.00  0.00    +0.000 C 
BRANCH   7   8
ATOM      8  C   UNL     1       1.724   7.916  19.363  0.00  0.00    +0.000 C 
BRANCH   8   9
ATOM      9  C   UNL     1       1.404   9.107  20.269  0.00  0.00    +0.000 C 
BRANCH   9  11
ATOM     10  N   UNL     1      -0.484   9.970  19.013  0.00  0.00    +0.000 N 
ATOM     11  C   UNL     1       0.791  10.224  19.452  0.00  0.00    +0.000 C 
ATOM     12  O   UNL     1       1.378  11.276  19.192  0.00  0.00    +0.000 OA
ATOM     13  H   UNL     1      -0.955   9.094  19.226  0.00  0.00    +0.000 HD
BRANCH  10  14
ATOM     14  C   UNL     1      -1.174  10.957  18.203  0.00  0.00    +0.000 C 
BRANCH  14  15
ATOM     15  C   UNL     1      -2.643  10.621  18.057  0.00  0.00    +0.000 C 
ATOM     16  O   UNL     1      -3.069   9.546  17.635  0.00  0.00    +0.000 OA
BRANCH  15  18
ATOM     17  C   UNL     1      -2.930  12.329  19.629  0.00  0.00    +0.000 C 
ATOM     18  O   UNL     1      -3.411  11.671  18.456  0.00  0.00    +0.000 OA
ENDBRANCH  15  18
ENDBRANCH  14  15
ENDBRANCH  10  14
ENDBRANCH   9  11
ENDBRANCH   8   9
ENDBRANCH   7   8
ENDBRANCH   1   7
BRANCH   4  19
ATOM     19  O   UNL     1       5.487   3.774  16.069  0.00  0.00    +0.000 OA
BRANCH  19  20
ATOM     20  C   UNL     1       6.547   4.151  15.169  0.00  0.00    +0.000 C 
BRANCH  20  21
ATOM     21  C   UNL     1       6.240   3.889  13.702  0.00  0.00    +0.000 C 
BRANCH  21  22
ATOM     22  C   UNL     1       7.196   4.663  12.807  0.00  0.00    +0.000 C 
BRANCH  22  23
ATOM     23  N   UNL     1       8.001   5.585  13.599  0.00  0.00    +0.000 NA
ATOM     24  H   UNL     1       7.791   6.546  13.333  0.00  0.00    +0.000 HD
ATOM     25  H   UNL     1       8.984   5.435  13.376  0.00  0.00    +0.000 HD
ENDBRANCH  22  23
ENDBRANCH  21  22
ENDBRANCH  20  21
ENDBRANCH  19  20
ENDBRANCH   4  19
BRANCH   5  26
ATOM     26  C   UNL     1       2.990   3.291  17.656  0.00  0.00    +0.000 C 
BRANCH  26  27
ATOM     27  C   UNL     1       1.542   3.317  18.137  0.00  0.00    +0.000 C 
BRANCH  27  28
ATOM     28  C   UNL     1       1.256   2.302  19.250  0.00  0.00    +0.000 C 
BRANCH  28  29
ATOM     29  C   UNL     1       1.218   2.953  20.644  0.00  0.00    +0.000 C 
ATOM     30  C   UNL     1       2.502   2.687  21.431  0.00  0.00    +0.000 C 
ATOM     31  C   UNL     1       0.993   4.459  20.505  0.00  0.00    +0.000 C 
ENDBRANCH  28  29
ENDBRANCH  27  28
ENDBRANCH  26  27
ENDBRANCH   5  26
TORSDOF 16
ENDMDL
MODEL 8
REMARK VINA RESULT:      -6.5      3.695      6.501
REMARK  Name = 
REMARK  19 active torsions:
REMARK  status: ('A' for Active; 'I' for Inactive)
REMARK    1  A    between atoms: C_1  and  O_2
REMARK    2  A    between atoms: O_2  and  C_3
REMARK    3  A    between atoms: C_3  and  C_5
REMARK    4  A    between atoms: C_5  and  N_6
REMARK    5  A    between atoms: C_7  and  C_9
REMARK    6  A    between atoms: C_9  and  C_10
REMARK    7  A    between atoms: C_10  and  C_11
REMARK    8  A    between atoms: C_11  and  C_12
REMARK    9  A    between atoms: C_15  and  O_16
REMARK   10  A    between atoms: O_16  and  C_17
REMARK   11  A    between atoms: C_17  and  C_18
REMARK   12  A    between atoms: C_18  and  C_19
REMARK   13  A    between atoms: C_19  and  N_20
REMARK   14  A    between atoms: C_21  and  C_22
REMARK   15  A    between atoms: C_22  and  C_23
REMARK   16  A    between atoms: C_23  and  C_24
REMARK   17  A    between atoms: C_24  and  C_25
REMARK   18  A    between atoms: C_25  and  C_26
REMARK   19  A    between atoms: C_25  and  C_27
REMARK                            x       y       z     vdW  Elec       q    Type
REMARK                         _______ _______ _______ _____ _____    ______ ____
ROOT
ATOM      1  C   UNL     1       3.031   6.494  17.761  0.00  0.00    +0.000 A 
ATOM      2  C   UNL     1       4.174   7.126  17.297  0.00  0.00    +0.000 A 
ATOM      3  C   UNL     1       5.281   6.367  16.935  0.00  0.00    +0.000 A 
ATOM      4  C   UNL     1       5.286   4.963  17.008  0.00  0.00    +0.000 A 
ATOM      5  C   UNL     1       4.128   4.306  17.475  0.00  0.00    +0.000 A 
ATOM      6  C   UNL     1       3.017   5.098  17.851  0.00  0.00    +0.000 A 
ENDROOT
BRANCH   1   7
ATOM      7  C   UNL     1       1.825   7.312  18.128  0.00  0.00    +0.000 C 
BRANCH   7   8
ATOM      8  C   UNL     1       2.167   8.635  18.804  0.00  0.00    +0.000 C 
BRANCH   8   9
ATOM      9  C   UNL     1       1.660   9.868  18.053  0.00  0.00    +0.000 C 
BRANCH   9  11
ATOM     10  N   UNL     1      -0.291  11.305  17.916  0.00  0.00    +0.000 N 
ATOM     11  C   UNL     1       0.329  10.308  18.625  0.00  0.00    +0.000 C 
ATOM     12  O   UNL     1      -0.165   9.821  19.644  0.00  0.00    +0.000 OA
ATOM     13  H   UNL     1       0.132  11.705  17.082  0.00  0.00    +0.000 HD
BRANCH  10  14
ATOM     14  C   UNL     1      -1.565  11.827  18.374  0.00  0.00    +0.000 C 
BRANCH  14  15
ATOM     15  C   UNL     1      -2.680  11.481  17.412  0.00  0.00    +0.000 C 
ATOM     16  O   UNL     1      -2.504  11.085  16.260  0.00  0.00    +0.000 OA
BRANCH  15  18
ATOM     17  C   UNL     1      -4.992  11.638  17.093  0.00  0.00    +0.000 C 
ATOM     18  O   UNL     1      -3.892  11.672  18.002  0.00  0.00    +0.000 OA
ENDBRANCH  15  18
ENDBRANCH  14  15
ENDBRANCH  10  14
ENDBRANCH   9  11
ENDBRANCH   8   9
ENDBRANCH   7   8
ENDBRANCH   1   7
BRANCH   4  19
ATOM     19  O   UNL     1       6.393   4.225  16.622  0.00  0.00    +0.000 OA
BRANCH  19  20
ATOM     20  C   UNL     1       6.828   4.491  15.275  0.00  0.00    +0.000 C 
BRANCH  20  21
ATOM     21  C   UNL     1       5.871   3.992  14.203  0.00  0.00    +0.000 C 
BRANCH  21  22
ATOM     22  C   UNL     1       6.573   3.904  12.857  0.00  0.00    +0.000 C 
BRANCH  22  23
ATOM     23  N   UNL     1       7.573   4.957  12.733  0.00  0.00    +0.000 NA
ATOM     24  H   UNL     1       7.639   5.477  13.608  0.00  0.00    +0.000 HD
ATOM     25  H   UNL     1       7.259   5.625  12.028  0.00  0.00    +0.000 HD
ENDBRANCH  22  23
ENDBRANCH  21  22
ENDBRANCH  20  21
ENDBRANCH  19  20
ENDBRANCH   4  19
BRANCH   5  26
ATOM     26  C   UNL     1       3.924   2.806  17.563  0.00  0.00    +0.000 C 
BRANCH  26  27
ATOM     27  C   UNL     1       3.553   2.244  18.932  0.00  0.00    +0.000 C 
BRANCH  27  28
ATOM     28  C   UNL     1       2.046   2.034  19.112  0.00  0.00    +0.000 C 
BRANCH  28  29
ATOM     29  C   UNL     1       1.535   2.564  20.463  0.00  0.00    +0.000 C 
ATOM     30  C   UNL     1       2.663   2.689  21.489  0.00  0.00    +0.000 C 
ATOM     31  C   UNL     1       0.857   3.920  20.263  0.00  0.00    +0.000 C 
ENDBRANCH  28  29
ENDBRANCH  27  28
ENDBRANCH  26  27
ENDBRANCH   5  26
TORSDOF 16
ENDMDL
MODEL 9
REMARK VINA RESULT:      -6.5      3.391      6.614
REMARK  Name = 
REMARK  19 active torsions:
REMARK  status: ('A' for Active; 'I' for Inactive)
REMARK    1  A    between atoms: C_1  and  O_2
REMARK    2  A    between atoms: O_2  and  C_3
REMARK    3  A    between atoms: C_3  and  C_5
REMARK    4  A    between atoms: C_5  and  N_6
REMARK    5  A    between atoms: C_7  and  C_9
REMARK    6  A    between atoms: C_9  and  C_10
REMARK    7  A    between atoms: C_10  and  C_11
REMARK    8  A    between atoms: C_11  and  C_12
REMARK    9  A    between atoms: C_15  and  O_16
REMARK   10  A    between atoms: O_16  and  C_17
REMARK   11  A    between atoms: C_17  and  C_18
REMARK   12  A    between atoms: C_18  and  C_19
REMARK   13  A    between atoms: C_19  and  N_20
REMARK   14  A    between atoms: C_21  and  C_22
REMARK   15  A    between atoms: C_22  and  C_23
REMARK   16  A    between atoms: C_23  and  C_24
REMARK   17  A    between atoms: C_24  and  C_25
REMARK   18  A    between atoms: C_25  and  C_26
REMARK   19  A    between atoms: C_25  and  C_27
REMARK                            x       y       z     vdW  Elec       q    Type
REMARK                         _______ _______ _______ _____ _____    ______ ____
ROOT
ATOM      1  C   UNL     1       2.826   7.192  18.235  0.00  0.00    +0.000 A 
ATOM      2  C   UNL     1       3.949   7.594  17.530  0.00  0.00    +0.000 A 
ATOM      3  C   UNL     1       4.708   6.651  16.848  0.00  0.00    +0.000 A 
ATOM      4  C   UNL     1       4.371   5.285  16.831  0.00  0.00    +0.000 A 
ATOM      5  C   UNL     1       3.227   4.863  17.540  0.00  0.00    +0.000 A 
ATOM      6  C   UNL     1       2.477   5.838  18.238  0.00  0.00    +0.000 A 
ENDROOT
BRANCH   1   7
ATOM      7  C   UNL     1       1.990   8.215  18.951  0.00  0.00    +0.000 C 
BRANCH   7   8
ATOM      8  C   UNL     1       1.284   9.191  18.015  0.00  0.00    +0.000 C 
BRANCH   8   9
ATOM      9  C   UNL     1       1.702  10.651  18.205  0.00  0.00    +0.000 C 
BRANCH   9  11
ATOM     10  N   UNL     1      -0.218  10.706  19.688  0.00  0.00    +0.000 N 
ATOM     11  C   UNL     1       1.027  11.222  19.434  0.00  0.00    +0.000 C 
ATOM     12  O   UNL     1       1.541  12.083  20.151  0.00  0.00    +0.000 OA
ATOM     13  H   UNL     1      -0.635  10.003  19.083  0.00  0.00    +0.000 HD
BRANCH  10  14
ATOM     14  C   UNL     1      -0.976  11.188  20.828  0.00  0.00    +0.000 C 
BRANCH  14  15
ATOM     15  C   UNL     1      -0.611  10.438  22.090  0.00  0.00    +0.000 C 
ATOM     16  O   UNL     1      -0.450   9.219  22.149  0.00  0.00    +0.000 OA
BRANCH  15  18
ATOM     17  C   UNL     1      -1.154  12.550  22.937  0.00  0.00    +0.000 C 
ATOM     18  O   UNL     1      -0.491  11.300  23.136  0.00  0.00    +0.000 OA
ENDBRANCH  15  18
ENDBRANCH  14  15
ENDBRANCH  10  14
ENDBRANCH   9  11
ENDBRANCH   8   9
ENDBRANCH   7   8
ENDBRANCH   1   7
BRANCH   4  19
ATOM     19  O   UNL     1       5.130   4.365  16.127  0.00  0.00    +0.000 OA
BRANCH  19  20
ATOM     20  C   UNL     1       5.605   4.852  14.857  0.00  0.00    +0.000 C 
BRANCH  20  21
ATOM     21  C   UNL     1       6.586   3.919  14.161  0.00  0.00    +0.000 C 
BRANCH  21  22
ATOM     22  C   UNL     1       6.068   3.528  12.786  0.00  0.00    +0.000 C 
BRANCH  22  23
ATOM     23  N   UNL     1       7.025   3.909  11.754  0.00  0.00    +0.000 NA
ATOM     24  H   UNL     1       6.624   4.634  11.160  0.00  0.00    +0.000 HD
ATOM     25  H   UNL     1       7.192   3.105  11.150  0.00  0.00    +0.000 HD
ENDBRANCH  22  23
ENDBRANCH  21  22
ENDBRANCH  20  21
ENDBRANCH  19  20
ENDBRANCH   4  19
BRANCH   5  26
ATOM     26  C   UNL     1       2.673   3.452  17.584  0.00  0.00    +0.000 C 
BRANCH  26  27
ATOM     27  C   UNL     1       1.298   3.276  18.222  0.00  0.00    +0.000 C 
BRANCH  27  28
ATOM     28  C   UNL     1       1.280   2.229  19.341  0.00  0.00    +0.000 C 
BRANCH  28  29
ATOM     29  C   UNL     1       1.301   2.865  20.742  0.00  0.00    +0.000 C 
ATOM     30  C   UNL     1       2.659   2.694  21.425  0.00  0.00    +0.000 C 
ATOM     31  C   UNL     1       0.949   4.350  20.641  0.00  0.00    +0.000 C 
ENDBRANCH  28  29
ENDBRANCH  27  28
ENDBRANCH  26  27
ENDBRANCH   5  26
TORSDOF 16
ENDMDL
