MODEL 1
REMARK VINA RESULT:      -8.5      0.000      0.000
REMARK  Name = 
REMARK  4 active torsions:
REMARK  status: ('A' for Active; 'I' for Inactive)
REMARK    1  A    between atoms: C_2  and  C_5
REMARK    2  A    between atoms: N_3  and  O_4
REMARK    3  A    between atoms: C_5  and  S_6
REMARK    4  A    between atoms: S_6  and  C_9
REMARK                            x       y       z     vdW  Elec       q    Type
REMARK                         _______ _______ _______ _____ _____    ______ ____
ROOT
ATOM      1  C   UNL     1       5.669   5.118  18.235  0.00  0.00    +0.000 C 
ATOM      2  C   UNL     1       4.864   5.663  19.425  0.00  0.00    +0.000 C 
ATOM      3  C   UNL     1       3.436   5.154  19.255  0.00  0.00    +0.000 C 
ATOM      4  C   UNL     1       3.543   3.796  18.538  0.00  0.00    +0.000 C 
ATOM      5  C   UNL     1       2.518   3.620  17.399  0.00  0.00    +0.000 C 
ATOM      6  C   UNL     1       1.079   3.588  17.902  0.00  0.00    +0.000 C 
ATOM      7  N   UNL     1       0.878   2.508  18.867  0.00  0.00    +0.000 NA
ATOM      8  C   UNL     1       1.803   2.610  19.996  0.00  0.00    +0.000 C 
ATOM      9  C   UNL     1       3.276   2.645  19.547  0.00  0.00    +0.000 C 
ATOM     10  C   UNL     1       4.980   3.760  17.952  0.00  0.00    +0.000 C 
ATOM     11  H   UNL     1       1.019   1.613  18.401  0.00  0.00    +0.000 HD
ENDROOT
BRANCH   1  13
ATOM     12  O   UNL     1       7.938   4.287  17.983  0.00  0.00    +0.000 OA
ATOM     13  C   UNL     1       7.121   4.926  18.653  0.00  0.00    +0.000 C 
ATOM     14  N   UNL     1       7.491   5.457  19.870  0.00  0.00    +0.000 N 
ATOM     15  H   UNL     1       7.092   6.349  20.183  0.00  0.00    +0.000 HD
BRANCH  14  16
ATOM     16  O   UNL     1       8.859   5.268  20.193  0.00  0.00    +0.000 OA
ATOM     17  H   UNL     1       8.853   5.280  21.176  0.00  0.00    +0.000 HD
ENDBRANCH  14  16
ENDBRANCH   1  13
BRANCH   1  18
ATOM     18  S   UNL     1       5.669   6.265  16.848  0.00  0.00    +0.000 S 
ATOM     19  O   UNL     1       4.326   6.812  16.690  0.00  0.00    +0.000 OA
ATOM     20  O   UNL     1       6.782   7.183  17.027  0.00  0.00    +0.000 OA
BRANCH  18  21
ATOM     21  C   UNL     1       6.014   5.337  15.361  0.00  0.00    +0.000 A 
ATOM     22  C   UNL     1       7.290   5.406  14.783  0.00  0.00    +0.000 A 
ATOM     23  C   UNL     1       7.540   4.749  13.578  0.00  0.00    +0.000 A 
ATOM     24  C   UNL     1       6.543   3.972  12.995  0.00  0.00    +0.000 A 
ATOM     25  F   UNL     1       6.774   3.374  11.823  0.00  0.00    +0.000 F 
ATOM     26  C   UNL     1       5.310   3.809  13.622  0.00  0.00    +0.000 A 
ATOM     27  C   UNL     1       5.040   4.491  14.813  0.00  0.00    +0.000 A 
ENDBRANCH  18  21
ENDBRANCH   1  18
TORSDOF 4
ENDMDL
MODEL 2
REMARK VINA RESULT:      -7.5      3.994      6.135
REMARK  Name = 
REMARK  4 active torsions:
REMARK  status: ('A' for Active; 'I' for Inactive)
REMARK    1  A    between atoms: C_2  and  C_5
REMARK    2  A    between atoms: N_3  and  O_4
REMARK    3  A    between atoms: C_5  and  S_6
REMARK    4  A    between atoms: S_6  and  C_9
REMARK                            x       y       z     vdW  Elec       q    Type
REMARK                         _______ _______ _______ _____ _____    ______ ____
ROOT
ATOM      1  C   UNL     1       3.753   3.284  19.067  0.00  0.00    +0.000 C 
ATOM      2  C   UNL     1       4.088   2.352  17.892  0.00  0.00    +0.000 C 
ATOM      3  C   UNL     1       4.549   3.244  16.745  0.00  0.00    +0.000 C 
ATOM      4  C   UNL     1       5.218   4.470  17.392  0.00  0.00    +0.000 C 
ATOM      5  C   UNL     1       4.805   5.809  16.745  0.00  0.00    +0.000 C 
ATOM      6  C   UNL     1       5.273   5.933  15.299  0.00  0.00    +0.000 C 
ATOM      7  N   UNL     1       6.727   5.807  15.199  0.00  0.00    +0.000 NA
ATOM      8  C   UNL     1       7.203   4.550  15.776  0.00  0.00    +0.000 C 
ATOM      9  C   UNL     1       6.761   4.370  17.240  0.00  0.00    +0.000 C 
ATOM     10  C   UNL     1       4.757   4.447  18.874  0.00  0.00    +0.000 C 
ATOM     11  H   UNL     1       7.163   6.586  15.691  0.00  0.00    +0.000 HD
ENDROOT
BRANCH   1  13
ATOM     12  O   UNL     1       3.253   2.648  21.357  0.00  0.00    +0.000 OA
ATOM     13  C   UNL     1       4.000   2.551  20.379  0.00  0.00    +0.000 C 
ATOM     14  N   UNL     1       5.151   1.797  20.462  0.00  0.00    +0.000 N 
ATOM     15  H   UNL     1       5.487   1.282  19.640  0.00  0.00    +0.000 HD
BRANCH  14  16
ATOM     16  O   UNL     1       5.313   1.120  21.697  0.00  0.00    +0.000 OA
ATOM     17  H   UNL     1       5.904   1.723  22.199  0.00  0.00    +0.000 HD
ENDBRANCH  14  16
ENDBRANCH   1  13
BRANCH   1  18
ATOM     18  S   UNL     1       2.021   3.774  19.057  0.00  0.00    +0.000 S 
ATOM     19  O   UNL     1       1.477   3.549  17.722  0.00  0.00    +0.000 OA
ATOM     20  O   UNL     1       1.371   3.143  20.193  0.00  0.00    +0.000 OA
BRANCH  18  21
ATOM     21  C   UNL     1       1.942   5.536  19.343  0.00  0.00    +0.000 A 
ATOM     22  C   UNL     1       1.748   6.016  20.647  0.00  0.00    +0.000 A 
ATOM     23  C   UNL     1       1.604   7.386  20.864  0.00  0.00    +0.000 A 
ATOM     24  C   UNL     1       1.724   8.272  19.797  0.00  0.00    +0.000 A 
ATOM     25  F   UNL     1       1.549   9.580  20.003  0.00  0.00    +0.000 F 
ATOM     26  C   UNL     1       2.028   7.809  18.519  0.00  0.00    +0.000 A 
ATOM     27  C   UNL     1       2.142   6.434  18.286  0.00  0.00    +0.000 A 
ENDBRANCH  18  21
ENDBRANCH   1  18
TORSDOF 4
ENDMDL
MODEL 3
REMARK VINA RESULT:      -7.2      3.370      4.582
REMARK  Name = 
REMARK  4 active torsions:
REMARK  status: ('A' for Active; 'I' for Inactive)
REMARK    1  A    between atoms: C_2  and  C_5
REMARK    2  A    between atoms: N_3  and  O_4
REMARK    3  A    between atoms: C_5  and  S_6
REMARK    4  A    between atoms: S_6  and  C_9
REMARK                            x       y       z     vdW  Elec       q    Type
REMARK                         _______ _______ _______ _____ _____    ______ ____
ROOT
ATOM      1  C   UNL     1       3.849   4.068  18.043  0.00  0.00    +0.000 C 
ATOM      2  C   UNL     1       4.384   4.519  19.411  0.00  0.00    +0.000 C 
ATOM      3  C   UNL     1       3.888   5.944  19.625  0.00  0.00    +0.000 C 
ATOM      4  C   UNL     1       2.538   6.048  18.892  0.00  0.00    +0.000 C 
ATOM      5  C   UNL     1       2.384   7.343  18.068  0.00  0.00    +0.000 C 
ATOM      6  C   UNL     1       2.356   8.594  18.938  0.00  0.00    +0.000 C 
ATOM      7  N   UNL     1       1.264   8.540  19.911  0.00  0.00    +0.000 NA
ATOM      8  C   UNL     1       1.346   7.344  20.751  0.00  0.00    +0.000 C 
ATOM      9  C   UNL     1       1.376   6.046  19.924  0.00  0.00    +0.000 C 
ATOM     10  C   UNL     1       2.500   4.820  17.942  0.00  0.00    +0.000 C 
ATOM     11  H   UNL     1       0.374   8.537  19.414  0.00  0.00    +0.000 HD
ENDROOT
BRANCH   1  13
ATOM     12  O   UNL     1       2.729   1.998  17.441  0.00  0.00    +0.000 OA
ATOM     13  C   UNL     1       3.642   2.559  18.054  0.00  0.00    +0.000 C 
ATOM     14  N   UNL     1       4.499   1.821  18.842  0.00  0.00    +0.000 N 
ATOM     15  H   UNL     1       5.484   2.096  18.927  0.00  0.00    +0.000 HD
BRANCH  14  16
ATOM     16  O   UNL     1       4.272   0.422  18.793  0.00  0.00    +0.000 OA
ATOM     17  H   UNL     1       4.614   0.178  17.904  0.00  0.00    +0.000 HD
ENDBRANCH  14  16
ENDBRANCH   1  13
BRANCH   1  18
ATOM     18  S   UNL     1       5.014   4.428  16.720  0.00  0.00    +0.000 S 
ATOM     19  O   UNL     1       5.730   3.204  16.378  0.00  0.00    +0.000 OA
ATOM     20  O   UNL     1       4.297   5.135  15.672  0.00  0.00    +0.000 OA
BRANCH  18  21
ATOM     21  C   UNL     1       6.237   5.566  17.353  0.00  0.00    +0.000 A 
ATOM     22  C   UNL     1       7.224   5.100  18.234  0.00  0.00    +0.000 A 
ATOM     23  C   UNL     1       8.130   6.001  18.795  0.00  0.00    +0.000 A 
ATOM     24  C   UNL     1       8.094   7.341  18.422  0.00  0.00    +0.000 A 
ATOM     25  F   UNL     1       8.939   8.207  18.988  0.00  0.00    +0.000 F 
ATOM     26  C   UNL     1       7.188   7.788  17.463  0.00  0.00    +0.000 A 
ATOM     27  C   UNL     1       6.255   6.899  16.920  0.00  0.00    +0.000 A 
ENDBRANCH  18  21
ENDBRANCH   1  18
TORSDOF 4
ENDMDL
MODEL 4
REMARK VINA RESULT:      -7.1      3.155      4.553
REMARK  Name = 
REMARK  4 active torsions:
REMARK  status: ('A' for Active; 'I' for Inactive)
REMARK    1  A    between atoms: C_2  and  C_5
REMARK    2  A    between atoms: N_3  and  O_4
REMARK    3  A    between atoms: C_5  and  S_6
REMARK    4  A    between atoms: S_6  and  C_9
REMARK                            x       y       z     vdW  Elec       q    Type
REMARK                         _______ _______ _______ _____ _____    ______ ____
ROOT
ATOM      1  C   UNL     1       5.590   4.896  17.044  0.00  0.00    +0.000 C 
ATOM      2  C   UNL     1       5.123   3.437  16.930  0.00  0.00    +0.000 C 
ATOM      3  C   UNL     1       4.109   3.215  18.047  0.00  0.00    +0.000 C 
ATOM      4  C   UNL     1       3.415   4.570  18.277  0.00  0.00    +0.000 C 
ATOM      5  C   UNL     1       3.256   4.934  19.768  0.00  0.00    +0.000 C 
ATOM      6  C   UNL     1       2.323   3.983  20.509  0.00  0.00    +0.000 C 
ATOM      7  N   UNL     1       0.993   3.961  19.900  0.00  0.00    +0.000 NA
ATOM      8  C   UNL     1       1.052   3.605  18.482  0.00  0.00    +0.000 C 
ATOM      9  C   UNL     1       1.981   4.536  17.680  0.00  0.00    +0.000 C 
ATOM     10  C   UNL     1       4.329   5.615  17.583  0.00  0.00    +0.000 C 
ATOM     11  H   UNL     1       0.568   4.883  19.995  0.00  0.00    +0.000 HD
ENDROOT
BRANCH   1  13
ATOM     12  O   UNL     1       5.323   6.269  15.057  0.00  0.00    +0.000 OA
ATOM     13  C   UNL     1       5.974   5.413  15.663  0.00  0.00    +0.000 C 
ATOM     14  N   UNL     1       7.075   4.834  15.068  0.00  0.00    +0.000 N 
ATOM     15  H   UNL     1       7.883   4.562  15.640  0.00  0.00    +0.000 HD
BRANCH  14  16
ATOM     16  O   UNL     1       7.397   5.373  13.797  0.00  0.00    +0.000 OA
ATOM     17  H   UNL     1       7.894   6.189  14.026  0.00  0.00    +0.000 HD
ENDBRANCH  14  16
ENDBRANCH   1  13
BRANCH   1  18
ATOM     18  S   UNL     1       7.049   5.050  18.086  0.00  0.00    +0.000 S 
ATOM     19  O   UNL     1       6.692   4.686  19.452  0.00  0.00    +0.000 OA
ATOM     20  O   UNL     1       8.140   4.342  17.436  0.00  0.00    +0.000 OA
BRANCH  18  21
ATOM     21  C   UNL     1       7.520   6.773  18.130  0.00  0.00    +0.000 A 
ATOM     22  C   UNL     1       6.855   7.692  17.304  0.00  0.00    +0.000 A 
ATOM     23  C   UNL     1       7.273   9.022  17.274  0.00  0.00    +0.000 A 
ATOM     24  C   UNL     1       8.299   9.444  18.115  0.00  0.00    +0.000 A 
ATOM     25  F   UNL     1       8.721  10.710  18.057  0.00  0.00    +0.000 F 
ATOM     26  C   UNL     1       8.887   8.561  19.017  0.00  0.00    +0.000 A 
ATOM     27  C   UNL     1       8.496   7.217  19.030  0.00  0.00    +0.000 A 
ENDBRANCH  18  21
ENDBRANCH   1  18
TORSDOF 4
ENDMDL
MODEL 5
REMARK VINA RESULT:      -7.0      3.749      5.895
REMARK  Name = 
REMARK  4 active torsions:
REMARK  status: ('A' for Active; 'I' for Inactive)
REMARK    1  A    between atoms: C_2  and  C_5
REMARK    2  A    between atoms: N_3  and  O_4
REMARK    3  A    between atoms: C_5  and  S_6
REMARK    4  A    between atoms: S_6  and  C_9
REMARK                            x       y       z     vdW  Elec       q    Type
REMARK                         _______ _______ _______ _____ _____    ______ ____
ROOT
ATOM      1  C   UNL     1       3.014   5.973  18.842  0.00  0.00    +0.000 C 
ATOM      2  C   UNL     1       4.307   5.732  19.637  0.00  0.00    +0.000 C 
ATOM      3  C   UNL     1       5.340   5.213  18.643  0.00  0.00    +0.000 C 
ATOM      4  C   UNL     1       4.995   5.852  17.286  0.00  0.00    +0.000 C 
ATOM      5  C   UNL     1       5.051   4.860  16.106  0.00  0.00    +0.000 C 
ATOM      6  C   UNL     1       6.458   4.333  15.847  0.00  0.00    +0.000 C 
ATOM      7  N   UNL     1       7.391   5.425  15.569  0.00  0.00    +0.000 NA
ATOM      8  C   UNL     1       7.413   6.408  16.653  0.00  0.00    +0.000 C 
ATOM      9  C   UNL     1       6.015   6.977  16.959  0.00  0.00    +0.000 C 
ATOM     10  C   UNL     1       3.545   6.385  17.447  0.00  0.00    +0.000 C 
ATOM     11  H   UNL     1       7.113   5.889  14.704  0.00  0.00    +0.000 HD
ENDROOT
BRANCH   1  13
ATOM     12  O   UNL     1       1.772   8.060  18.856  0.00  0.00    +0.000 OA
ATOM     13  C   UNL     1       2.226   7.103  19.490  0.00  0.00    +0.000 C 
ATOM     14  N   UNL     1       2.079   7.052  20.860  0.00  0.00    +0.000 N 
ATOM     15  H   UNL     1       1.953   6.147  21.329  0.00  0.00    +0.000 HD
BRANCH  14  16
ATOM     16  O   UNL     1       1.316   8.117  21.402  0.00  0.00    +0.000 OA
ATOM     17  H   UNL     1       0.902   7.706  22.193  0.00  0.00    +0.000 HD
ENDBRANCH  14  16
ENDBRANCH   1  13
BRANCH   1  18
ATOM     18  S   UNL     1       1.949   4.522  18.845  0.00  0.00    +0.000 S 
ATOM     19  O   UNL     1       1.010   4.630  19.955  0.00  0.00    +0.000 OA
ATOM     20  O   UNL     1       1.426   4.348  17.500  0.00  0.00    +0.000 OA
BRANCH  18  21
ATOM     21  C   UNL     1       2.965   3.090  19.180  0.00  0.00    +0.000 A 
ATOM     22  C   UNL     1       3.413   2.853  20.488  0.00  0.00    +0.000 A 
ATOM     23  C   UNL     1       4.273   1.784  20.741  0.00  0.00    +0.000 A 
ATOM     24  C   UNL     1       4.623   0.919  19.707  0.00  0.00    +0.000 A 
ATOM     25  F   UNL     1       5.475  -0.082  19.945  0.00  0.00    +0.000 F 
ATOM     26  C   UNL     1       4.091   1.085  18.431  0.00  0.00    +0.000 A 
ATOM     27  C   UNL     1       3.254   2.173  18.162  0.00  0.00    +0.000 A 
ENDBRANCH  18  21
ENDBRANCH   1  18
TORSDOF 4
ENDMDL
MODEL 6
REMARK VINA RESULT:      -6.9      3.973      6.240
REMARK  Name = 
REMARK  4 active torsions:
REMARK  status: ('A' for Active; 'I' for Inactive)
REMARK    1  A    between atoms: C_2  and  C_5
REMARK    2  A    between atoms: N_3  and  O_4
REMARK    3  A    between atoms: C_5  and  S_6
REMARK    4  A    between atoms: S_6  and  C_9
REMARK                            x       y       z     vdW  Elec       q    Type
REMARK                         _______ _______ _______ _____ _____    ______ ____
ROOT
ATOM      1  C   UNL     1       3.522   3.513  18.927  0.00  0.00    +0.000 C 
ATOM      2  C   UNL     1       3.969   2.567  17.801  0.00  0.00    +0.000 C 
ATOM      3  C   UNL     1       4.619   3.437  16.732  0.00  0.00    +0.000 C 
ATOM      4  C   UNL     1       5.250   4.632  17.470  0.00  0.00    +0.000 C 
ATOM      5  C   UNL     1       4.988   5.987  16.783  0.00  0.00    +0.000 C 
ATOM      6  C   UNL     1       5.651   6.090  15.413  0.00  0.00    +0.000 C 
ATOM      7  N   UNL     1       7.098   5.898  15.507  0.00  0.00    +0.000 NA
ATOM      8  C   UNL     1       7.435   4.620  16.135  0.00  0.00    +0.000 C 
ATOM      9  C   UNL     1       6.793   4.461  17.526  0.00  0.00    +0.000 C 
ATOM     10  C   UNL     1       4.594   4.628  18.878  0.00  0.00    +0.000 C 
ATOM     11  H   UNL     1       7.500   6.656  16.058  0.00  0.00    +0.000 HD
ENDROOT
BRANCH   1  13
ATOM     12  O   UNL     1       4.442   1.961  20.554  0.00  0.00    +0.000 OA
ATOM     13  C   UNL     1       3.557   2.769  20.255  0.00  0.00    +0.000 C 
ATOM     14  N   UNL     1       2.506   2.991  21.119  0.00  0.00    +0.000 N 
ATOM     15  H   UNL     1       2.086   3.925  21.187  0.00  0.00    +0.000 HD
BRANCH  14  16
ATOM     16  O   UNL     1       2.607   2.290  22.348  0.00  0.00    +0.000 OA
ATOM     17  H   UNL     1       3.252   2.832  22.854  0.00  0.00    +0.000 HD
ENDBRANCH  14  16
ENDBRANCH   1  13
BRANCH   1  18
ATOM     18  S   UNL     1       1.831   4.081  18.688  0.00  0.00    +0.000 S 
ATOM     19  O   UNL     1       1.509   4.016  17.267  0.00  0.00    +0.000 OA
ATOM     20  O   UNL     1       0.983   3.372  19.632  0.00  0.00    +0.000 OA
BRANCH  18  21
ATOM     21  C   UNL     1       1.758   5.808  19.142  0.00  0.00    +0.000 A 
ATOM     22  C   UNL     1       1.925   6.790  18.154  0.00  0.00    +0.000 A 
ATOM     23  C   UNL     1       1.951   8.137  18.516  0.00  0.00    +0.000 A 
ATOM     24  C   UNL     1       1.740   8.500  19.843  0.00  0.00    +0.000 A 
ATOM     25  F   UNL     1       1.802   9.789  20.192  0.00  0.00    +0.000 F 
ATOM     26  C   UNL     1       1.463   7.536  20.809  0.00  0.00    +0.000 A 
ATOM     27  C   UNL     1       1.468   6.181  20.461  0.00  0.00    +0.000 A 
ENDBRANCH  18  21
ENDBRANCH   1  18
TORSDOF 4
ENDMDL
MODEL 7
REMARK VINA RESULT:      -6.9      3.185      4.497
REMARK  Name = 
REMARK  4 active torsions:
REMARK  status: ('A' for Active; 'I' for Inactive)
REMARK    1  A    between atoms: C_2  and  C_5
REMARK    2  A    between atoms: N_3  and  O_4
REMARK    3  A    between atoms: C_5  and  S_6
REMARK    4  A    between atoms: S_6  and  C_9
REMARK                            x       y       z     vdW  Elec       q    Type
REMARK                         _______ _______ _______ _____ _____    ______ ____
ROOT
ATOM      1  C   UNL     1       5.625   4.952  17.250  0.00  0.00    +0.000 C 
ATOM      2  C   UNL     1       5.194   3.479  17.166  0.00  0.00    +0.000 C 
ATOM      3  C   UNL     1       4.137   3.272  18.245  0.00  0.00    +0.000 C 
ATOM      4  C   UNL     1       3.405   4.617  18.399  0.00  0.00    +0.000 C 
ATOM      5  C   UNL     1       3.173   5.026  19.869  0.00  0.00    +0.000 C 
ATOM      6  C   UNL     1       2.229   4.079  20.600  0.00  0.00    +0.000 C 
ATOM      7  N   UNL     1       0.928   4.008  19.935  0.00  0.00    +0.000 NA
ATOM      8  C   UNL     1       1.056   3.607  18.534  0.00  0.00    +0.000 C 
ATOM      9  C   UNL     1       1.999   4.531  17.743  0.00  0.00    +0.000 C 
ATOM     10  C   UNL     1       4.327   5.660  17.710  0.00  0.00    +0.000 C 
ATOM     11  H   UNL     1       0.480   4.923  19.980  0.00  0.00    +0.000 HD
ENDROOT
BRANCH   1  13
ATOM     12  O   UNL     1       5.416   6.251  15.209  0.00  0.00    +0.000 OA
ATOM     13  C   UNL     1       6.058   5.431  15.871  0.00  0.00    +0.000 C 
ATOM     14  N   UNL     1       7.197   4.859  15.345  0.00  0.00    +0.000 N 
ATOM     15  H   UNL     1       7.984   4.624  15.959  0.00  0.00    +0.000 HD
BRANCH  14  16
ATOM     16  O   UNL     1       7.563   5.362  14.071  0.00  0.00    +0.000 OA
ATOM     17  H   UNL     1       6.889   6.061  13.912  0.00  0.00    +0.000 HD
ENDBRANCH  14  16
ENDBRANCH   1  13
BRANCH   1  18
ATOM     18  S   UNL     1       7.034   5.172  18.349  0.00  0.00    +0.000 S 
ATOM     19  O   UNL     1       6.596   4.957  19.724  0.00  0.00    +0.000 OA
ATOM     20  O   UNL     1       8.133   4.375  17.832  0.00  0.00    +0.000 OA
BRANCH  18  21
ATOM     21  C   UNL     1       7.554   6.878  18.247  0.00  0.00    +0.000 A 
ATOM     22  C   UNL     1       8.591   7.335  19.074  0.00  0.00    +0.000 A 
ATOM     23  C   UNL     1       8.946   8.684  19.056  0.00  0.00    +0.000 A 
ATOM     24  C   UNL     1       8.317   9.553  18.169  0.00  0.00    +0.000 A 
ATOM     25  F   UNL     1       8.633  10.851  18.180  0.00  0.00    +0.000 F 
ATOM     26  C   UNL     1       7.365   9.082  17.267  0.00  0.00    +0.000 A 
ATOM     27  C   UNL     1       6.980   7.738  17.301  0.00  0.00    +0.000 A 
ENDBRANCH  18  21
ENDBRANCH   1  18
TORSDOF 4
ENDMDL
MODEL 8
REMARK VINA RESULT:      -6.7      3.197      4.201
REMARK  Name = 
REMARK  4 active torsions:
REMARK  status: ('A' for Active; 'I' for Inactive)
REMARK    1  A    between atoms: C_2  and  C_5
REMARK    2  A    between atoms: N_3  and  O_4
REMARK    3  A    between atoms: C_5  and  S_6
REMARK    4  A    between atoms: S_6  and  C_9
REMARK                            x       y       z     vdW  Elec       q    Type
REMARK                         _______ _______ _______ _____ _____    ______ ____
ROOT
ATOM      1  C   UNL     1       5.246   4.768  16.703  0.00  0.00    +0.000 C 
ATOM      2  C   UNL     1       5.727   4.378  18.109  0.00  0.00    +0.000 C 
ATOM      3  C   UNL     1       4.476   4.153  18.951  0.00  0.00    +0.000 C 
ATOM      4  C   UNL     1       3.391   3.641  17.986  0.00  0.00    +0.000 C 
ATOM      5  C   UNL     1       2.017   4.310  18.197  0.00  0.00    +0.000 C 
ATOM      6  C   UNL     1       1.402   3.978  19.552  0.00  0.00    +0.000 C 
ATOM      7  N   UNL     1       1.238   2.534  19.721  0.00  0.00    +0.000 NA
ATOM      8  C   UNL     1       2.504   1.821  19.555  0.00  0.00    +0.000 C 
ATOM      9  C   UNL     1       3.172   2.118  18.199  0.00  0.00    +0.000 C 
ATOM     10  C   UNL     1       3.920   3.980  16.567  0.00  0.00    +0.000 C 
ATOM     11  H   UNL     1       0.570   2.191  19.031  0.00  0.00    +0.000 HD
ENDROOT
BRANCH   1  13
ATOM     12  O   UNL     1       7.487   4.310  15.885  0.00  0.00    +0.000 OA
ATOM     13  C   UNL     1       6.271   4.310  15.673  0.00  0.00    +0.000 C 
ATOM     14  N   UNL     1       5.785   3.936  14.438  0.00  0.00    +0.000 N 
ATOM     15  H   UNL     1       4.889   3.441  14.367  0.00  0.00    +0.000 HD
BRANCH  14  16
ATOM     16  O   UNL     1       6.783   3.497  13.532  0.00  0.00    +0.000 OA
ATOM     17  H   UNL     1       7.048   4.329  13.081  0.00  0.00    +0.000 HD
ENDBRANCH  14  16
ENDBRANCH   1  13
BRANCH   1  18
ATOM     18  S   UNL     1       5.084   6.552  16.524  0.00  0.00    +0.000 S 
ATOM     19  O   UNL     1       5.191   6.894  15.111  0.00  0.00    +0.000 OA
ATOM     20  O   UNL     1       3.901   6.970  17.258  0.00  0.00    +0.000 OA
BRANCH  18  21
ATOM     21  C   UNL     1       6.479   7.318  17.336  0.00  0.00    +0.000 A 
ATOM     22  C   UNL     1       7.312   6.543  18.157  0.00  0.00    +0.000 A 
ATOM     23  C   UNL     1       8.353   7.153  18.858  0.00  0.00    +0.000 A 
ATOM     24  C   UNL     1       8.601   8.511  18.682  0.00  0.00    +0.000 A 
ATOM     25  F   UNL     1       9.576   9.099  19.382  0.00  0.00    +0.000 F 
ATOM     26  C   UNL     1       7.848   9.262  17.783  0.00  0.00    +0.000 A 
ATOM     27  C   UNL     1       6.782   8.666  17.101  0.00  0.00    +0.000 A 
ENDBRANCH  18  21
ENDBRANCH   1  18
TORSDOF 4
ENDMDL
MODEL 9
REMARK VINA RESULT:      -6.7      3.972      5.980
REMARK  Name = 
REMARK  4 active torsions:
REMARK  status: ('A' for Active; 'I' for Inactive)
REMARK    1  A    between atoms: C_2  and  C_5
REMARK    2  A    between atoms: N_3  and  O_4
REMARK    3  A    between atoms: C_5  and  S_6
REMARK    4  A    between atoms: S_6  and  C_9
REMARK                            x       y       z     vdW  Elec       q    Type
REMARK                         _______ _______ _______ _____ _____    ______ ____
ROOT
ATOM      1  C   UNL     1       4.080   3.094  18.594  0.00  0.00    +0.000 C 
ATOM      2  C   UNL     1       4.433   2.967  17.104  0.00  0.00    +0.000 C 
ATOM      3  C   UNL     1       4.840   4.359  16.633  0.00  0.00    +0.000 C 
ATOM      4  C   UNL     1       5.471   5.061  17.849  0.00  0.00    +0.000 C 
ATOM      5  C   UNL     1       4.995   6.517  18.033  0.00  0.00    +0.000 C 
ATOM      6  C   UNL     1       5.435   7.428  16.893  0.00  0.00    +0.000 C 
ATOM      7  N   UNL     1       6.891   7.438  16.753  0.00  0.00    +0.000 NA
ATOM      8  C   UNL     1       7.426   6.091  16.555  0.00  0.00    +0.000 C 
ATOM      9  C   UNL     1       7.014   5.124  17.681  0.00  0.00    +0.000 C 
ATOM     10  C   UNL     1       5.034   4.214  19.075  0.00  0.00    +0.000 C 
ATOM     11  H   UNL     1       7.304   7.840  17.594  0.00  0.00    +0.000 HD
ENDROOT
BRANCH   1  13
ATOM     12  O   UNL     1       3.925   0.691  18.915  0.00  0.00    +0.000 OA
ATOM     13  C   UNL     1       4.376   1.775  19.296  0.00  0.00    +0.000 C 
ATOM     14  N   UNL     1       5.142   1.839  20.440  0.00  0.00    +0.000 N 
ATOM     15  H   UNL     1       5.911   2.516  20.506  0.00  0.00    +0.000 HD
BRANCH  14  16
ATOM     16  O   UNL     1       5.403   0.579  21.035  0.00  0.00    +0.000 OA
ATOM     17  H   UNL     1       6.294   0.354  20.685  0.00  0.00    +0.000 HD
ENDBRANCH  14  16
ENDBRANCH   1  13
BRANCH   1  18
ATOM     18  S   UNL     1       2.330   3.437  18.838  0.00  0.00    +0.000 S 
ATOM     19  O   UNL     1       1.607   3.074  17.624  0.00  0.00    +0.000 OA
ATOM     20  O   UNL     1       1.927   2.837  20.098  0.00  0.00    +0.000 OA
BRANCH  18  21
ATOM     21  C   UNL     1       2.134   5.202  19.033  0.00  0.00    +0.000 A 
ATOM     22  C   UNL     1       1.924   6.003  17.900  0.00  0.00    +0.000 A 
ATOM     23  C   UNL     1       1.853   7.390  18.039  0.00  0.00    +0.000 A 
ATOM     24  C   UNL     1       1.919   7.963  19.305  0.00  0.00    +0.000 A 
ATOM     25  F   UNL     1       1.887   9.292  19.431  0.00  0.00    +0.000 F 
ATOM     26  C   UNL     1       2.015   7.164  20.443  0.00  0.00    +0.000 A 
ATOM     27  C   UNL     1       2.121   5.776  20.311  0.00  0.00    +0.000 A 
ENDBRANCH  18  21
ENDBRANCH   1  18
TORSDOF 4
ENDMDL
