MODEL 1
REMARK VINA RESULT:      -6.5      0.000      0.000
REMARK  Name = 
REMARK  7 active torsions:
REMARK  status: ('A' for Active; 'I' for Inactive)
REMARK    1  A    between atoms: C_1  and  C_2
REMARK    2  A    between atoms: C_2  and  O_3
REMARK    3  A    between atoms: C_2  and  C_4
REMARK    4  A    between atoms: C_8  and  C_9
REMARK    5  A    between atoms: C_9  and  O_11
REMARK    6  A    between atoms: C_12  and  C_13
REMARK    7  A    between atoms: C_12  and  C_14
REMARK                            x       y       z     vdW  Elec       q    Type
REMARK                         _______ _______ _______ _____ _____    ______ ____
ROOT
ATOM      1  C   UNL     1       2.960   4.266  19.077  0.00  0.00    +0.000 C 
ATOM      2  C   UNL     1       4.356   3.621  18.947  0.00  0.00    +0.000 C 
ATOM      3  O   UNL     1       5.139   2.984  19.606  0.00  0.00    +0.000 OA
ATOM      4  N   UNL     1       4.590   4.221  17.739  0.00  0.00    +0.000 N 
ATOM      5  C   UNL     1       5.829   4.992  17.560  0.00  0.00    +0.000 C 
ATOM      6  C   UNL     1       5.442   6.375  17.007  0.00  0.00    +0.000 C 
ATOM      7  C   UNL     1       6.453   7.455  17.396  0.00  0.00    +0.000 C 
ATOM      8  C   UNL     1       5.165   6.414  15.497  0.00  0.00    +0.000 C 
ATOM      9  S   UNL     1       3.830   6.727  17.879  0.00  0.00    +0.000 S 
ATOM     10  C   UNL     1       3.325   4.978  17.760  0.00  0.00    +0.000 C 
ENDROOT
BRANCH   1  12
ATOM     11  C   UNL     1       0.883   3.404  20.185  0.00  0.00    +0.000 C 
ATOM     12  C   UNL     1       1.780   3.311  18.958  0.00  0.00    +0.000 C 
BRANCH  12  13
ATOM     13  O   UNL     1       2.247   1.971  18.828  0.00  0.00    +0.000 OA
ATOM     14  H   UNL     1       1.522   1.355  19.029  0.00  0.00    +0.000 HD
ENDBRANCH  12  13
ENDBRANCH   1  12
BRANCH   5  15
ATOM     15  C   UNL     1       6.861   4.207  16.750  0.00  0.00    +0.000 C 
ATOM     16  O   UNL     1       8.067   4.236  16.952  0.00  0.00    +0.000 OA
BRANCH  15  17
ATOM     17  O   UNL     1       6.313   3.342  15.859  0.00  0.00    +0.000 OA
ATOM     18  H   UNL     1       6.149   3.755  14.981  0.00  0.00    +0.000 HD
ENDBRANCH  15  17
ENDBRANCH   5  15
TORSDOF 4
ENDMDL
MODEL 2
REMARK VINA RESULT:      -6.3      1.467      4.746
REMARK  Name = 
REMARK  7 active torsions:
REMARK  status: ('A' for Active; 'I' for Inactive)
REMARK    1  A    between atoms: C_1  and  C_2
REMARK    2  A    between atoms: C_2  and  O_3
REMARK    3  A    between atoms: C_2  and  C_4
REMARK    4  A    between atoms: C_8  and  C_9
REMARK    5  A    between atoms: C_9  and  O_11
REMARK    6  A    between atoms: C_12  and  C_13
REMARK    7  A    between atoms: C_12  and  C_14
REMARK                            x       y       z     vdW  Elec       q    Type
REMARK                         _______ _______ _______ _____ _____    ______ ____
ROOT
ATOM      1  C   UNL     1       6.043   6.066  16.983  0.00  0.00    +0.000 C 
ATOM      2  C   UNL     1       5.929   4.530  16.893  0.00  0.00    +0.000 C 
ATOM      3  O   UNL     1       6.173   3.633  16.125  0.00  0.00    +0.000 OA
ATOM      4  N   UNL     1       5.183   4.455  18.040  0.00  0.00    +0.000 N 
ATOM      5  C   UNL     1       3.903   3.734  18.004  0.00  0.00    +0.000 C 
ATOM      6  C   UNL     1       2.828   4.664  18.594  0.00  0.00    +0.000 C 
ATOM      7  C   UNL     1       1.437   4.366  18.031  0.00  0.00    +0.000 C 
ATOM      8  C   UNL     1       2.789   4.717  20.128  0.00  0.00    +0.000 C 
ATOM      9  S   UNL     1       3.367   6.346  17.990  0.00  0.00    +0.000 S 
ATOM     10  C   UNL     1       5.126   5.918  18.213  0.00  0.00    +0.000 C 
ENDROOT
BRANCH   1  12
ATOM     11  C   UNL     1       7.809   6.298  18.747  0.00  0.00    +0.000 C 
ATOM     12  C   UNL     1       7.429   6.606  17.304  0.00  0.00    +0.000 C 
BRANCH  12  13
ATOM     13  O   UNL     1       7.461   8.017  17.110  0.00  0.00    +0.000 OA
ATOM     14  H   UNL     1       8.266   8.381  17.517  0.00  0.00    +0.000 HD
ENDBRANCH  12  13
ENDBRANCH   1  12
BRANCH   5  15
ATOM     15  C   UNL     1       4.025   2.351  18.647  0.00  0.00    +0.000 C 
ATOM     16  O   UNL     1       3.353   1.379  18.330  0.00  0.00    +0.000 OA
BRANCH  15  17
ATOM     17  O   UNL     1       5.059   2.244  19.520  0.00  0.00    +0.000 OA
ATOM     18  H   UNL     1       5.918   2.515  19.125  0.00  0.00    +0.000 HD
ENDBRANCH  15  17
ENDBRANCH   5  15
TORSDOF 4
ENDMDL
MODEL 3
REMARK VINA RESULT:      -6.2      1.569      4.905
REMARK  Name = 
REMARK  7 active torsions:
REMARK  status: ('A' for Active; 'I' for Inactive)
REMARK    1  A    between atoms: C_1  and  C_2
REMARK    2  A    between atoms: C_2  and  O_3
REMARK    3  A    between atoms: C_2  and  C_4
REMARK    4  A    between atoms: C_8  and  C_9
REMARK    5  A    between atoms: C_9  and  O_11
REMARK    6  A    between atoms: C_12  and  C_13
REMARK    7  A    between atoms: C_12  and  C_14
REMARK                            x       y       z     vdW  Elec       q    Type
REMARK                         _______ _______ _______ _____ _____    ______ ____
ROOT
ATOM      1  C   UNL     1       5.640   5.496  17.970  0.00  0.00    +0.000 C 
ATOM      2  C   UNL     1       5.040   4.261  17.265  0.00  0.00    +0.000 C 
ATOM      3  O   UNL     1       4.833   3.849  16.151  0.00  0.00    +0.000 OA
ATOM      4  N   UNL     1       4.559   3.746  18.439  0.00  0.00    +0.000 N 
ATOM      5  C   UNL     1       3.140   3.373  18.517  0.00  0.00    +0.000 C 
ATOM      6  C   UNL     1       2.549   4.044  19.770  0.00  0.00    +0.000 C 
ATOM      7  C   UNL     1       1.051   4.315  19.627  0.00  0.00    +0.000 C 
ATOM      8  C   UNL     1       2.844   3.321  21.092  0.00  0.00    +0.000 C 
ATOM      9  S   UNL     1       3.448   5.680  19.817  0.00  0.00    +0.000 S 
ATOM     10  C   UNL     1       4.994   4.905  19.239  0.00  0.00    +0.000 C 
ENDROOT
BRANCH   1  12
ATOM     11  C   UNL     1       7.655   6.976  17.793  0.00  0.00    +0.000 C 
ATOM     12  C   UNL     1       7.161   5.553  18.018  0.00  0.00    +0.000 C 
BRANCH  12  13
ATOM     13  O   UNL     1       7.713   4.708  17.013  0.00  0.00    +0.000 OA
ATOM     14  H   UNL     1       7.198   3.885  16.965  0.00  0.00    +0.000 HD
ENDBRANCH  12  13
ENDBRANCH   1  12
BRANCH   5  15
ATOM     15  C   UNL     1       2.955   1.858  18.415  0.00  0.00    +0.000 C 
ATOM     16  O   UNL     1       3.870   1.046  18.434  0.00  0.00    +0.000 OA
BRANCH  15  17
ATOM     17  O   UNL     1       1.657   1.463  18.445  0.00  0.00    +0.000 OA
ATOM     18  H   UNL     1       1.547   0.547  18.788  0.00  0.00    +0.000 HD
ENDBRANCH  15  17
ENDBRANCH   5  15
TORSDOF 4
ENDMDL
MODEL 4
REMARK VINA RESULT:      -6.1      2.322      5.114
REMARK  Name = 
REMARK  7 active torsions:
REMARK  status: ('A' for Active; 'I' for Inactive)
REMARK    1  A    between atoms: C_1  and  C_2
REMARK    2  A    between atoms: C_2  and  O_3
REMARK    3  A    between atoms: C_2  and  C_4
REMARK    4  A    between atoms: C_8  and  C_9
REMARK    5  A    between atoms: C_9  and  O_11
REMARK    6  A    between atoms: C_12  and  C_13
REMARK    7  A    between atoms: C_12  and  C_14
REMARK                            x       y       z     vdW  Elec       q    Type
REMARK                         _______ _______ _______ _____ _____    ______ ____
ROOT
ATOM      1  C   UNL     1       5.818   4.035  17.291  0.00  0.00    +0.000 C 
ATOM      2  C   UNL     1       5.525   5.002  18.457  0.00  0.00    +0.000 C 
ATOM      3  O   UNL     1       6.101   5.548  19.365  0.00  0.00    +0.000 OA
ATOM      4  N   UNL     1       4.171   4.921  18.267  0.00  0.00    +0.000 N 
ATOM      5  C   UNL     1       3.316   4.580  19.413  0.00  0.00    +0.000 C 
ATOM      6  C   UNL     1       2.405   3.416  18.984  0.00  0.00    +0.000 C 
ATOM      7  C   UNL     1       1.985   2.546  20.170  0.00  0.00    +0.000 C 
ATOM      8  C   UNL     1       1.181   3.824  18.154  0.00  0.00    +0.000 C 
ATOM      9  S   UNL     1       3.522   2.411  17.876  0.00  0.00    +0.000 S 
ATOM     10  C   UNL     1       4.284   3.920  17.191  0.00  0.00    +0.000 C 
ENDROOT
BRANCH   1  12
ATOM     11  C   UNL     1       5.992   3.981  14.790  0.00  0.00    +0.000 C 
ATOM     12  C   UNL     1       6.474   4.659  16.067  0.00  0.00    +0.000 C 
BRANCH  12  13
ATOM     13  O   UNL     1       7.890   4.530  16.152  0.00  0.00    +0.000 OA
ATOM     14  H   UNL     1       8.218   5.064  16.895  0.00  0.00    +0.000 HD
ENDBRANCH  12  13
ENDBRANCH   1  12
BRANCH   5  15
ATOM     15  C   UNL     1       2.611   5.817  19.970  0.00  0.00    +0.000 C 
ATOM     16  O   UNL     1       2.368   6.826  19.322  0.00  0.00    +0.000 OA
BRANCH  15  17
ATOM     17  O   UNL     1       2.136   5.654  21.231  0.00  0.00    +0.000 OA
ATOM     18  H   UNL     1       2.260   6.454  21.790  0.00  0.00    +0.000 HD
ENDBRANCH  15  17
ENDBRANCH   5  15
TORSDOF 4
ENDMDL
MODEL 5
REMARK VINA RESULT:      -6.1      2.219      5.061
REMARK  Name = 
REMARK  7 active torsions:
REMARK  status: ('A' for Active; 'I' for Inactive)
REMARK    1  A    between atoms: C_1  and  C_2
REMARK    2  A    between atoms: C_2  and  O_3
REMARK    3  A    between atoms: C_2  and  C_4
REMARK    4  A    between atoms: C_8  and  C_9
REMARK    5  A    between atoms: C_9  and  O_11
REMARK    6  A    between atoms: C_12  and  C_13
REMARK    7  A    between atoms: C_12  and  C_14
REMARK                            x       y       z     vdW  Elec       q    Type
REMARK                         _______ _______ _______ _____ _____    ______ ____
ROOT
ATOM      1  C   UNL     1       6.184   4.870  17.360  0.00  0.00    +0.000 C 
ATOM      2  C   UNL     1       5.805   5.131  18.833  0.00  0.00    +0.000 C 
ATOM      3  O   UNL     1       6.319   5.160  19.923  0.00  0.00    +0.000 OA
ATOM      4  N   UNL     1       4.465   5.146  18.551  0.00  0.00    +0.000 N 
ATOM      5  C   UNL     1       3.570   4.277  19.328  0.00  0.00    +0.000 C 
ATOM      6  C   UNL     1       2.719   3.472  18.329  0.00  0.00    +0.000 C 
ATOM      7  C   UNL     1       2.274   2.127  18.905  0.00  0.00    +0.000 C 
ATOM      8  C   UNL     1       1.521   4.230  17.741  0.00  0.00    +0.000 C 
ATOM      9  S   UNL     1       3.919   3.155  16.935  0.00  0.00    +0.000 S 
ATOM     10  C   UNL     1       4.661   4.810  17.130  0.00  0.00    +0.000 C 
ENDROOT
BRANCH   1  12
ATOM     11  C   UNL     1       7.466   7.005  17.645  0.00  0.00    +0.000 C 
ATOM     12  C   UNL     1       6.874   6.022  16.643  0.00  0.00    +0.000 C 
BRANCH  12  13
ATOM     13  O   UNL     1       5.942   6.712  15.815  0.00  0.00    +0.000 OA
ATOM     14  H   UNL     1       5.402   6.065  15.329  0.00  0.00    +0.000 HD
ENDBRANCH  12  13
ENDBRANCH   1  12
BRANCH   5  15
ATOM     15  C   UNL     1       2.798   5.073  20.382  0.00  0.00    +0.000 C 
ATOM     16  O   UNL     1       2.289   4.585  21.382  0.00  0.00    +0.000 OA
BRANCH  15  17
ATOM     17  O   UNL     1       2.843   6.416  20.194  0.00  0.00    +0.000 OA
ATOM     18  H   UNL     1       3.497   6.860  20.780  0.00  0.00    +0.000 HD
ENDBRANCH  15  17
ENDBRANCH   5  15
TORSDOF 4
ENDMDL
MODEL 6
REMARK VINA RESULT:      -6.0      2.676      5.167
REMARK  Name = 
REMARK  7 active torsions:
REMARK  status: ('A' for Active; 'I' for Inactive)
REMARK    1  A    between atoms: C_1  and  C_2
REMARK    2  A    between atoms: C_2  and  O_3
REMARK    3  A    between atoms: C_2  and  C_4
REMARK    4  A    between atoms: C_8  and  C_9
REMARK    5  A    between atoms: C_9  and  O_11
REMARK    6  A    between atoms: C_12  and  C_13
REMARK    7  A    between atoms: C_12  and  C_14
REMARK                            x       y       z     vdW  Elec       q    Type
REMARK                         _______ _______ _______ _____ _____    ______ ____
ROOT
ATOM      1  C   UNL     1       5.932   4.746  16.253  0.00  0.00    +0.000 C 
ATOM      2  C   UNL     1       5.625   5.977  17.132  0.00  0.00    +0.000 C 
ATOM      3  O   UNL     1       6.206   6.840  17.740  0.00  0.00    +0.000 OA
ATOM      4  N   UNL     1       4.291   5.675  17.199  0.00  0.00    +0.000 N 
ATOM      5  C   UNL     1       3.651   5.593  18.519  0.00  0.00    +0.000 C 
ATOM      6  C   UNL     1       2.903   4.250  18.593  0.00  0.00    +0.000 C 
ATOM      7  C   UNL     1       2.782   3.736  20.028  0.00  0.00    +0.000 C 
ATOM      8  C   UNL     1       1.536   4.231  17.896  0.00  0.00    +0.000 C 
ATOM      9  S   UNL     1       4.030   3.104  17.644  0.00  0.00    +0.000 S 
ATOM     10  C   UNL     1       4.439   4.417  16.445  0.00  0.00    +0.000 C 
ENDROOT
BRANCH   1  12
ATOM     11  C   UNL     1       6.071   3.836  13.922  0.00  0.00    +0.000 C 
ATOM     12  C   UNL     1       6.321   5.046  14.812  0.00  0.00    +0.000 C 
BRANCH  12  13
ATOM     13  O   UNL     1       7.699   5.397  14.740  0.00  0.00    +0.000 OA
ATOM     14  H   UNL     1       7.850   5.957  13.960  0.00  0.00    +0.000 HD
ENDBRANCH  12  13
ENDBRANCH   1  12
BRANCH   5  15
ATOM     15  C   UNL     1       2.820   6.843  18.814  0.00  0.00    +0.000 C 
ATOM     16  O   UNL     1       2.361   7.587  17.958  0.00  0.00    +0.000 OA
BRANCH  15  17
ATOM     17  O   UNL     1       2.504   6.991  20.126  0.00  0.00    +0.000 OA
ATOM     18  H   UNL     1       1.765   6.405  20.406  0.00  0.00    +0.000 HD
ENDBRANCH  15  17
ENDBRANCH   5  15
TORSDOF 4
ENDMDL
MODEL 7
REMARK VINA RESULT:      -6.0      2.109      5.088
REMARK  Name = 
REMARK  7 active torsions:
REMARK  status: ('A' for Active; 'I' for Inactive)
REMARK    1  A    between atoms: C_1  and  C_2
REMARK    2  A    between atoms: C_2  and  O_3
REMARK    3  A    between atoms: C_2  and  C_4
REMARK    4  A    between atoms: C_8  and  C_9
REMARK    5  A    between atoms: C_9  and  O_11
REMARK    6  A    between atoms: C_12  and  C_13
REMARK    7  A    between atoms: C_12  and  C_14
REMARK                            x       y       z     vdW  Elec       q    Type
REMARK                         _______ _______ _______ _____ _____    ______ ____
ROOT
ATOM      1  C   UNL     1       5.890   4.332  17.278  0.00  0.00    +0.000 C 
ATOM      2  C   UNL     1       5.607   4.852  18.704  0.00  0.00    +0.000 C 
ATOM      3  O   UNL     1       6.188   5.056  19.740  0.00  0.00    +0.000 OA
ATOM      4  N   UNL     1       4.252   4.850  18.503  0.00  0.00    +0.000 N 
ATOM      5  C   UNL     1       3.396   4.149  19.470  0.00  0.00    +0.000 C 
ATOM      6  C   UNL     1       2.474   3.204  18.679  0.00  0.00    +0.000 C 
ATOM      7  C   UNL     1       2.048   1.989  19.504  0.00  0.00    +0.000 C 
ATOM      8  C   UNL     1       1.252   3.877  18.040  0.00  0.00    +0.000 C 
ATOM      9  S   UNL     1       3.581   2.623  17.292  0.00  0.00    +0.000 S 
ATOM     10  C   UNL     1       4.355   4.269  17.153  0.00  0.00    +0.000 C 
ENDROOT
BRANCH   1  12
ATOM     11  C   UNL     1       5.607   5.697  15.195  0.00  0.00    +0.000 C 
ATOM     12  C   UNL     1       6.548   5.327  16.333  0.00  0.00    +0.000 C 
BRANCH  12  13
ATOM     13  O   UNL     1       7.738   4.767  15.786  0.00  0.00    +0.000 OA
ATOM     14  H   UNL     1       7.504   4.079  15.141  0.00  0.00    +0.000 HD
ENDBRANCH  12  13
ENDBRANCH   1  12
BRANCH   5  15
ATOM     15  C   UNL     1       2.702   5.131  20.415  0.00  0.00    +0.000 C 
ATOM     16  O   UNL     1       2.166   4.818  21.469  0.00  0.00    +0.000 OA
BRANCH  15  17
ATOM     17  O   UNL     1       2.853   6.432  20.057  0.00  0.00    +0.000 OA
ATOM     18  H   UNL     1       3.769   6.641  19.764  0.00  0.00    +0.000 HD
ENDBRANCH  15  17
ENDBRANCH   5  15
TORSDOF 4
ENDMDL
MODEL 8
REMARK VINA RESULT:      -6.0      1.337      4.827
REMARK  Name = 
REMARK  7 active torsions:
REMARK  status: ('A' for Active; 'I' for Inactive)
REMARK    1  A    between atoms: C_1  and  C_2
REMARK    2  A    between atoms: C_2  and  O_3
REMARK    3  A    between atoms: C_2  and  C_4
REMARK    4  A    between atoms: C_8  and  C_9
REMARK    5  A    between atoms: C_9  and  O_11
REMARK    6  A    between atoms: C_12  and  C_13
REMARK    7  A    between atoms: C_12  and  C_14
REMARK                            x       y       z     vdW  Elec       q    Type
REMARK                         _______ _______ _______ _____ _____    ______ ____
ROOT
ATOM      1  C   UNL     1       5.797   5.996  17.894  0.00  0.00    +0.000 C 
ATOM      2  C   UNL     1       5.714   4.497  17.540  0.00  0.00    +0.000 C 
ATOM      3  O   UNL     1       5.959   3.754  16.621  0.00  0.00    +0.000 OA
ATOM      4  N   UNL     1       4.999   4.204  18.670  0.00  0.00    +0.000 N 
ATOM      5  C   UNL     1       3.734   3.468  18.535  0.00  0.00    +0.000 C 
ATOM      6  C   UNL     1       2.654   4.252  19.301  0.00  0.00    +0.000 C 
ATOM      7  C   UNL     1       1.257   4.022  18.724  0.00  0.00    +0.000 C 
ATOM      8  C   UNL     1       2.652   4.036  20.821  0.00  0.00    +0.000 C 
ATOM      9  S   UNL     1       3.142   6.027  18.989  0.00  0.00    +0.000 S 
ATOM     10  C   UNL     1       4.914   5.612  19.098  0.00  0.00    +0.000 C 
ENDROOT
BRANCH   1  12
ATOM     11  C   UNL     1       7.567   7.708  17.423  0.00  0.00    +0.000 C 
ATOM     12  C   UNL     1       7.179   6.507  18.277  0.00  0.00    +0.000 C 
BRANCH  12  13
ATOM     13  O   UNL     1       8.148   5.479  18.096  0.00  0.00    +0.000 OA
ATOM     14  H   UNL     1       8.417   5.133  18.964  0.00  0.00    +0.000 HD
ENDBRANCH  12  13
ENDBRANCH   1  12
BRANCH   5  15
ATOM     15  C   UNL     1       3.902   1.998  18.923  0.00  0.00    +0.000 C 
ATOM     16  O   UNL     1       3.231   1.081  18.468  0.00  0.00    +0.000 OA
BRANCH  15  17
ATOM     17  O   UNL     1       4.972   1.763  19.724  0.00  0.00    +0.000 OA
ATOM     18  H   UNL     1       5.828   1.845  19.247  0.00  0.00    +0.000 HD
ENDBRANCH  15  17
ENDBRANCH   5  15
TORSDOF 4
ENDMDL
MODEL 9
REMARK VINA RESULT:      -5.9      2.585      5.196
REMARK  Name = 
REMARK  7 active torsions:
REMARK  status: ('A' for Active; 'I' for Inactive)
REMARK    1  A    between atoms: C_1  and  C_2
REMARK    2  A    between atoms: C_2  and  O_3
REMARK    3  A    between atoms: C_2  and  C_4
REMARK    4  A    between atoms: C_8  and  C_9
REMARK    5  A    between atoms: C_9  and  O_11
REMARK    6  A    between atoms: C_12  and  C_13
REMARK    7  A    between atoms: C_12  and  C_14
REMARK                            x       y       z     vdW  Elec       q    Type
REMARK                         _______ _______ _______ _____ _____    ______ ____
ROOT
ATOM      1  C   UNL     1       5.147   4.252  16.606  0.00  0.00    +0.000 C 
ATOM      2  C   UNL     1       4.923   5.378  17.638  0.00  0.00    +0.000 C 
ATOM      3  O   UNL     1       5.551   6.219  18.231  0.00  0.00    +0.000 OA
ATOM      4  N   UNL     1       3.634   4.984  17.882  0.00  0.00    +0.000 N 
ATOM      5  C   UNL     1       3.219   4.744  19.271  0.00  0.00    +0.000 C 
ATOM      6  C   UNL     1       2.561   3.354  19.327  0.00  0.00    +0.000 C 
ATOM      7  C   UNL     1       2.698   2.707  20.706  0.00  0.00    +0.000 C 
ATOM      8  C   UNL     1       1.102   3.308  18.852  0.00  0.00    +0.000 C 
ATOM      9  S   UNL     1       3.577   2.372  18.107  0.00  0.00    +0.000 S 
ATOM     10  C   UNL     1       3.722   3.810  16.994  0.00  0.00    +0.000 C 
ENDROOT
BRANCH   1  12
ATOM     11  C   UNL     1       6.331   3.873  14.429  0.00  0.00    +0.000 C 
ATOM     12  C   UNL     1       5.283   4.704  15.159  0.00  0.00    +0.000 C 
BRANCH  12  13
ATOM     13  O   UNL     1       5.664   6.076  15.108  0.00  0.00    +0.000 OA
ATOM     14  H   UNL     1       5.119   6.585  15.732  0.00  0.00    +0.000 HD
ENDBRANCH  12  13
ENDBRANCH   1  12
BRANCH   5  15
ATOM     15  C   UNL     1       2.385   5.906  19.812  0.00  0.00    +0.000 C 
ATOM     16  O   UNL     1       1.710   5.859  20.831  0.00  0.00    +0.000 OA
BRANCH  15  17
ATOM     17  O   UNL     1       2.568   7.069  19.136  0.00  0.00    +0.000 OA
ATOM     18  H   UNL     1       2.963   7.775  19.696  0.00  0.00    +0.000 HD
ENDBRANCH  15  17
ENDBRANCH   5  15
TORSDOF 4
ENDMDL
