MODEL 1
REMARK VINA RESULT:      -8.7      0.000      0.000
REMARK  Name = 
REMARK  3 active torsions:
REMARK  status: ('A' for Active; 'I' for Inactive)
REMARK    1  A    between atoms: C_1  and  O_2
REMARK    2  A    between atoms: O_2  and  C_3
REMARK    3  A    between atoms: C_9  and  C_10
REMARK                            x       y       z     vdW  Elec       q    Type
REMARK                         _______ _______ _______ _____ _____    ______ ____
ROOT
ATOM      1  C   UNL     1       6.661   6.192  16.718  0.00  0.00    +0.000 A 
ATOM      2  C   UNL     1       6.684   4.862  16.308  0.00  0.00    +0.000 A 
ATOM      3  C   UNL     1       5.567   4.035  16.470  0.00  0.00    +0.000 A 
ATOM      4  C   UNL     1       4.421   4.591  17.051  0.00  0.00    +0.000 A 
ATOM      5  N   UNL     1       3.206   4.013  17.341  0.00  0.00    +0.000 N 
ATOM      6  C   UNL     1       2.372   4.932  17.913  0.00  0.00    +0.000 A 
ATOM      7  C   UNL     1       3.039   6.140  17.995  0.00  0.00    +0.000 A 
ATOM      8  C   UNL     1       4.355   5.921  17.471  0.00  0.00    +0.000 A 
ATOM      9  C   UNL     1       5.511   6.719  17.317  0.00  0.00    +0.000 A 
ATOM     10  H   UNL     1       2.972   3.047  17.160  0.00  0.00    +0.000 HD
ENDROOT
BRANCH   7  11
ATOM     11  C   UNL     1       2.416   7.347  18.526  0.00  0.00    +0.000 A 
ATOM     12  C   UNL     1       2.143   8.433  17.706  0.00  0.00    +0.000 A 
ATOM     13  C   UNL     1       1.534   9.553  18.259  0.00  0.00    +0.000 A 
ATOM     14  C   UNL     1       1.193   9.553  19.614  0.00  0.00    +0.000 A 
ATOM     15  C   UNL     1       0.550  10.652  20.206  0.00  0.00    +0.000 A 
ATOM     16  C   UNL     1       0.212  10.611  21.554  0.00  0.00    +0.000 A 
ATOM     17 CL   UNL     1      -0.601  11.944  22.276  0.00  0.00    +0.000 Cl
ATOM     18  C   UNL     1       0.523   9.493  22.320  0.00  0.00    +0.000 A 
ATOM     19  C   UNL     1       1.167   8.404  21.722  0.00  0.00    +0.000 A 
ATOM     20  C   UNL     1       1.504   8.406  20.375  0.00  0.00    +0.000 A 
ATOM     21  N   UNL     1       2.099   7.327  19.845  0.00  0.00    +0.000 NA
ENDBRANCH   7  11
BRANCH   1  23
ATOM     22  C   UNL     1       7.784   8.049  17.657  0.00  0.00    +0.000 C 
ATOM     23  O   UNL     1       7.710   7.069  16.631  0.00  0.00    +0.000 OA
ENDBRANCH   1  23
TORSDOF 2
ENDMDL
MODEL 2
REMARK VINA RESULT:      -8.4      2.377      3.406
REMARK  Name = 
REMARK  3 active torsions:
REMARK  status: ('A' for Active; 'I' for Inactive)
REMARK    1  A    between atoms: C_1  and  O_2
REMARK    2  A    between atoms: O_2  and  C_3
REMARK    3  A    between atoms: C_9  and  C_10
REMARK                            x       y       z     vdW  Elec       q    Type
REMARK                         _______ _______ _______ _____ _____    ______ ____
ROOT
ATOM      1  C   UNL     1       2.305   3.126  19.176  0.00  0.00    +0.000 A 
ATOM      2  C   UNL     1       3.331   2.582  18.408  0.00  0.00    +0.000 A 
ATOM      3  C   UNL     1       4.159   3.397  17.626  0.00  0.00    +0.000 A 
ATOM      4  C   UNL     1       3.926   4.777  17.647  0.00  0.00    +0.000 A 
ATOM      5  N   UNL     1       4.565   5.792  16.973  0.00  0.00    +0.000 N 
ATOM      6  C   UNL     1       4.002   6.996  17.291  0.00  0.00    +0.000 A 
ATOM      7  C   UNL     1       2.982   6.778  18.198  0.00  0.00    +0.000 A 
ATOM      8  C   UNL     1       2.912   5.361  18.407  0.00  0.00    +0.000 A 
ATOM      9  C   UNL     1       2.079   4.506  19.163  0.00  0.00    +0.000 A 
ATOM     10  H   UNL     1       5.335   5.660  16.331  0.00  0.00    +0.000 HD
ENDROOT
BRANCH   7  11
ATOM     11  C   UNL     1       2.196   7.863  18.773  0.00  0.00    +0.000 A 
ATOM     12  C   UNL     1       1.716   8.898  17.981  0.00  0.00    +0.000 A 
ATOM     13  C   UNL     1       0.959   9.900  18.576  0.00  0.00    +0.000 A 
ATOM     14  C   UNL     1       0.681   9.834  19.944  0.00  0.00    +0.000 A 
ATOM     15  C   UNL     1      -0.104  10.809  20.579  0.00  0.00    +0.000 A 
ATOM     16  C   UNL     1      -0.372  10.703  21.939  0.00  0.00    +0.000 A 
ATOM     17 CL   UNL     1      -1.358  11.881  22.714  0.00  0.00    +0.000 Cl
ATOM     18  C   UNL     1       0.148   9.643  22.674  0.00  0.00    +0.000 A 
ATOM     19  C   UNL     1       0.933   8.678  22.034  0.00  0.00    +0.000 A 
ATOM     20  C   UNL     1       1.206   8.746  20.674  0.00  0.00    +0.000 A 
ATOM     21  N   UNL     1       1.944   7.782  20.103  0.00  0.00    +0.000 NA
ENDBRANCH   7  11
BRANCH   1  23
ATOM     22  C   UNL     1       1.410   2.741  21.331  0.00  0.00    +0.000 C 
ATOM     23  O   UNL     1       1.427   2.412  19.947  0.00  0.00    +0.000 OA
ENDBRANCH   1  23
TORSDOF 2
ENDMDL
MODEL 3
REMARK VINA RESULT:      -8.3      0.906      1.746
REMARK  Name = 
REMARK  3 active torsions:
REMARK  status: ('A' for Active; 'I' for Inactive)
REMARK    1  A    between atoms: C_1  and  O_2
REMARK    2  A    between atoms: O_2  and  C_3
REMARK    3  A    between atoms: C_9  and  C_10
REMARK                            x       y       z     vdW  Elec       q    Type
REMARK                         _______ _______ _______ _____ _____    ______ ____
ROOT
ATOM      1  C   UNL     1       6.737   6.034  16.557  0.00  0.00    +0.000 A 
ATOM      2  C   UNL     1       6.810   4.803  15.912  0.00  0.00    +0.000 A 
ATOM      3  C   UNL     1       5.752   3.888  15.978  0.00  0.00    +0.000 A 
ATOM      4  C   UNL     1       4.615   4.254  16.707  0.00  0.00    +0.000 A 
ATOM      5  N   UNL     1       3.455   3.554  16.948  0.00  0.00    +0.000 N 
ATOM      6  C   UNL     1       2.608   4.299  17.720  0.00  0.00    +0.000 A 
ATOM      7  C   UNL     1       3.209   5.515  17.985  0.00  0.00    +0.000 A 
ATOM      8  C   UNL     1       4.501   5.481  17.364  0.00  0.00    +0.000 A 
ATOM      9  C   UNL     1       5.598   6.368  17.299  0.00  0.00    +0.000 A 
ATOM     10  H   UNL     1       3.266   2.622  16.608  0.00  0.00    +0.000 HD
ENDROOT
BRANCH   7  11
ATOM     11  C   UNL     1       2.554   6.564  18.756  0.00  0.00    +0.000 A 
ATOM     12  C   UNL     1       2.199   6.362  20.083  0.00  0.00    +0.000 A 
ATOM     13  C   UNL     1       1.590   7.401  20.779  0.00  0.00    +0.000 A 
ATOM     14  C   UNL     1       1.369   8.623  20.139  0.00  0.00    +0.000 A 
ATOM     15  C   UNL     1       0.785   9.707  20.812  0.00  0.00    +0.000 A 
ATOM     16  C   UNL     1       0.593  10.913  20.148  0.00  0.00    +0.000 A 
ATOM     17 CL   UNL     1      -0.096  12.251  20.980  0.00  0.00    +0.000 Cl
ATOM     18  C   UNL     1       0.965  11.043  18.814  0.00  0.00    +0.000 A 
ATOM     19  C   UNL     1       1.544   9.956  18.149  0.00  0.00    +0.000 A 
ATOM     20  C   UNL     1       1.764   8.743  18.788  0.00  0.00    +0.000 A 
ATOM     21  N   UNL     1       2.344   7.740  18.113  0.00  0.00    +0.000 NA
ENDBRANCH   7  11
BRANCH   1  23
ATOM     22  C   UNL     1       7.704   7.877  17.680  0.00  0.00    +0.000 C 
ATOM     23  O   UNL     1       7.727   6.980  16.577  0.00  0.00    +0.000 OA
ENDBRANCH   1  23
TORSDOF 2
ENDMDL
MODEL 4
REMARK VINA RESULT:      -7.9      4.324      5.999
REMARK  Name = 
REMARK  3 active torsions:
REMARK  status: ('A' for Active; 'I' for Inactive)
REMARK    1  A    between atoms: C_1  and  O_2
REMARK    2  A    between atoms: O_2  and  C_3
REMARK    3  A    between atoms: C_9  and  C_10
REMARK                            x       y       z     vdW  Elec       q    Type
REMARK                         _______ _______ _______ _____ _____    ______ ____
ROOT
ATOM      1  C   UNL     1       5.945   3.421  12.368  0.00  0.00    +0.000 A 
ATOM      2  C   UNL     1       7.028   4.214  12.000  0.00  0.00    +0.000 A 
ATOM      3  C   UNL     1       7.667   5.043  12.929  0.00  0.00    +0.000 A 
ATOM      4  C   UNL     1       7.186   5.045  14.244  0.00  0.00    +0.000 A 
ATOM      5  N   UNL     1       7.606   5.763  15.339  0.00  0.00    +0.000 N 
ATOM      6  C   UNL     1       6.842   5.452  16.428  0.00  0.00    +0.000 A 
ATOM      7  C   UNL     1       5.908   4.504  16.053  0.00  0.00    +0.000 A 
ATOM      8  C   UNL     1       6.106   4.261  14.654  0.00  0.00    +0.000 A 
ATOM      9  C   UNL     1       5.468   3.457  13.683  0.00  0.00    +0.000 A 
ATOM     10  H   UNL     1       8.366   6.429  15.332  0.00  0.00    +0.000 HD
ENDROOT
BRANCH   7  11
ATOM     11  C   UNL     1       4.955   3.925  16.992  0.00  0.00    +0.000 A 
ATOM     12  C   UNL     1       4.495   2.625  16.837  0.00  0.00    +0.000 A 
ATOM     13  C   UNL     1       3.599   2.116  17.770  0.00  0.00    +0.000 A 
ATOM     14  C   UNL     1       3.200   2.911  18.848  0.00  0.00    +0.000 A 
ATOM     15  C   UNL     1       2.321   2.426  19.828  0.00  0.00    +0.000 A 
ATOM     16  C   UNL     1       1.957   3.241  20.895  0.00  0.00    +0.000 A 
ATOM     17 CL   UNL     1       0.901   2.639  22.113  0.00  0.00    +0.000 Cl
ATOM     18  C   UNL     1       2.449   4.538  20.984  0.00  0.00    +0.000 A 
ATOM     19  C   UNL     1       3.323   5.014  20.000  0.00  0.00    +0.000 A 
ATOM     20  C   UNL     1       3.719   4.221  18.931  0.00  0.00    +0.000 A 
ATOM     21  N   UNL     1       4.577   4.717  18.028  0.00  0.00    +0.000 NA
ENDBRANCH   7  11
BRANCH   1  23
ATOM     22  C   UNL     1       3.952   3.074  11.143  0.00  0.00    +0.000 C 
ATOM     23  O   UNL     1       5.238   2.603  11.528  0.00  0.00    +0.000 OA
ENDBRANCH   1  23
TORSDOF 2
ENDMDL
MODEL 5
REMARK VINA RESULT:      -7.9      4.302      6.146
REMARK  Name = 
REMARK  3 active torsions:
REMARK  status: ('A' for Active; 'I' for Inactive)
REMARK    1  A    between atoms: C_1  and  O_2
REMARK    2  A    between atoms: O_2  and  C_3
REMARK    3  A    between atoms: C_9  and  C_10
REMARK                            x       y       z     vdW  Elec       q    Type
REMARK                         _______ _______ _______ _____ _____    ______ ____
ROOT
ATOM      1  C   UNL     1       5.310   3.332  12.021  0.00  0.00    +0.000 A 
ATOM      2  C   UNL     1       6.526   3.683  11.441  0.00  0.00    +0.000 A 
ATOM      3  C   UNL     1       7.484   4.413  12.155  0.00  0.00    +0.000 A 
ATOM      4  C   UNL     1       7.183   4.772  13.474  0.00  0.00    +0.000 A 
ATOM      5  N   UNL     1       7.921   5.492  14.385  0.00  0.00    +0.000 N 
ATOM      6  C   UNL     1       7.234   5.609  15.561  0.00  0.00    +0.000 A 
ATOM      7  C   UNL     1       6.027   4.946  15.432  0.00  0.00    +0.000 A 
ATOM      8  C   UNL     1       5.978   4.434  14.094  0.00  0.00    +0.000 A 
ATOM      9  C   UNL     1       5.024   3.721  13.334  0.00  0.00    +0.000 A 
ATOM     10  H   UNL     1       8.836   5.881  14.204  0.00  0.00    +0.000 HD
ENDROOT
BRANCH   7  11
ATOM     11  C   UNL     1       5.065   4.847  16.522  0.00  0.00    +0.000 A 
ATOM     12  C   UNL     1       4.451   5.978  17.043  0.00  0.00    +0.000 A 
ATOM     13  C   UNL     1       3.529   5.826  18.072  0.00  0.00    +0.000 A 
ATOM     14  C   UNL     1       3.227   4.546  18.543  0.00  0.00    +0.000 A 
ATOM     15  C   UNL     1       2.281   4.346  19.560  0.00  0.00    +0.000 A 
ATOM     16  C   UNL     1       1.995   3.056  19.995  0.00  0.00    +0.000 A 
ATOM     17 CL   UNL     1       0.815   2.806  21.221  0.00  0.00    +0.000 Cl
ATOM     18  C   UNL     1       2.654   1.967  19.435  0.00  0.00    +0.000 A 
ATOM     19  C   UNL     1       3.598   2.176  18.423  0.00  0.00    +0.000 A 
ATOM     20  C   UNL     1       3.895   3.450  17.956  0.00  0.00    +0.000 A 
ATOM     21  N   UNL     1       4.791   3.595  16.968  0.00  0.00    +0.000 NA
ENDBRANCH   7  11
BRANCH   1  23
ATOM     22  C   UNL     1       3.488   3.412  10.515  0.00  0.00    +0.000 C 
ATOM     23  O   UNL     1       4.301   2.648  11.397  0.00  0.00    +0.000 OA
ENDBRANCH   1  23
TORSDOF 2
ENDMDL
MODEL 6
REMARK VINA RESULT:      -7.7      2.712      3.794
REMARK  Name = 
REMARK  3 active torsions:
REMARK  status: ('A' for Active; 'I' for Inactive)
REMARK    1  A    between atoms: C_1  and  O_2
REMARK    2  A    between atoms: O_2  and  C_3
REMARK    3  A    between atoms: C_9  and  C_10
REMARK                            x       y       z     vdW  Elec       q    Type
REMARK                         _______ _______ _______ _____ _____    ______ ____
ROOT
ATOM      1  C   UNL     1       2.680   4.319  20.661  0.00  0.00    +0.000 A 
ATOM      2  C   UNL     1       3.609   3.792  19.769  0.00  0.00    +0.000 A 
ATOM      3  C   UNL     1       4.051   4.529  18.664  0.00  0.00    +0.000 A 
ATOM      4  C   UNL     1       3.532   5.817  18.488  0.00  0.00    +0.000 A 
ATOM      5  N   UNL     1       3.774   6.740  17.496  0.00  0.00    +0.000 N 
ATOM      6  C   UNL     1       3.044   7.873  17.720  0.00  0.00    +0.000 A 
ATOM      7  C   UNL     1       2.315   7.704  18.883  0.00  0.00    +0.000 A 
ATOM      8  C   UNL     1       2.603   6.384  19.362  0.00  0.00    +0.000 A 
ATOM      9  C   UNL     1       2.160   5.601  20.451  0.00  0.00    +0.000 A 
ATOM     10  H   UNL     1       4.397   6.593  16.714  0.00  0.00    +0.000 HD
ENDROOT
BRANCH   7  11
ATOM     11  C   UNL     1       1.454   8.746  19.429  0.00  0.00    +0.000 A 
ATOM     12  C   UNL     1       0.976   9.774  18.627  0.00  0.00    +0.000 A 
ATOM     13  C   UNL     1       0.145  10.733  19.194  0.00  0.00    +0.000 A 
ATOM     14  C   UNL     1      -0.204  10.633  20.543  0.00  0.00    +0.000 A 
ATOM     15  C   UNL     1      -1.064  11.563  21.148  0.00  0.00    +0.000 A 
ATOM     16  C   UNL     1      -1.402  11.423  22.489  0.00  0.00    +0.000 A 
ATOM     17 CL   UNL     1      -2.477  12.546  23.225  0.00  0.00    +0.000 Cl
ATOM     18  C   UNL     1      -0.879  10.374  23.236  0.00  0.00    +0.000 A 
ATOM     19  C   UNL     1      -0.020   9.453  22.626  0.00  0.00    +0.000 A 
ATOM     20  C   UNL     1       0.325   9.554  21.285  0.00  0.00    +0.000 A 
ATOM     21  N   UNL     1       1.133   8.632  20.742  0.00  0.00    +0.000 NA
ENDBRANCH   7  11
BRANCH   1  23
ATOM     22  C   UNL     1       1.381   2.516  21.469  0.00  0.00    +0.000 C 
ATOM     23  O   UNL     1       2.166   3.668  21.750  0.00  0.00    +0.000 OA
ENDBRANCH   1  23
TORSDOF 2
ENDMDL
MODEL 7
REMARK VINA RESULT:      -7.6      5.001      6.358
REMARK  Name = 
REMARK  3 active torsions:
REMARK  status: ('A' for Active; 'I' for Inactive)
REMARK    1  A    between atoms: C_1  and  O_2
REMARK    2  A    between atoms: O_2  and  C_3
REMARK    3  A    between atoms: C_9  and  C_10
REMARK                            x       y       z     vdW  Elec       q    Type
REMARK                         _______ _______ _______ _____ _____    ______ ____
ROOT
ATOM      1  C   UNL     1       5.382   3.308  12.101  0.00  0.00    +0.000 A 
ATOM      2  C   UNL     1       6.459   3.842  11.399  0.00  0.00    +0.000 A 
ATOM      3  C   UNL     1       7.431   4.616  12.044  0.00  0.00    +0.000 A 
ATOM      4  C   UNL     1       7.289   4.830  13.420  0.00  0.00    +0.000 A 
ATOM      5  N   UNL     1       8.074   5.553  14.288  0.00  0.00    +0.000 N 
ATOM      6  C   UNL     1       7.556   5.495  15.551  0.00  0.00    +0.000 A 
ATOM      7  C   UNL     1       6.416   4.712  15.523  0.00  0.00    +0.000 A 
ATOM      8  C   UNL     1       6.227   4.308  14.161  0.00  0.00    +0.000 A 
ATOM      9  C   UNL     1       5.251   3.554  13.472  0.00  0.00    +0.000 A 
ATOM     10  H   UNL     1       8.908   6.059  14.023  0.00  0.00    +0.000 HD
ENDROOT
BRANCH   7  11
ATOM     11  C   UNL     1       5.638   4.415  16.719  0.00  0.00    +0.000 A 
ATOM     12  C   UNL     1       6.155   4.646  17.987  0.00  0.00    +0.000 A 
ATOM     13  C   UNL     1       5.364   4.360  19.094  0.00  0.00    +0.000 A 
ATOM     14  C   UNL     1       4.069   3.870  18.909  0.00  0.00    +0.000 A 
ATOM     15  C   UNL     1       3.228   3.597  19.998  0.00  0.00    +0.000 A 
ATOM     16  C   UNL     1       1.939   3.124  19.776  0.00  0.00    +0.000 A 
ATOM     17 CL   UNL     1       0.896   2.816  21.108  0.00  0.00    +0.000 Cl
ATOM     18  C   UNL     1       1.488   2.908  18.478  0.00  0.00    +0.000 A 
ATOM     19  C   UNL     1       2.335   3.180  17.398  0.00  0.00    +0.000 A 
ATOM     20  C   UNL     1       3.621   3.668  17.585  0.00  0.00    +0.000 A 
ATOM     21  N   UNL     1       4.385   3.935  16.516  0.00  0.00    +0.000 NA
ENDBRANCH   7  11
BRANCH   1  23
ATOM     22  C   UNL     1       3.494   3.263  10.677  0.00  0.00    +0.000 C 
ATOM     23  O   UNL     1       4.368   2.566  11.556  0.00  0.00    +0.000 OA
ENDBRANCH   1  23
TORSDOF 2
ENDMDL
MODEL 8
REMARK VINA RESULT:      -7.5      1.406      1.574
REMARK  Name = 
REMARK  3 active torsions:
REMARK  status: ('A' for Active; 'I' for Inactive)
REMARK    1  A    between atoms: C_1  and  O_2
REMARK    2  A    between atoms: O_2  and  C_3
REMARK    3  A    between atoms: C_9  and  C_10
REMARK                            x       y       z     vdW  Elec       q    Type
REMARK                         _______ _______ _______ _____ _____    ______ ____
ROOT
ATOM      1  C   UNL     1       5.338   5.207  16.112  0.00  0.00    +0.000 A 
ATOM      2  C   UNL     1       5.350   3.839  16.367  0.00  0.00    +0.000 A 
ATOM      3  C   UNL     1       4.524   3.278  17.349  0.00  0.00    +0.000 A 
ATOM      4  C   UNL     1       3.680   4.138  18.062  0.00  0.00    +0.000 A 
ATOM      5  N   UNL     1       2.792   3.865  19.076  0.00  0.00    +0.000 N 
ATOM      6  C   UNL     1       2.177   5.014  19.486  0.00  0.00    +0.000 A 
ATOM      7  C   UNL     1       2.655   6.064  18.724  0.00  0.00    +0.000 A 
ATOM      8  C   UNL     1       3.634   5.515  17.832  0.00  0.00    +0.000 A 
ATOM      9  C   UNL     1       4.501   6.049  16.853  0.00  0.00    +0.000 A 
ATOM     10  H   UNL     1       2.627   2.946  19.464  0.00  0.00    +0.000 HD
ENDROOT
BRANCH   7  11
ATOM     11  C   UNL     1       2.175   7.432  18.881  0.00  0.00    +0.000 A 
ATOM     12  C   UNL     1       2.194   8.325  17.818  0.00  0.00    +0.000 A 
ATOM     13  C   UNL     1       1.710   9.612  18.017  0.00  0.00    +0.000 A 
ATOM     14  C   UNL     1       1.199   9.971  19.267  0.00  0.00    +0.000 A 
ATOM     15  C   UNL     1       0.673  11.251  19.502  0.00  0.00    +0.000 A 
ATOM     16  C   UNL     1       0.159  11.569  20.755  0.00  0.00    +0.000 A 
ATOM     17 CL   UNL     1      -0.512  13.127  21.037  0.00  0.00    +0.000 Cl
ATOM     18  C   UNL     1       0.179  10.627  21.778  0.00  0.00    +0.000 A 
ATOM     19  C   UNL     1       0.709   9.355  21.535  0.00  0.00    +0.000 A 
ATOM     20  C   UNL     1       1.215   9.000  20.292  0.00  0.00    +0.000 A 
ATOM     21  N   UNL     1       1.689   7.760  20.104  0.00  0.00    +0.000 NA
ENDBRANCH   7  11
BRANCH   1  23
ATOM     22  C   UNL     1       7.042   5.030  14.482  0.00  0.00    +0.000 C 
ATOM     23  O   UNL     1       6.127   5.851  15.196  0.00  0.00    +0.000 OA
ENDBRANCH   1  23
TORSDOF 2
ENDMDL
MODEL 9
REMARK VINA RESULT:      -7.5      2.403      3.695
REMARK  Name = 
REMARK  3 active torsions:
REMARK  status: ('A' for Active; 'I' for Inactive)
REMARK    1  A    between atoms: C_1  and  O_2
REMARK    2  A    between atoms: O_2  and  C_3
REMARK    3  A    between atoms: C_9  and  C_10
REMARK                            x       y       z     vdW  Elec       q    Type
REMARK                         _______ _______ _______ _____ _____    ______ ____
ROOT
ATOM      1  C   UNL     1       2.401   3.180  18.096  0.00  0.00    +0.000 A 
ATOM      2  C   UNL     1       3.478   2.925  17.251  0.00  0.00    +0.000 A 
ATOM      3  C   UNL     1       4.293   3.963  16.786  0.00  0.00    +0.000 A 
ATOM      4  C   UNL     1       3.996   5.266  17.203  0.00  0.00    +0.000 A 
ATOM      5  N   UNL     1       4.610   6.457  16.892  0.00  0.00    +0.000 N 
ATOM      6  C   UNL     1       3.981   7.492  17.525  0.00  0.00    +0.000 A 
ATOM      7  C   UNL     1       2.940   6.978  18.277  0.00  0.00    +0.000 A 
ATOM      8  C   UNL     1       2.929   5.562  18.054  0.00  0.00    +0.000 A 
ATOM      9  C   UNL     1       2.110   4.493  18.481  0.00  0.00    +0.000 A 
ATOM     10  H   UNL     1       5.408   6.549  16.277  0.00  0.00    +0.000 HD
ENDROOT
BRANCH   7  11
ATOM     11  C   UNL     1       2.085   7.816  19.109  0.00  0.00    +0.000 A 
ATOM     12  C   UNL     1       1.865   7.512  20.446  0.00  0.00    +0.000 A 
ATOM     13  C   UNL     1       1.054   8.352  21.199  0.00  0.00    +0.000 A 
ATOM     14  C   UNL     1       0.498   9.488  20.605  0.00  0.00    +0.000 A 
ATOM     15  C   UNL     1      -0.303  10.379  21.337  0.00  0.00    +0.000 A 
ATOM     16  C   UNL     1      -0.828  11.507  20.716  0.00  0.00    +0.000 A 
ATOM     17 CL   UNL     1      -1.785  12.615  21.618  0.00  0.00    +0.000 Cl
ATOM     18  C   UNL     1      -0.574  11.747  19.370  0.00  0.00    +0.000 A 
ATOM     19  C   UNL     1       0.223  10.851  18.647  0.00  0.00    +0.000 A 
ATOM     20  C   UNL     1       0.775   9.724  19.241  0.00  0.00    +0.000 A 
ATOM     21  N   UNL     1       1.551   8.910  18.510  0.00  0.00    +0.000 NA
ENDBRANCH   7  11
BRANCH   1  23
ATOM     22  C   UNL     1       0.804   2.608  19.743  0.00  0.00    +0.000 C 
ATOM     23  O   UNL     1       1.530   2.239  18.578  0.00  0.00    +0.000 OA
ENDBRANCH   1  23
TORSDOF 2
ENDMDL
