MODEL 1
REMARK VINA RESULT:      -8.9      0.000      0.000
REMARK  Name = 
REMARK  8 active torsions:
REMARK  status: ('A' for Active; 'I' for Inactive)
REMARK    1  A    between atoms: N_1  and  C_2
REMARK    2  A    between atoms: C_2  and  C_3
REMARK    3  A    between atoms: C_3  and  N_4
REMARK    4  A    between atoms: N_4  and  C_5
REMARK    5  A    between atoms: N_4  and  C_30
REMARK    6  A    between atoms: C_5  and  C_6
REMARK    7  A    between atoms: C_14  and  C_15
REMARK    8  A    between atoms: C_23  and  C_24
REMARK                            x       y       z     vdW  Elec       q    Type
REMARK                         _______ _______ _______ _____ _____    ______ ____
ROOT
ATOM      1  C   UNL     1       4.448   6.529  16.774  0.00  0.00    +0.000 C 
ATOM      2  C   UNL     1       4.225   5.114  17.323  0.00  0.00    +0.000 C 
ATOM      3  C   UNL     1       2.729   4.886  17.496  0.00  0.00    +0.000 C 
ATOM      4  C   UNL     1       2.085   5.979  18.368  0.00  0.00    +0.000 C 
ATOM      5  C   UNL     1       2.494   7.369  17.855  0.00  0.00    +0.000 C 
ATOM      6  O   UNL     1       3.923   7.462  17.738  0.00  0.00    +0.000 OA
ATOM      7  C   UNL     1       2.007   8.468  18.776  0.00  0.00    +0.000 A 
ATOM      8  C   UNL     1       1.919   9.793  18.303  0.00  0.00    +0.000 A 
ATOM      9  C   UNL     1       1.426  10.822  19.116  0.00  0.00    +0.000 A 
ATOM     10  C   UNL     1       1.032  10.515  20.425  0.00  0.00    +0.000 A 
ATOM     11  C   UNL     1       1.129   9.208  20.907  0.00  0.00    +0.000 A 
ATOM     12  C   UNL     1       1.638   8.179  20.106  0.00  0.00    +0.000 A 
ATOM     13  N   UNL     1       1.613   6.862  20.584  0.00  0.00    +0.000 N 
ATOM     14  C   UNL     1       2.486   5.942  19.858  0.00  0.00    +0.000 C 
ATOM     15  H   UNL     1       1.773   6.821  21.589  0.00  0.00    +0.000 HD
ENDROOT
BRANCH  14  16
ATOM     16  C   UNL     1       2.400   4.558  20.478  0.00  0.00    +0.000 A 
ATOM     17  C   UNL     1       1.183   3.999  20.891  0.00  0.00    +0.000 A 
ATOM     18  C   UNL     1       1.133   2.694  21.380  0.00  0.00    +0.000 A 
ATOM     19  C   UNL     1       2.298   1.932  21.467  0.00  0.00    +0.000 A 
ATOM     20  C   UNL     1       3.517   2.478  21.073  0.00  0.00    +0.000 A 
ATOM     21  C   UNL     1       3.571   3.781  20.588  0.00  0.00    +0.000 A 
ENDBRANCH  14  16
BRANCH   9  22
ATOM     22  C   UNL     1       1.270  12.232  18.596  0.00  0.00    +0.000 C 
ATOM     23  F   UNL     1       1.458  13.193  19.544  0.00  0.00    +0.000 F 
ATOM     24  F   UNL     1       2.155  12.520  17.601  0.00  0.00    +0.000 F 
ATOM     25  F   UNL     1       0.035  12.462  18.072  0.00  0.00    +0.000 F 
ENDBRANCH   9  22
BRANCH   1  26
ATOM     26  C   UNL     1       5.948   6.760  16.479  0.00  0.00    +0.000 C 
BRANCH  26  27
ATOM     27  N   UNL     1       6.689   5.516  16.209  0.00  0.00    +0.000 N 
BRANCH  27  28
ATOM     28  C   UNL     1       6.739   5.018  14.900  0.00  0.00    +0.000 A 
ATOM     29  C   UNL     1       7.660   5.502  13.954  0.00  0.00    +0.000 A 
ATOM     30  C   UNL     1       7.705   5.026  12.638  0.00  0.00    +0.000 A 
ATOM     31  C   UNL     1       6.820   4.040  12.225  0.00  0.00    +0.000 A 
ATOM     32  C   UNL     1       5.899   3.532  13.131  0.00  0.00    +0.000 A 
ATOM     33  C   UNL     1       5.865   4.014  14.447  0.00  0.00    +0.000 A 
ENDBRANCH  27  28
BRANCH  27  34
ATOM     34  C   UNL     1       7.314   4.710  17.274  0.00  0.00    +0.000 C 
BRANCH  34  35
ATOM     35  C   UNL     1       7.778   5.406  18.573  0.00  0.00    +0.000 C 
BRANCH  35  36
ATOM     36  N   UNL     1       6.862   5.304  19.714  0.00  0.00    +0.000 NA
ATOM     37  H   UNL     1       7.406   5.278  20.576  0.00  0.00    +0.000 HD
ATOM     38  H   UNL     1       6.369   4.409  19.668  0.00  0.00    +0.000 HD
ENDBRANCH  35  36
ENDBRANCH  34  35
ENDBRANCH  27  34
ENDBRANCH  26  27
ENDBRANCH   1  26
TORSDOF 8
ENDMDL
MODEL 2
REMARK VINA RESULT:      -8.9      0.184      1.160
REMARK  Name = 
REMARK  8 active torsions:
REMARK  status: ('A' for Active; 'I' for Inactive)
REMARK    1  A    between atoms: N_1  and  C_2
REMARK    2  A    between atoms: C_2  and  C_3
REMARK    3  A    between atoms: C_3  and  N_4
REMARK    4  A    between atoms: N_4  and  C_5
REMARK    5  A    between atoms: N_4  and  C_30
REMARK    6  A    between atoms: C_5  and  C_6
REMARK    7  A    between atoms: C_14  and  C_15
REMARK    8  A    between atoms: C_23  and  C_24
REMARK                            x       y       z     vdW  Elec       q    Type
REMARK                         _______ _______ _______ _____ _____    ______ ____
ROOT
ATOM      1  C   UNL     1       4.425   6.465  16.723  0.00  0.00    +0.000 C 
ATOM      2  C   UNL     1       4.241   5.034  17.244  0.00  0.00    +0.000 C 
ATOM      3  C   UNL     1       2.754   4.772  17.439  0.00  0.00    +0.000 C 
ATOM      4  C   UNL     1       2.103   5.831  18.346  0.00  0.00    +0.000 C 
ATOM      5  C   UNL     1       2.474   7.240  17.857  0.00  0.00    +0.000 C 
ATOM      6  O   UNL     1       3.898   7.366  17.716  0.00  0.00    +0.000 OA
ATOM      7  C   UNL     1       1.982   8.309  18.811  0.00  0.00    +0.000 A 
ATOM      8  C   UNL     1       1.858   9.641  18.369  0.00  0.00    +0.000 A 
ATOM      9  C   UNL     1       1.359  10.641  19.214  0.00  0.00    +0.000 A 
ATOM     10  C   UNL     1       0.996  10.298  20.523  0.00  0.00    +0.000 A 
ATOM     11  C   UNL     1       1.129   8.983  20.974  0.00  0.00    +0.000 A 
ATOM     12  C   UNL     1       1.643   7.982  20.141  0.00  0.00    +0.000 A 
ATOM     13  N   UNL     1       1.654   6.655  20.589  0.00  0.00    +0.000 N 
ATOM     14  C   UNL     1       2.533   5.769  19.827  0.00  0.00    +0.000 C 
ATOM     15  H   UNL     1       1.833   6.596  21.590  0.00  0.00    +0.000 HD
ENDROOT
BRANCH  14  16
ATOM     16  C   UNL     1       2.486   4.371  20.418  0.00  0.00    +0.000 A 
ATOM     17  C   UNL     1       3.606   3.527  20.426  0.00  0.00    +0.000 A 
ATOM     18  C   UNL     1       3.547   2.281  21.051  0.00  0.00    +0.000 A 
ATOM     19  C   UNL     1       2.370   1.860  21.669  0.00  0.00    +0.000 A 
ATOM     20  C   UNL     1       1.247   2.682  21.658  0.00  0.00    +0.000 A 
ATOM     21  C   UNL     1       1.300   3.924  21.033  0.00  0.00    +0.000 A 
ENDBRANCH  14  16
BRANCH   9  22
ATOM     22  C   UNL     1       1.165  12.059  18.729  0.00  0.00    +0.000 C 
ATOM     23  F   UNL     1       1.216  12.993  19.720  0.00  0.00    +0.000 F 
ATOM     24  F   UNL     1       2.112  12.433  17.823  0.00  0.00    +0.000 F 
ATOM     25  F   UNL     1      -0.033  12.239  18.107  0.00  0.00    +0.000 F 
ENDBRANCH   9  22
BRANCH   1  26
ATOM     26  C   UNL     1       5.914   6.734  16.406  0.00  0.00    +0.000 C 
BRANCH  26  27
ATOM     27  N   UNL     1       6.682   5.510  16.123  0.00  0.00    +0.000 N 
BRANCH  27  28
ATOM     28  C   UNL     1       6.729   5.017  14.811  0.00  0.00    +0.000 A 
ATOM     29  C   UNL     1       5.865   4.001  14.367  0.00  0.00    +0.000 A 
ATOM     30  C   UNL     1       5.917   3.487  13.065  0.00  0.00    +0.000 A 
ATOM     31  C   UNL     1       6.845   3.982  12.160  0.00  0.00    +0.000 A 
ATOM     32  C   UNL     1       7.712   4.990  12.559  0.00  0.00    +0.000 A 
ATOM     33  C   UNL     1       7.649   5.498  13.863  0.00  0.00    +0.000 A 
ENDBRANCH  27  28
BRANCH  27  34
ATOM     34  C   UNL     1       7.339   4.715  17.177  0.00  0.00    +0.000 C 
BRANCH  34  35
ATOM     35  C   UNL     1       7.766   5.409  18.489  0.00  0.00    +0.000 C 
BRANCH  35  36
ATOM     36  N   UNL     1       6.901   5.169  19.650  0.00  0.00    +0.000 NA
ATOM     37  H   UNL     1       5.968   4.919  19.323  0.00  0.00    +0.000 HD
ATOM     38  H   UNL     1       6.790   6.043  20.170  0.00  0.00    +0.000 HD
ENDBRANCH  35  36
ENDBRANCH  34  35
ENDBRANCH  27  34
ENDBRANCH  26  27
ENDBRANCH   1  26
TORSDOF 8
ENDMDL
MODEL 3
REMARK VINA RESULT:      -8.9      0.031      1.027
REMARK  Name = 
REMARK  8 active torsions:
REMARK  status: ('A' for Active; 'I' for Inactive)
REMARK    1  A    between atoms: N_1  and  C_2
REMARK    2  A    between atoms: C_2  and  C_3
REMARK    3  A    between atoms: C_3  and  N_4
REMARK    4  A    between atoms: N_4  and  C_5
REMARK    5  A    between atoms: N_4  and  C_30
REMARK    6  A    between atoms: C_5  and  C_6
REMARK    7  A    between atoms: C_14  and  C_15
REMARK    8  A    between atoms: C_23  and  C_24
REMARK                            x       y       z     vdW  Elec       q    Type
REMARK                         _______ _______ _______ _____ _____    ______ ____
ROOT
ATOM      1  C   UNL     1       4.445   6.549  16.773  0.00  0.00    +0.000 C 
ATOM      2  C   UNL     1       4.220   5.134  17.322  0.00  0.00    +0.000 C 
ATOM      3  C   UNL     1       2.723   4.908  17.492  0.00  0.00    +0.000 C 
ATOM      4  C   UNL     1       2.078   6.001  18.362  0.00  0.00    +0.000 C 
ATOM      5  C   UNL     1       2.490   7.391  17.849  0.00  0.00    +0.000 C 
ATOM      6  O   UNL     1       3.919   7.483  17.735  0.00  0.00    +0.000 OA
ATOM      7  C   UNL     1       2.002   8.491  18.769  0.00  0.00    +0.000 A 
ATOM      8  C   UNL     1       1.916   9.815  18.296  0.00  0.00    +0.000 A 
ATOM      9  C   UNL     1       1.422  10.845  19.108  0.00  0.00    +0.000 A 
ATOM     10  C   UNL     1       1.025  10.539  20.416  0.00  0.00    +0.000 A 
ATOM     11  C   UNL     1       1.120   9.232  20.899  0.00  0.00    +0.000 A 
ATOM     12  C   UNL     1       1.629   8.202  20.099  0.00  0.00    +0.000 A 
ATOM     13  N   UNL     1       1.602   6.885  20.577  0.00  0.00    +0.000 N 
ATOM     14  C   UNL     1       2.476   5.964  19.853  0.00  0.00    +0.000 C 
ATOM     15  H   UNL     1       1.760   6.844  21.582  0.00  0.00    +0.000 HD
ENDROOT
BRANCH  14  16
ATOM     16  C   UNL     1       2.388   4.580  20.473  0.00  0.00    +0.000 A 
ATOM     17  C   UNL     1       1.168   4.023  20.883  0.00  0.00    +0.000 A 
ATOM     18  C   UNL     1       1.117   2.717  21.371  0.00  0.00    +0.000 A 
ATOM     19  C   UNL     1       2.282   1.955  21.463  0.00  0.00    +0.000 A 
ATOM     20  C   UNL     1       3.501   2.500  21.072  0.00  0.00    +0.000 A 
ATOM     21  C   UNL     1       3.557   3.803  20.587  0.00  0.00    +0.000 A 
ENDBRANCH  14  16
BRANCH   9  22
ATOM     22  C   UNL     1       1.269  12.255  18.588  0.00  0.00    +0.000 C 
ATOM     23  F   UNL     1       2.151  12.578  17.600  0.00  0.00    +0.000 F 
ATOM     24  F   UNL     1       0.032  12.484  18.063  0.00  0.00    +0.000 F 
ATOM     25  F   UNL     1       1.438  13.192  19.560  0.00  0.00    +0.000 F 
ENDBRANCH   9  22
BRANCH   1  26
ATOM     26  C   UNL     1       5.946   6.778  16.481  0.00  0.00    +0.000 C 
BRANCH  26  27
ATOM     27  N   UNL     1       6.683   5.536  16.198  0.00  0.00    +0.000 N 
BRANCH  27  28
ATOM     28  C   UNL     1       6.715   5.040  14.887  0.00  0.00    +0.000 A 
ATOM     29  C   UNL     1       5.819   4.052  14.444  0.00  0.00    +0.000 A 
ATOM     30  C   UNL     1       5.856   3.535  13.142  0.00  0.00    +0.000 A 
ATOM     31  C   UNL     1       6.800   3.998  12.237  0.00  0.00    +0.000 A 
ATOM     32  C   UNL     1       7.699   4.978  12.635  0.00  0.00    +0.000 A 
ATOM     33  C   UNL     1       7.652   5.490  13.939  0.00  0.00    +0.000 A 
ENDBRANCH  27  28
BRANCH  27  34
ATOM     34  C   UNL     1       7.323   4.727  17.252  0.00  0.00    +0.000 C 
BRANCH  34  35
ATOM     35  C   UNL     1       7.762   5.411  18.566  0.00  0.00    +0.000 C 
BRANCH  35  36
ATOM     36  N   UNL     1       6.846   5.259  19.701  0.00  0.00    +0.000 NA
ATOM     37  H   UNL     1       6.418   6.161  19.907  0.00  0.00    +0.000 HD
ATOM     38  H   UNL     1       7.385   5.010  20.534  0.00  0.00    +0.000 HD
ENDBRANCH  35  36
ENDBRANCH  34  35
ENDBRANCH  27  34
ENDBRANCH  26  27
ENDBRANCH   1  26
TORSDOF 8
ENDMDL
MODEL 4
REMARK VINA RESULT:      -7.5      5.937     11.080
REMARK  Name = 
REMARK  8 active torsions:
REMARK  status: ('A' for Active; 'I' for Inactive)
REMARK    1  A    between atoms: N_1  and  C_2
REMARK    2  A    between atoms: C_2  and  C_3
REMARK    3  A    between atoms: C_3  and  N_4
REMARK    4  A    between atoms: N_4  and  C_5
REMARK    5  A    between atoms: N_4  and  C_30
REMARK    6  A    between atoms: C_5  and  C_6
REMARK    7  A    between atoms: C_14  and  C_15
REMARK    8  A    between atoms: C_23  and  C_24
REMARK                            x       y       z     vdW  Elec       q    Type
REMARK                         _______ _______ _______ _____ _____    ______ ____
ROOT
ATOM      1  C   UNL     1      -2.905  11.545  18.444  0.00  0.00    +0.000 C 
ATOM      2  C   UNL     1      -3.360  12.573  19.487  0.00  0.00    +0.000 C 
ATOM      3  C   UNL     1      -2.134  13.299  20.026  0.00  0.00    +0.000 C 
ATOM      4  C   UNL     1      -1.084  12.315  20.570  0.00  0.00    +0.000 C 
ATOM      5  C   UNL     1      -0.807  11.216  19.530  0.00  0.00    +0.000 C 
ATOM      6  O   UNL     1      -2.035  10.606  19.104  0.00  0.00    +0.000 OA
ATOM      7  C   UNL     1       0.105  10.142  20.085  0.00  0.00    +0.000 A 
ATOM      8  C   UNL     1       0.795   9.283  19.206  0.00  0.00    +0.000 A 
ATOM      9  C   UNL     1       1.683   8.313  19.688  0.00  0.00    +0.000 A 
ATOM     10  C   UNL     1       1.867   8.196  21.072  0.00  0.00    +0.000 A 
ATOM     11  C   UNL     1       1.177   9.033  21.952  0.00  0.00    +0.000 A 
ATOM     12  C   UNL     1       0.274   9.993  21.478  0.00  0.00    +0.000 A 
ATOM     13  N   UNL     1      -0.311  10.889  22.381  0.00  0.00    +0.000 N 
ATOM     14  C   UNL     1      -1.491  11.581  21.865  0.00  0.00    +0.000 C 
ATOM     15  H   UNL     1      -0.494  10.452  23.283  0.00  0.00    +0.000 HD
ENDROOT
BRANCH  14  16
ATOM     16  C   UNL     1      -2.055  12.499  22.934  0.00  0.00    +0.000 A 
ATOM     17  C   UNL     1      -1.357  13.624  23.397  0.00  0.00    +0.000 A 
ATOM     18  C   UNL     1      -1.943  14.490  24.320  0.00  0.00    +0.000 A 
ATOM     19  C   UNL     1      -3.230  14.241  24.797  0.00  0.00    +0.000 A 
ATOM     20  C   UNL     1      -3.930  13.121  24.357  0.00  0.00    +0.000 A 
ATOM     21  C   UNL     1      -3.348  12.254  23.438  0.00  0.00    +0.000 A 
ENDBRANCH  14  16
BRANCH   9  22
ATOM     22  C   UNL     1       2.473   7.431  18.749  0.00  0.00    +0.000 C 
ATOM     23  F   UNL     1       3.265   6.520  19.383  0.00  0.00    +0.000 F 
ATOM     24  F   UNL     1       1.671   6.705  17.920  0.00  0.00    +0.000 F 
ATOM     25  F   UNL     1       3.300   8.142  17.936  0.00  0.00    +0.000 F 
ENDBRANCH   9  22
BRANCH   1  26
ATOM     26  C   UNL     1      -4.130  10.864  17.792  0.00  0.00    +0.000 C 
BRANCH  26  27
ATOM     27  N   UNL     1      -5.399  11.561  18.061  0.00  0.00    +0.000 N 
BRANCH  27  28
ATOM     28  C   UNL     1      -6.218  11.115  19.108  0.00  0.00    +0.000 A 
ATOM     29  C   UNL     1      -6.768   9.822  19.122  0.00  0.00    +0.000 A 
ATOM     30  C   UNL     1      -7.605   9.373  20.153  0.00  0.00    +0.000 A 
ATOM     31  C   UNL     1      -7.917  10.215  21.210  0.00  0.00    +0.000 A 
ATOM     32  C   UNL     1      -7.388  11.498  21.235  0.00  0.00    +0.000 A 
ATOM     33  C   UNL     1      -6.551  11.936  20.200  0.00  0.00    +0.000 A 
ENDBRANCH  27  28
BRANCH  27  34
ATOM     34  C   UNL     1      -5.902  12.662  17.219  0.00  0.00    +0.000 C 
BRANCH  34  35
ATOM     35  C   UNL     1      -6.840  13.721  17.842  0.00  0.00    +0.000 C 
BRANCH  35  36
ATOM     36  N   UNL     1      -6.198  14.967  18.274  0.00  0.00    +0.000 NA
ATOM     37  H   UNL     1      -6.890  15.715  18.277  0.00  0.00    +0.000 HD
ATOM     38  H   UNL     1      -5.496  15.239  17.581  0.00  0.00    +0.000 HD
ENDBRANCH  35  36
ENDBRANCH  34  35
ENDBRANCH  27  34
ENDBRANCH  26  27
ENDBRANCH   1  26
TORSDOF 8
ENDMDL
MODEL 5
REMARK VINA RESULT:      -7.5      5.637     10.515
REMARK  Name = 
REMARK  8 active torsions:
REMARK  status: ('A' for Active; 'I' for Inactive)
REMARK    1  A    between atoms: N_1  and  C_2
REMARK    2  A    between atoms: C_2  and  C_3
REMARK    3  A    between atoms: C_3  and  N_4
REMARK    4  A    between atoms: N_4  and  C_5
REMARK    5  A    between atoms: N_4  and  C_30
REMARK    6  A    between atoms: C_5  and  C_6
REMARK    7  A    between atoms: C_14  and  C_15
REMARK    8  A    between atoms: C_23  and  C_24
REMARK                            x       y       z     vdW  Elec       q    Type
REMARK                         _______ _______ _______ _____ _____    ______ ____
ROOT
ATOM      1  C   UNL     1      -2.547  11.053  18.323  0.00  0.00    +0.000 C 
ATOM      2  C   UNL     1      -2.978  12.175  19.277  0.00  0.00    +0.000 C 
ATOM      3  C   UNL     1      -1.735  12.903  19.769  0.00  0.00    +0.000 C 
ATOM      4  C   UNL     1      -0.720  11.934  20.400  0.00  0.00    +0.000 C 
ATOM      5  C   UNL     1      -0.469  10.749  19.454  0.00  0.00    +0.000 C 
ATOM      6  O   UNL     1      -1.712  10.143  19.065  0.00  0.00    +0.000 OA
ATOM      7  C   UNL     1       0.405   9.694  20.102  0.00  0.00    +0.000 A 
ATOM      8  C   UNL     1       1.075   8.748  19.300  0.00  0.00    +0.000 A 
ATOM      9  C   UNL     1       1.928   7.793  19.867  0.00  0.00    +0.000 A 
ATOM     10  C   UNL     1       2.097   7.780  21.258  0.00  0.00    +0.000 A 
ATOM     11  C   UNL     1       1.426   8.705  22.062  0.00  0.00    +0.000 A 
ATOM     12  C   UNL     1       0.558   9.651  21.504  0.00  0.00    +0.000 A 
ATOM     13  N   UNL     1      -0.006  10.634  22.327  0.00  0.00    +0.000 N 
ATOM     14  C   UNL     1      -1.160  11.318  21.745  0.00  0.00    +0.000 C 
ATOM     15  H   UNL     1      -0.210  10.276  23.259  0.00  0.00    +0.000 HD
ENDROOT
BRANCH  14  16
ATOM     16  C   UNL     1      -1.704  12.335  22.733  0.00  0.00    +0.000 A 
ATOM     17  C   UNL     1      -0.965  13.459  23.130  0.00  0.00    +0.000 A 
ATOM     18  C   UNL     1      -1.531  14.414  23.974  0.00  0.00    +0.000 A 
ATOM     19  C   UNL     1      -2.837  14.257  24.437  0.00  0.00    +0.000 A 
ATOM     20  C   UNL     1      -3.578  13.140  24.062  0.00  0.00    +0.000 A 
ATOM     21  C   UNL     1      -3.017  12.184  23.221  0.00  0.00    +0.000 A 
ENDBRANCH  14  16
BRANCH   9  22
ATOM     22  C   UNL     1       2.697   6.815  19.010  0.00  0.00    +0.000 C 
ATOM     23  F   UNL     1       3.433   7.404  18.025  0.00  0.00    +0.000 F 
ATOM     24  F   UNL     1       3.582   6.072  19.734  0.00  0.00    +0.000 F 
ATOM     25  F   UNL     1       1.887   5.918  18.384  0.00  0.00    +0.000 F 
ENDBRANCH   9  22
BRANCH   1  26
ATOM     26  C   UNL     1      -3.788  10.360  17.714  0.00  0.00    +0.000 C 
BRANCH  26  27
ATOM     27  N   UNL     1      -4.546  11.223  16.793  0.00  0.00    +0.000 N 
BRANCH  27  28
ATOM     28  C   UNL     1      -5.662  11.925  17.272  0.00  0.00    +0.000 A 
ATOM     29  C   UNL     1      -6.107  13.114  16.670  0.00  0.00    +0.000 A 
ATOM     30  C   UNL     1      -7.207  13.834  17.153  0.00  0.00    +0.000 A 
ATOM     31  C   UNL     1      -7.901  13.379  18.265  0.00  0.00    +0.000 A 
ATOM     32  C   UNL     1      -7.495  12.205  18.885  0.00  0.00    +0.000 A 
ATOM     33  C   UNL     1      -6.394  11.491  18.392  0.00  0.00    +0.000 A 
ENDBRANCH  27  28
BRANCH  27  34
ATOM     34  C   UNL     1      -4.244  11.318  15.353  0.00  0.00    +0.000 C 
BRANCH  34  35
ATOM     35  C   UNL     1      -3.265  10.304  14.719  0.00  0.00    +0.000 C 
BRANCH  35  36
ATOM     36  N   UNL     1      -3.370  10.138  13.266  0.00  0.00    +0.000 NA
ATOM     37  H   UNL     1      -4.297   9.780  13.038  0.00  0.00    +0.000 HD
ATOM     38  H   UNL     1      -2.711   9.417  12.964  0.00  0.00    +0.000 HD
ENDBRANCH  35  36
ENDBRANCH  34  35
ENDBRANCH  27  34
ENDBRANCH  26  27
ENDBRANCH   1  26
TORSDOF 8
ENDMDL
MODEL 6
REMARK VINA RESULT:      -7.3      3.390      7.248
REMARK  Name = 
REMARK  8 active torsions:
REMARK  status: ('A' for Active; 'I' for Inactive)
REMARK    1  A    between atoms: N_1  and  C_2
REMARK    2  A    between atoms: C_2  and  C_3
REMARK    3  A    between atoms: C_3  and  N_4
REMARK    4  A    between atoms: N_4  and  C_5
REMARK    5  A    between atoms: N_4  and  C_30
REMARK    6  A    between atoms: C_5  and  C_6
REMARK    7  A    between atoms: C_14  and  C_15
REMARK    8  A    between atoms: C_23  and  C_24
REMARK                            x       y       z     vdW  Elec       q    Type
REMARK                         _______ _______ _______ _____ _____    ______ ____
ROOT
ATOM      1  C   UNL     1       0.995   9.558  19.473  0.00  0.00    +0.000 C 
ATOM      2  C   UNL     1      -0.418   9.565  20.069  0.00  0.00    +0.000 C 
ATOM      3  C   UNL     1      -1.223  10.675  19.407  0.00  0.00    +0.000 C 
ATOM      4  C   UNL     1      -0.515  12.037  19.521  0.00  0.00    +0.000 C 
ATOM      5  C   UNL     1       0.947  11.908  19.063  0.00  0.00    +0.000 C 
ATOM      6  O   UNL     1       1.600  10.834  19.760  0.00  0.00    +0.000 OA
ATOM      7  C   UNL     1       1.722  13.187  19.305  0.00  0.00    +0.000 A 
ATOM      8  C   UNL     1       2.927  13.420  18.612  0.00  0.00    +0.000 A 
ATOM      9  C   UNL     1       3.639  14.615  18.777  0.00  0.00    +0.000 A 
ATOM     10  C   UNL     1       3.140  15.579  19.663  0.00  0.00    +0.000 A 
ATOM     11  C   UNL     1       1.954  15.351  20.365  0.00  0.00    +0.000 A 
ATOM     12  C   UNL     1       1.247  14.152  20.218  0.00  0.00    +0.000 A 
ATOM     13  N   UNL     1       0.005  14.006  20.849  0.00  0.00    +0.000 N 
ATOM     14  C   UNL     1      -0.463  12.625  20.947  0.00  0.00    +0.000 C 
ATOM     15  H   UNL     1      -0.019  14.478  21.751  0.00  0.00    +0.000 HD
ENDROOT
BRANCH  14  16
ATOM     16  C   UNL     1      -1.797  12.586  21.671  0.00  0.00    +0.000 A 
ATOM     17  C   UNL     1      -1.939  12.018  22.945  0.00  0.00    +0.000 A 
ATOM     18  C   UNL     1      -3.163  12.075  23.612  0.00  0.00    +0.000 A 
ATOM     19  C   UNL     1      -4.261  12.693  23.014  0.00  0.00    +0.000 A 
ATOM     20  C   UNL     1      -4.139  13.249  21.744  0.00  0.00    +0.000 A 
ATOM     21  C   UNL     1      -2.920  13.192  21.074  0.00  0.00    +0.000 A 
ENDBRANCH  14  16
BRANCH   9  22
ATOM     22  C   UNL     1       4.897  14.898  17.991  0.00  0.00    +0.000 C 
ATOM     23  F   UNL     1       5.580  13.778  17.619  0.00  0.00    +0.000 F 
ATOM     24  F   UNL     1       4.647  15.577  16.836  0.00  0.00    +0.000 F 
ATOM     25  F   UNL     1       5.786  15.662  18.685  0.00  0.00    +0.000 F 
ENDBRANCH   9  22
BRANCH   1  26
ATOM     26  C   UNL     1       1.810   8.372  20.040  0.00  0.00    +0.000 C 
BRANCH  26  27
ATOM     27  N   UNL     1       2.223   7.402  19.012  0.00  0.00    +0.000 N 
BRANCH  27  28
ATOM     28  C   UNL     1       1.957   6.040  19.209  0.00  0.00    +0.000 A 
ATOM     29  C   UNL     1       1.859   5.138  18.135  0.00  0.00    +0.000 A 
ATOM     30  C   UNL     1       1.572   3.779  18.319  0.00  0.00    +0.000 A 
ATOM     31  C   UNL     1       1.374   3.278  19.598  0.00  0.00    +0.000 A 
ATOM     32  C   UNL     1       1.468   4.136  20.685  0.00  0.00    +0.000 A 
ATOM     33  C   UNL     1       1.758   5.493  20.490  0.00  0.00    +0.000 A 
ENDBRANCH  27  28
BRANCH  27  34
ATOM     34  C   UNL     1       2.992   7.784  17.813  0.00  0.00    +0.000 C 
BRANCH  34  35
ATOM     35  C   UNL     1       4.452   7.298  17.667  0.00  0.00    +0.000 C 
BRANCH  35  36
ATOM     36  N   UNL     1       4.758   6.555  16.440  0.00  0.00    +0.000 NA
ATOM     37  H   UNL     1       4.995   5.594  16.683  0.00  0.00    +0.000 HD
ATOM     38  H   UNL     1       5.598   6.950  16.012  0.00  0.00    +0.000 HD
ENDBRANCH  35  36
ENDBRANCH  34  35
ENDBRANCH  27  34
ENDBRANCH  26  27
ENDBRANCH   1  26
TORSDOF 8
ENDMDL
MODEL 7
REMARK VINA RESULT:      -7.3      3.378      7.243
REMARK  Name = 
REMARK  8 active torsions:
REMARK  status: ('A' for Active; 'I' for Inactive)
REMARK    1  A    between atoms: N_1  and  C_2
REMARK    2  A    between atoms: C_2  and  C_3
REMARK    3  A    between atoms: C_3  and  N_4
REMARK    4  A    between atoms: N_4  and  C_5
REMARK    5  A    between atoms: N_4  and  C_30
REMARK    6  A    between atoms: C_5  and  C_6
REMARK    7  A    between atoms: C_14  and  C_15
REMARK    8  A    between atoms: C_23  and  C_24
REMARK                            x       y       z     vdW  Elec       q    Type
REMARK                         _______ _______ _______ _____ _____    ______ ____
ROOT
ATOM      1  C   UNL     1       0.996   9.505  19.485  0.00  0.00    +0.000 C 
ATOM      2  C   UNL     1      -0.425   9.519  20.061  0.00  0.00    +0.000 C 
ATOM      3  C   UNL     1      -1.219  10.626  19.381  0.00  0.00    +0.000 C 
ATOM      4  C   UNL     1      -0.510  11.987  19.496  0.00  0.00    +0.000 C 
ATOM      5  C   UNL     1       0.958  11.853  19.060  0.00  0.00    +0.000 C 
ATOM      6  O   UNL     1       1.598  10.782  19.772  0.00  0.00    +0.000 OA
ATOM      7  C   UNL     1       1.731  13.132  19.305  0.00  0.00    +0.000 A 
ATOM      8  C   UNL     1       2.945  13.359  18.627  0.00  0.00    +0.000 A 
ATOM      9  C   UNL     1       3.657  14.554  18.795  0.00  0.00    +0.000 A 
ATOM     10  C   UNL     1       3.147  15.525  19.668  0.00  0.00    +0.000 A 
ATOM     11  C   UNL     1       1.952  15.303  20.355  0.00  0.00    +0.000 A 
ATOM     12  C   UNL     1       1.245  14.104  20.205  0.00  0.00    +0.000 A 
ATOM     13  N   UNL     1      -0.007  13.964  20.819  0.00  0.00    +0.000 N 
ATOM     14  C   UNL     1      -0.478  12.583  20.919  0.00  0.00    +0.000 C 
ATOM     15  H   UNL     1      -0.042  14.441  21.719  0.00  0.00    +0.000 HD
ENDROOT
BRANCH  14  16
ATOM     16  C   UNL     1      -1.822  12.551  21.625  0.00  0.00    +0.000 A 
ATOM     17  C   UNL     1      -1.964  12.085  22.940  0.00  0.00    +0.000 A 
ATOM     18  C   UNL     1      -3.201  12.148  23.582  0.00  0.00    +0.000 A 
ATOM     19  C   UNL     1      -4.311  12.670  22.919  0.00  0.00    +0.000 A 
ATOM     20  C   UNL     1      -4.188  13.124  21.609  0.00  0.00    +0.000 A 
ATOM     21  C   UNL     1      -2.957  13.061  20.963  0.00  0.00    +0.000 A 
ENDBRANCH  14  16
BRANCH   9  22
ATOM     22  C   UNL     1       4.927  14.831  18.026  0.00  0.00    +0.000 C 
ATOM     23  F   UNL     1       4.739  15.575  16.899  0.00  0.00    +0.000 F 
ATOM     24  F   UNL     1       5.846  15.512  18.766  0.00  0.00    +0.000 F 
ATOM     25  F   UNL     1       5.551  13.691  17.619  0.00  0.00    +0.000 F 
ENDBRANCH   9  22
BRANCH   1  26
ATOM     26  C   UNL     1       1.801   8.322  20.070  0.00  0.00    +0.000 C 
BRANCH  26  27
ATOM     27  N   UNL     1       2.221   7.341  19.056  0.00  0.00    +0.000 N 
BRANCH  27  28
ATOM     28  C   UNL     1       1.923   5.985  19.249  0.00  0.00    +0.000 A 
ATOM     29  C   UNL     1       1.765   5.434  20.532  0.00  0.00    +0.000 A 
ATOM     30  C   UNL     1       1.488   4.076  20.737  0.00  0.00    +0.000 A 
ATOM     31  C   UNL     1       1.359   3.222  19.651  0.00  0.00    +0.000 A 
ATOM     32  C   UNL     1       1.502   3.729  18.367  0.00  0.00    +0.000 A 
ATOM     33  C   UNL     1       1.777   5.090  18.174  0.00  0.00    +0.000 A 
ENDBRANCH  27  28
BRANCH  27  34
ATOM     34  C   UNL     1       3.027   7.705  17.875  0.00  0.00    +0.000 C 
BRANCH  34  35
ATOM     35  C   UNL     1       4.419   7.061  17.686  0.00  0.00    +0.000 C 
BRANCH  35  36
ATOM     36  N   UNL     1       4.782   6.721  16.306  0.00  0.00    +0.000 NA
ATOM     37  H   UNL     1       4.101   6.060  15.936  0.00  0.00    +0.000 HD
ATOM     38  H   UNL     1       5.678   6.227  16.309  0.00  0.00    +0.000 HD
ENDBRANCH  35  36
ENDBRANCH  34  35
ENDBRANCH  27  34
ENDBRANCH  26  27
ENDBRANCH   1  26
TORSDOF 8
ENDMDL
MODEL 8
REMARK VINA RESULT:      -7.2      7.853      9.971
REMARK  Name = 
REMARK  8 active torsions:
REMARK  status: ('A' for Active; 'I' for Inactive)
REMARK    1  A    between atoms: N_1  and  C_2
REMARK    2  A    between atoms: C_2  and  C_3
REMARK    3  A    between atoms: C_3  and  N_4
REMARK    4  A    between atoms: N_4  and  C_5
REMARK    5  A    between atoms: N_4  and  C_30
REMARK    6  A    between atoms: C_5  and  C_6
REMARK    7  A    between atoms: C_14  and  C_15
REMARK    8  A    between atoms: C_23  and  C_24
REMARK                            x       y       z     vdW  Elec       q    Type
REMARK                         _______ _______ _______ _____ _____    ______ ____
ROOT
ATOM      1  C   UNL     1       1.251  12.114  19.282  0.00  0.00    +0.000 C 
ATOM      2  C   UNL     1       1.022  12.533  20.739  0.00  0.00    +0.000 C 
ATOM      3  C   UNL     1       0.043  11.560  21.381  0.00  0.00    +0.000 C 
ATOM      4  C   UNL     1      -1.263  11.453  20.575  0.00  0.00    +0.000 C 
ATOM      5  C   UNL     1      -0.945  11.201  19.092  0.00  0.00    +0.000 C 
ATOM      6  O   UNL     1      -0.018  12.182  18.602  0.00  0.00    +0.000 OA
ATOM      7  C   UNL     1      -2.196  11.243  18.239  0.00  0.00    +0.000 A 
ATOM      8  C   UNL     1      -2.193  10.654  16.958  0.00  0.00    +0.000 A 
ATOM      9  C   UNL     1      -3.349  10.634  16.167  0.00  0.00    +0.000 A 
ATOM     10  C   UNL     1      -4.517  11.228  16.664  0.00  0.00    +0.000 A 
ATOM     11  C   UNL     1      -4.525  11.826  17.926  0.00  0.00    +0.000 A 
ATOM     12  C   UNL     1      -3.369  11.866  18.715  0.00  0.00    +0.000 A 
ATOM     13  N   UNL     1      -3.446  12.371  20.020  0.00  0.00    +0.000 N 
ATOM     14  C   UNL     1      -2.153  12.714  20.609  0.00  0.00    +0.000 C 
ATOM     15  H   UNL     1      -4.109  13.141  20.089  0.00  0.00    +0.000 HD
ENDROOT
BRANCH  14  16
ATOM     16  C   UNL     1      -2.359  13.276  22.005  0.00  0.00    +0.000 A 
ATOM     17  C   UNL     1      -1.752  14.467  22.428  0.00  0.00    +0.000 A 
ATOM     18  C   UNL     1      -2.032  14.994  23.688  0.00  0.00    +0.000 A 
ATOM     19  C   UNL     1      -2.915  14.337  24.544  0.00  0.00    +0.000 A 
ATOM     20  C   UNL     1      -3.515  13.147  24.144  0.00  0.00    +0.000 A 
ATOM     21  C   UNL     1      -3.237  12.616  22.888  0.00  0.00    +0.000 A 
ENDBRANCH  14  16
BRANCH   9  22
ATOM     22  C   UNL     1      -3.370   9.951  14.820  0.00  0.00    +0.000 C 
ATOM     23  F   UNL     1      -2.380   9.029  14.653  0.00  0.00    +0.000 F 
ATOM     24  F   UNL     1      -4.537   9.282  14.594  0.00  0.00    +0.000 F 
ATOM     25  F   UNL     1      -3.241  10.828  13.787  0.00  0.00    +0.000 F 
ENDBRANCH   9  22
BRANCH   1  26
ATOM     26  C   UNL     1       2.325  13.012  18.627  0.00  0.00    +0.000 C 
BRANCH  26  27
ATOM     27  N   UNL     1       2.472  14.322  19.283  0.00  0.00    +0.000 N 
BRANCH  27  28
ATOM     28  C   UNL     1       1.724  15.412  18.814  0.00  0.00    +0.000 A 
ATOM     29  C   UNL     1       0.333  15.494  18.999  0.00  0.00    +0.000 A 
ATOM     30  C   UNL     1      -0.426  16.567  18.516  0.00  0.00    +0.000 A 
ATOM     31  C   UNL     1       0.192  17.601  17.827  0.00  0.00    +0.000 A 
ATOM     32  C   UNL     1       1.565  17.559  17.629  0.00  0.00    +0.000 A 
ATOM     33  C   UNL     1       2.316  16.482  18.119  0.00  0.00    +0.000 A 
ENDBRANCH  27  28
BRANCH  27  34
ATOM     34  C   UNL     1       3.444  14.572  20.364  0.00  0.00    +0.000 C 
BRANCH  34  35
ATOM     35  C   UNL     1       3.003  15.386  21.601  0.00  0.00    +0.000 C 
BRANCH  35  36
ATOM     36  N   UNL     1       3.562  14.950  22.884  0.00  0.00    +0.000 NA
ATOM     37  H   UNL     1       4.130  15.701  23.273  0.00  0.00    +0.000 HD
ATOM     38  H   UNL     1       4.204  14.170  22.721  0.00  0.00    +0.000 HD
ENDBRANCH  35  36
ENDBRANCH  34  35
ENDBRANCH  27  34
ENDBRANCH  26  27
ENDBRANCH   1  26
TORSDOF 8
ENDMDL
MODEL 9
REMARK VINA RESULT:      -7.2      5.173     10.018
REMARK  Name = 
REMARK  8 active torsions:
REMARK  status: ('A' for Active; 'I' for Inactive)
REMARK    1  A    between atoms: N_1  and  C_2
REMARK    2  A    between atoms: C_2  and  C_3
REMARK    3  A    between atoms: C_3  and  N_4
REMARK    4  A    between atoms: N_4  and  C_5
REMARK    5  A    between atoms: N_4  and  C_30
REMARK    6  A    between atoms: C_5  and  C_6
REMARK    7  A    between atoms: C_14  and  C_15
REMARK    8  A    between atoms: C_23  and  C_24
REMARK                            x       y       z     vdW  Elec       q    Type
REMARK                         _______ _______ _______ _____ _____    ______ ____
ROOT
ATOM      1  C   UNL     1       1.570  12.344  19.925  0.00  0.00    +0.000 C 
ATOM      2  C   UNL     1       1.033  13.174  18.752  0.00  0.00    +0.000 C 
ATOM      3  C   UNL     1       2.183  13.971  18.150  0.00  0.00    +0.000 C 
ATOM      4  C   UNL     1       2.900  14.824  19.211  0.00  0.00    +0.000 C 
ATOM      5  C   UNL     1       3.255  13.956  20.429  0.00  0.00    +0.000 C 
ATOM      6  O   UNL     1       2.093  13.259  20.907  0.00  0.00    +0.000 OA
ATOM      7  C   UNL     1       3.824  14.788  21.560  0.00  0.00    +0.000 A 
ATOM      8  C   UNL     1       4.570  14.167  22.582  0.00  0.00    +0.000 A 
ATOM      9  C   UNL     1       5.150  14.918  23.613  0.00  0.00    +0.000 A 
ATOM     10  C   UNL     1       4.963  16.306  23.624  0.00  0.00    +0.000 A 
ATOM     11  C   UNL     1       4.213  16.928  22.623  0.00  0.00    +0.000 A 
ATOM     12  C   UNL     1       3.615  16.183  21.599  0.00  0.00    +0.000 A 
ATOM     13  N   UNL     1       2.969  16.851  20.552  0.00  0.00    +0.000 N 
ATOM     14  C   UNL     1       2.075  16.008  19.760  0.00  0.00    +0.000 C 
ATOM     15  H   UNL     1       2.502  17.697  20.874  0.00  0.00    +0.000 HD
ENDROOT
BRANCH  14  16
ATOM     16  C   UNL     1       1.410  16.840  18.678  0.00  0.00    +0.000 A 
ATOM     17  C   UNL     1       2.141  17.439  17.642  0.00  0.00    +0.000 A 
ATOM     18  C   UNL     1       1.486  18.127  16.621  0.00  0.00    +0.000 A 
ATOM     19  C   UNL     1       0.095  18.231  16.624  0.00  0.00    +0.000 A 
ATOM     20  C   UNL     1      -0.643  17.653  17.653  0.00  0.00    +0.000 A 
ATOM     21  C   UNL     1       0.007  16.968  18.675  0.00  0.00    +0.000 A 
ENDBRANCH  14  16
BRANCH   9  22
ATOM     22  C   UNL     1       6.004  14.268  24.677  0.00  0.00    +0.000 C 
ATOM     23  F   UNL     1       6.614  13.120  24.270  0.00  0.00    +0.000 F 
ATOM     24  F   UNL     1       7.006  15.084  25.109  0.00  0.00    +0.000 F 
ATOM     25  F   UNL     1       5.291  13.937  25.789  0.00  0.00    +0.000 F 
ENDBRANCH   9  22
BRANCH   1  26
ATOM     26  C   UNL     1       0.456  11.434  20.493  0.00  0.00    +0.000 C 
BRANCH  26  27
ATOM     27  N   UNL     1       0.053  10.359  19.572  0.00  0.00    +0.000 N 
BRANCH  27  28
ATOM     28  C   UNL     1       0.972   9.350  19.250  0.00  0.00    +0.000 A 
ATOM     29  C   UNL     1       1.556   9.255  17.975  0.00  0.00    +0.000 A 
ATOM     30  C   UNL     1       2.459   8.239  17.636  0.00  0.00    +0.000 A 
ATOM     31  C   UNL     1       2.809   7.280  18.576  0.00  0.00    +0.000 A 
ATOM     32  C   UNL     1       2.259   7.343  19.849  0.00  0.00    +0.000 A 
ATOM     33  C   UNL     1       1.357   8.365  20.177  0.00  0.00    +0.000 A 
ENDBRANCH  27  28
BRANCH  27  34
ATOM     34  C   UNL     1      -1.255  10.336  18.891  0.00  0.00    +0.000 C 
BRANCH  34  35
ATOM     35  C   UNL     1      -1.945  11.673  18.538  0.00  0.00    +0.000 C 
BRANCH  35  36
ATOM     36  N   UNL     1      -1.998  12.007  17.111  0.00  0.00    +0.000 NA
ATOM     37  H   UNL     1      -1.553  12.913  16.964  0.00  0.00    +0.000 HD
ATOM     38  H   UNL     1      -2.975  12.128  16.832  0.00  0.00    +0.000 HD
ENDBRANCH  35  36
ENDBRANCH  34  35
ENDBRANCH  27  34
ENDBRANCH  26  27
ENDBRANCH   1  26
TORSDOF 8
ENDMDL
