MODEL 1
REMARK VINA RESULT:      -7.1      0.000      0.000
REMARK  Name = 
REMARK  8 active torsions:
REMARK  status: ('A' for Active; 'I' for Inactive)
REMARK    1  A    between atoms: C_1  and  N_2
REMARK    2  A    between atoms: C_6  and  C_7
REMARK    3  A    between atoms: C_7  and  N_8
REMARK    4  A    between atoms: N_8  and  C_9
REMARK    5  A    between atoms: C_9  and  C_10
REMARK    6  A    between atoms: C_10  and  O_11
REMARK    7  A    between atoms: C_12  and  C_14
REMARK    8  A    between atoms: N_23  and  C_24
REMARK                            x       y       z     vdW  Elec       q    Type
REMARK                         _______ _______ _______ _____ _____    ______ ____
ROOT
ATOM      1  N   UNL     1       2.685   5.902  19.568  0.00  0.00    +0.000 N 
ATOM      2  C   UNL     1       2.551   7.255  19.222  0.00  0.00    +0.000 C 
ATOM      3  O   UNL     1       3.125   7.700  18.226  0.00  0.00    +0.000 OA
ENDROOT
BRANCH   2   4
ATOM      4  C   UNL     1       1.721   8.136  20.056  0.00  0.00    +0.000 A 
ATOM      5  C   UNL     1       1.534   8.130  21.427  0.00  0.00    +0.000 A 
ATOM      6  C   UNL     1       0.577   9.117  21.771  0.00  0.00    +0.000 A 
ATOM      7  C   UNL     1      -0.056   9.452  22.988  0.00  0.00    +0.000 A 
ATOM      8  C   UNL     1      -0.953  10.518  23.036  0.00  0.00    +0.000 A 
ATOM      9  C   UNL     1      -1.190  11.275  21.895  0.00  0.00    +0.000 A 
ATOM     10  C   UNL     1      -0.565  10.970  20.675  0.00  0.00    +0.000 A 
ATOM     11 CL   UNL     1      -0.884  12.022  19.349  0.00  0.00    +0.000 Cl
ATOM     12  C   UNL     1       0.296   9.850  20.611  0.00  0.00    +0.000 A 
ATOM     13  N   UNL     1       1.001   9.236  19.584  0.00  0.00    +0.000 N 
ATOM     14  C   UNL     1       0.960   9.608  18.183  0.00  0.00    +0.000 C 
ENDBRANCH   2   4
BRANCH   1  15
ATOM     15  C   UNL     1       3.820   5.181  18.973  0.00  0.00    +0.000 C 
BRANCH  15  21
ATOM     16  C   UNL     1       4.546   2.389  20.203  0.00  0.00    +0.000 C 
ATOM     17  N   UNL     1       3.732   2.622  19.034  0.00  0.00    +0.000 N 
ATOM     18  C   UNL     1       3.016   1.646  18.391  0.00  0.00    +0.000 A 
ATOM     19  C   UNL     1       2.412   2.278  17.334  0.00  0.00    +0.000 A 
ATOM     20  N   UNL     1       2.698   3.619  17.350  0.00  0.00    +0.000 NA
ATOM     21  C   UNL     1       3.473   3.826  18.407  0.00  0.00    +0.000 A 
ENDBRANCH  15  21
ENDBRANCH   1  15
BRANCH   1  22
ATOM     22  C   UNL     1       2.005   5.291  20.729  0.00  0.00    +0.000 C 
BRANCH  22  23
ATOM     23  C   UNL     1       0.802   4.391  20.453  0.00  0.00    +0.000 C 
BRANCH  23  24
ATOM     24  O   UNL     1       0.962   3.107  21.040  0.00  0.00    +0.000 OA
ATOM     25  H   UNL     1       0.880   3.260  22.009  0.00  0.00    +0.000 HD
ENDBRANCH  23  24
ENDBRANCH  22  23
ENDBRANCH   1  22
TORSDOF 6
ENDMDL
MODEL 2
REMARK VINA RESULT:      -6.8      3.138      7.423
REMARK  Name = 
REMARK  8 active torsions:
REMARK  status: ('A' for Active; 'I' for Inactive)
REMARK    1  A    between atoms: C_1  and  N_2
REMARK    2  A    between atoms: C_6  and  C_7
REMARK    3  A    between atoms: C_7  and  N_8
REMARK    4  A    between atoms: N_8  and  C_9
REMARK    5  A    between atoms: C_9  and  C_10
REMARK    6  A    between atoms: C_10  and  O_11
REMARK    7  A    between atoms: C_12  and  C_14
REMARK    8  A    between atoms: N_23  and  C_24
REMARK                            x       y       z     vdW  Elec       q    Type
REMARK                         _______ _______ _______ _____ _____    ______ ____
ROOT
ATOM      1  N   UNL     1       1.237   9.369  20.308  0.00  0.00    +0.000 N 
ATOM      2  C   UNL     1       1.623   8.493  19.282  0.00  0.00    +0.000 C 
ATOM      3  O   UNL     1       1.659   8.886  18.114  0.00  0.00    +0.000 OA
ENDROOT
BRANCH   2   4
ATOM      4  C   UNL     1       1.982   7.107  19.610  0.00  0.00    +0.000 A 
ATOM      5  C   UNL     1       1.421   6.250  20.541  0.00  0.00    +0.000 A 
ATOM      6  C   UNL     1       2.156   5.038  20.560  0.00  0.00    +0.000 A 
ATOM      7  C   UNL     1       2.090   3.893  21.383  0.00  0.00    +0.000 A 
ATOM      8  C   UNL     1       2.938   2.812  21.142  0.00  0.00    +0.000 A 
ATOM      9  C   UNL     1       3.817   2.849  20.067  0.00  0.00    +0.000 A 
ATOM     10  C   UNL     1       3.895   3.971  19.227  0.00  0.00    +0.000 A 
ATOM     11 CL   UNL     1       4.972   3.871  17.887  0.00  0.00    +0.000 Cl
ATOM     12  C   UNL     1       3.080   5.092  19.509  0.00  0.00    +0.000 A 
ATOM     13  N   UNL     1       2.956   6.356  18.948  0.00  0.00    +0.000 N 
ATOM     14  C   UNL     1       3.765   6.892  17.870  0.00  0.00    +0.000 C 
ENDBRANCH   2   4
BRANCH   1  15
ATOM     15  C   UNL     1       0.507  10.578  19.901  0.00  0.00    +0.000 C 
BRANCH  15  21
ATOM     16  C   UNL     1       2.451  12.301  18.143  0.00  0.00    +0.000 C 
ATOM     17  N   UNL     1       1.947  12.647  19.451  0.00  0.00    +0.000 N 
ATOM     18  C   UNL     1       2.121  13.873  20.039  0.00  0.00    +0.000 A 
ATOM     19  C   UNL     1       1.517  13.773  21.266  0.00  0.00    +0.000 A 
ATOM     20  N   UNL     1       0.936  12.541  21.416  0.00  0.00    +0.000 NA
ATOM     21  C   UNL     1       1.172  11.874  20.294  0.00  0.00    +0.000 A 
ENDBRANCH  15  21
ENDBRANCH   1  15
BRANCH   1  22
ATOM     22  C   UNL     1       1.198   8.980  21.733  0.00  0.00    +0.000 C 
BRANCH  22  23
ATOM     23  C   UNL     1      -0.116   9.177  22.486  0.00  0.00    +0.000 C 
BRANCH  23  24
ATOM     24  O   UNL     1      -0.029  10.241  23.423  0.00  0.00    +0.000 OA
ATOM     25  H   UNL     1       0.896  10.568  23.350  0.00  0.00    +0.000 HD
ENDBRANCH  23  24
ENDBRANCH  22  23
ENDBRANCH   1  22
TORSDOF 6
ENDMDL
MODEL 3
REMARK VINA RESULT:      -6.7      0.488      1.249
REMARK  Name = 
REMARK  8 active torsions:
REMARK  status: ('A' for Active; 'I' for Inactive)
REMARK    1  A    between atoms: C_1  and  N_2
REMARK    2  A    between atoms: C_6  and  C_7
REMARK    3  A    between atoms: C_7  and  N_8
REMARK    4  A    between atoms: N_8  and  C_9
REMARK    5  A    between atoms: C_9  and  C_10
REMARK    6  A    between atoms: C_10  and  O_11
REMARK    7  A    between atoms: C_12  and  C_14
REMARK    8  A    between atoms: N_23  and  C_24
REMARK                            x       y       z     vdW  Elec       q    Type
REMARK                         _______ _______ _______ _____ _____    ______ ____
ROOT
ATOM      1  N   UNL     1       2.735   5.936  19.580  0.00  0.00    +0.000 N 
ATOM      2  C   UNL     1       2.550   7.277  19.210  0.00  0.00    +0.000 C 
ATOM      3  O   UNL     1       3.078   7.716  18.186  0.00  0.00    +0.000 OA
ENDROOT
BRANCH   2   4
ATOM      4  C   UNL     1       1.723   8.152  20.053  0.00  0.00    +0.000 A 
ATOM      5  C   UNL     1       1.545   8.139  21.425  0.00  0.00    +0.000 A 
ATOM      6  C   UNL     1       0.588   9.122  21.779  0.00  0.00    +0.000 A 
ATOM      7  C   UNL     1      -0.039   9.450  23.001  0.00  0.00    +0.000 A 
ATOM      8  C   UNL     1      -0.938  10.515  23.059  0.00  0.00    +0.000 A 
ATOM      9  C   UNL     1      -1.183  11.277  21.923  0.00  0.00    +0.000 A 
ATOM     10  C   UNL     1      -0.565  10.979  20.698  0.00  0.00    +0.000 A 
ATOM     11 CL   UNL     1      -0.893  12.036  19.379  0.00  0.00    +0.000 Cl
ATOM     12  C   UNL     1       0.298   9.860  20.624  0.00  0.00    +0.000 A 
ATOM     13  N   UNL     1       0.999   9.253  19.590  0.00  0.00    +0.000 N 
ATOM     14  C   UNL     1       0.949   9.631  18.191  0.00  0.00    +0.000 C 
ENDBRANCH   2   4
BRANCH   1  15
ATOM     15  C   UNL     1       3.870   5.234  18.962  0.00  0.00    +0.000 C 
BRANCH  15  21
ATOM     16  C   UNL     1       2.284   3.219  17.156  0.00  0.00    +0.000 C 
ATOM     17  N   UNL     1       3.191   2.877  18.225  0.00  0.00    +0.000 N 
ATOM     18  C   UNL     1       3.619   1.602  18.489  0.00  0.00    +0.000 A 
ATOM     19  C   UNL     1       4.438   1.715  19.583  0.00  0.00    +0.000 A 
ATOM     20  N   UNL     1       4.562   3.028  19.956  0.00  0.00    +0.000 NA
ATOM     21  C   UNL     1       3.829   3.733  19.103  0.00  0.00    +0.000 A 
ENDBRANCH  15  21
ENDBRANCH   1  15
BRANCH   1  22
ATOM     22  C   UNL     1       2.111   5.331  20.775  0.00  0.00    +0.000 C 
BRANCH  22  23
ATOM     23  C   UNL     1       0.998   4.310  20.555  0.00  0.00    +0.000 C 
BRANCH  23  24
ATOM     24  O   UNL     1       1.307   3.059  21.154  0.00  0.00    +0.000 OA
ATOM     25  H   UNL     1       2.129   3.222  21.669  0.00  0.00    +0.000 HD
ENDBRANCH  23  24
ENDBRANCH  22  23
ENDBRANCH   1  22
TORSDOF 6
ENDMDL
MODEL 4
REMARK VINA RESULT:      -6.7      3.130      7.312
REMARK  Name = 
REMARK  8 active torsions:
REMARK  status: ('A' for Active; 'I' for Inactive)
REMARK    1  A    between atoms: C_1  and  N_2
REMARK    2  A    between atoms: C_6  and  C_7
REMARK    3  A    between atoms: C_7  and  N_8
REMARK    4  A    between atoms: N_8  and  C_9
REMARK    5  A    between atoms: C_9  and  C_10
REMARK    6  A    between atoms: C_10  and  O_11
REMARK    7  A    between atoms: C_12  and  C_14
REMARK    8  A    between atoms: N_23  and  C_24
REMARK                            x       y       z     vdW  Elec       q    Type
REMARK                         _______ _______ _______ _____ _____    ______ ____
ROOT
ATOM      1  N   UNL     1       1.707   8.882  19.333  0.00  0.00    +0.000 N 
ATOM      2  C   UNL     1       2.191   8.335  18.134  0.00  0.00    +0.000 C 
ATOM      3  O   UNL     1       2.455   9.070  17.180  0.00  0.00    +0.000 OA
ENDROOT
BRANCH   2   4
ATOM      4  C   UNL     1       2.381   6.882  18.026  0.00  0.00    +0.000 A 
ATOM      5  C   UNL     1       1.453   5.863  18.152  0.00  0.00    +0.000 A 
ATOM      6  C   UNL     1       2.116   4.614  18.050  0.00  0.00    +0.000 A 
ATOM      7  C   UNL     1       1.679   3.283  18.218  0.00  0.00    +0.000 A 
ATOM      8  C   UNL     1       2.568   2.227  18.018  0.00  0.00    +0.000 A 
ATOM      9  C   UNL     1       3.872   2.488  17.614  0.00  0.00    +0.000 A 
ATOM     10  C   UNL     1       4.329   3.802  17.429  0.00  0.00    +0.000 A 
ATOM     11 CL   UNL     1       5.942   3.996  16.859  0.00  0.00    +0.000 Cl
ATOM     12  C   UNL     1       3.446   4.874  17.693  0.00  0.00    +0.000 A 
ATOM     13  N   UNL     1       3.582   6.257  17.685  0.00  0.00    +0.000 N 
ATOM     14  C   UNL     1       4.808   6.990  17.438  0.00  0.00    +0.000 C 
ENDBRANCH   2   4
BRANCH   1  15
ATOM     15  C   UNL     1       1.153  10.242  19.258  0.00  0.00    +0.000 C 
BRANCH  15  21
ATOM     16  C   UNL     1      -1.179  11.718  20.750  0.00  0.00    +0.000 C 
ATOM     17  N   UNL     1      -1.268  11.048  19.474  0.00  0.00    +0.000 N 
ATOM     18  C   UNL     1      -2.362  11.112  18.650  0.00  0.00    +0.000 A 
ATOM     19  C   UNL     1      -2.046  10.328  17.570  0.00  0.00    +0.000 A 
ATOM     20  N   UNL     1      -0.773   9.834  17.691  0.00  0.00    +0.000 NA
ATOM     21  C   UNL     1      -0.294  10.305  18.835  0.00  0.00    +0.000 A 
ENDBRANCH  15  21
ENDBRANCH   1  15
BRANCH   1  22
ATOM     22  C   UNL     1       1.398   8.069  20.527  0.00  0.00    +0.000 C 
BRANCH  22  23
ATOM     23  C   UNL     1       0.979   8.806  21.797  0.00  0.00    +0.000 C 
BRANCH  23  24
ATOM     24  O   UNL     1       2.104   9.212  22.564  0.00  0.00    +0.000 OA
ATOM     25  H   UNL     1       2.771   9.500  21.901  0.00  0.00    +0.000 HD
ENDBRANCH  23  24
ENDBRANCH  22  23
ENDBRANCH   1  22
TORSDOF 6
ENDMDL
MODEL 5
REMARK VINA RESULT:      -6.7      1.859      2.522
REMARK  Name = 
REMARK  8 active torsions:
REMARK  status: ('A' for Active; 'I' for Inactive)
REMARK    1  A    between atoms: C_1  and  N_2
REMARK    2  A    between atoms: C_6  and  C_7
REMARK    3  A    between atoms: C_7  and  N_8
REMARK    4  A    between atoms: N_8  and  C_9
REMARK    5  A    between atoms: C_9  and  C_10
REMARK    6  A    between atoms: C_10  and  O_11
REMARK    7  A    between atoms: C_12  and  C_14
REMARK    8  A    between atoms: N_23  and  C_24
REMARK                            x       y       z     vdW  Elec       q    Type
REMARK                         _______ _______ _______ _____ _____    ______ ____
ROOT
ATOM      1  N   UNL     1       2.925   4.766  19.492  0.00  0.00    +0.000 N 
ATOM      2  C   UNL     1       2.685   5.985  18.841  0.00  0.00    +0.000 C 
ATOM      3  O   UNL     1       2.987   6.123  17.653  0.00  0.00    +0.000 OA
ENDROOT
BRANCH   2   4
ATOM      4  C   UNL     1       2.071   7.094  19.584  0.00  0.00    +0.000 A 
ATOM      5  C   UNL     1       1.650   7.143  20.901  0.00  0.00    +0.000 A 
ATOM      6  C   UNL     1       1.042   8.399  21.150  0.00  0.00    +0.000 A 
ATOM      7  C   UNL     1       0.354   8.924  22.265  0.00  0.00    +0.000 A 
ATOM      8  C   UNL     1      -0.117  10.236  22.237  0.00  0.00    +0.000 A 
ATOM      9  C   UNL     1       0.129  11.037  21.129  0.00  0.00    +0.000 A 
ATOM     10  C   UNL     1       0.820  10.543  20.011  0.00  0.00    +0.000 A 
ATOM     11 CL   UNL     1       1.125  11.649  18.728  0.00  0.00    +0.000 Cl
ATOM     12  C   UNL     1       1.242   9.193  20.014  0.00  0.00    +0.000 A 
ATOM     13  N   UNL     1       1.869   8.379  19.077  0.00  0.00    +0.000 N 
ATOM     14  C   UNL     1       2.210   8.753  17.719  0.00  0.00    +0.000 C 
ENDBRANCH   2   4
BRANCH   1  15
ATOM     15  C   UNL     1       3.891   3.859  18.854  0.00  0.00    +0.000 C 
BRANCH  15  21
ATOM     16  C   UNL     1       5.668   4.068  16.277  0.00  0.00    +0.000 C 
ATOM     17  N   UNL     1       6.005   4.562  17.591  0.00  0.00    +0.000 N 
ATOM     18  C   UNL     1       7.094   5.351  17.856  0.00  0.00    +0.000 A 
ATOM     19  C   UNL     1       7.058   5.573  19.209  0.00  0.00    +0.000 A 
ATOM     20  N   UNL     1       5.950   4.986  19.762  0.00  0.00    +0.000 NA
ATOM     21  C   UNL     1       5.296   4.402  18.766  0.00  0.00    +0.000 A 
ENDBRANCH  15  21
ENDBRANCH   1  15
BRANCH   1  22
ATOM     22  C   UNL     1       2.564   4.516  20.903  0.00  0.00    +0.000 C 
BRANCH  22  23
ATOM     23  C   UNL     1       1.702   3.293  21.208  0.00  0.00    +0.000 C 
BRANCH  23  24
ATOM     24  O   UNL     1       0.503   3.292  20.446  0.00  0.00    +0.000 OA
ATOM     25  H   UNL     1       0.552   4.107  19.896  0.00  0.00    +0.000 HD
ENDBRANCH  23  24
ENDBRANCH  22  23
ENDBRANCH   1  22
TORSDOF 6
ENDMDL
MODEL 6
REMARK VINA RESULT:      -6.7      2.358      2.809
REMARK  Name = 
REMARK  8 active torsions:
REMARK  status: ('A' for Active; 'I' for Inactive)
REMARK    1  A    between atoms: C_1  and  N_2
REMARK    2  A    between atoms: C_6  and  C_7
REMARK    3  A    between atoms: C_7  and  N_8
REMARK    4  A    between atoms: N_8  and  C_9
REMARK    5  A    between atoms: C_9  and  C_10
REMARK    6  A    between atoms: C_10  and  O_11
REMARK    7  A    between atoms: C_12  and  C_14
REMARK    8  A    between atoms: N_23  and  C_24
REMARK                            x       y       z     vdW  Elec       q    Type
REMARK                         _______ _______ _______ _____ _____    ______ ____
ROOT
ATOM      1  N   UNL     1       3.322   4.908  17.883  0.00  0.00    +0.000 N 
ATOM      2  C   UNL     1       3.761   6.024  18.613  0.00  0.00    +0.000 C 
ATOM      3  O   UNL     1       4.961   6.304  18.653  0.00  0.00    +0.000 OA
ENDROOT
BRANCH   2   4
ATOM      4  C   UNL     1       2.781   6.854  19.326  0.00  0.00    +0.000 A 
ATOM      5  C   UNL     1       2.230   6.679  20.583  0.00  0.00    +0.000 A 
ATOM      6  C   UNL     1       1.265   7.691  20.814  0.00  0.00    +0.000 A 
ATOM      7  C   UNL     1       0.343   7.914  21.859  0.00  0.00    +0.000 A 
ATOM      8  C   UNL     1      -0.480   9.039  21.835  0.00  0.00    +0.000 A 
ATOM      9  C   UNL     1      -0.361   9.961  20.802  0.00  0.00    +0.000 A 
ATOM     10  C   UNL     1       0.555   9.769  19.756  0.00  0.00    +0.000 A 
ATOM     11 CL   UNL     1       0.660  11.014  18.571  0.00  0.00    +0.000 Cl
ATOM     12  C   UNL     1       1.344   8.596  19.747  0.00  0.00    +0.000 A 
ATOM     13  N   UNL     1       2.271   8.067  18.858  0.00  0.00    +0.000 N 
ATOM     14  C   UNL     1       2.629   8.627  17.569  0.00  0.00    +0.000 C 
ENDBRANCH   2   4
BRANCH   1  15
ATOM     15  C   UNL     1       4.338   3.901  17.547  0.00  0.00    +0.000 C 
BRANCH  15  21
ATOM     16  C   UNL     1       7.414   4.517  17.547  0.00  0.00    +0.000 C 
ATOM     17  N   UNL     1       6.562   4.417  16.386  0.00  0.00    +0.000 N 
ATOM     18  C   UNL     1       7.023   4.413  15.095  0.00  0.00    +0.000 A 
ATOM     19  C   UNL     1       5.901   4.328  14.312  0.00  0.00    +0.000 A 
ATOM     20  N   UNL     1       4.778   4.227  15.090  0.00  0.00    +0.000 NA
ATOM     21  C   UNL     1       5.191   4.247  16.352  0.00  0.00    +0.000 A 
ENDBRANCH  15  21
ENDBRANCH   1  15
BRANCH   1  22
ATOM     22  C   UNL     1       1.899   4.528  17.764  0.00  0.00    +0.000 C 
BRANCH  22  23
ATOM     23  C   UNL     1       1.449   3.243  18.455  0.00  0.00    +0.000 C 
BRANCH  23  24
ATOM     24  O   UNL     1       0.795   3.511  19.687  0.00  0.00    +0.000 OA
ATOM     25  H   UNL     1       0.469   2.635  19.996  0.00  0.00    +0.000 HD
ENDBRANCH  23  24
ENDBRANCH  22  23
ENDBRANCH   1  22
TORSDOF 6
ENDMDL
MODEL 7
REMARK VINA RESULT:      -6.6      2.443      3.234
REMARK  Name = 
REMARK  8 active torsions:
REMARK  status: ('A' for Active; 'I' for Inactive)
REMARK    1  A    between atoms: C_1  and  N_2
REMARK    2  A    between atoms: C_6  and  C_7
REMARK    3  A    between atoms: C_7  and  N_8
REMARK    4  A    between atoms: N_8  and  C_9
REMARK    5  A    between atoms: C_9  and  C_10
REMARK    6  A    between atoms: C_10  and  O_11
REMARK    7  A    between atoms: C_12  and  C_14
REMARK    8  A    between atoms: N_23  and  C_24
REMARK                            x       y       z     vdW  Elec       q    Type
REMARK                         _______ _______ _______ _____ _____    ______ ____
ROOT
ATOM      1  N   UNL     1       3.171   5.485  17.746  0.00  0.00    +0.000 N 
ATOM      2  C   UNL     1       3.557   6.808  18.014  0.00  0.00    +0.000 C 
ATOM      3  O   UNL     1       4.742   7.137  17.928  0.00  0.00    +0.000 OA
ENDROOT
BRANCH   2   4
ATOM      4  C   UNL     1       2.538   7.796  18.396  0.00  0.00    +0.000 A 
ATOM      5  C   UNL     1       1.952   8.793  17.636  0.00  0.00    +0.000 A 
ATOM      6  C   UNL     1       1.082   9.553  18.457  0.00  0.00    +0.000 A 
ATOM      7  C   UNL     1       0.338  10.730  18.229  0.00  0.00    +0.000 A 
ATOM      8  C   UNL     1      -0.478  11.245  19.236  0.00  0.00    +0.000 A 
ATOM      9  C   UNL     1      -0.588  10.574  20.447  0.00  0.00    +0.000 A 
ATOM     10  C   UNL     1       0.133   9.396  20.696  0.00  0.00    +0.000 A 
ATOM     11 CL   UNL     1      -0.140   8.617  22.208  0.00  0.00    +0.000 Cl
ATOM     12  C   UNL     1       1.008   8.909  19.699  0.00  0.00    +0.000 A 
ATOM     13  N   UNL     1       1.900   7.845  19.637  0.00  0.00    +0.000 N 
ATOM     14  C   UNL     1       2.214   6.935  20.721  0.00  0.00    +0.000 C 
ENDBRANCH   2   4
BRANCH   1  15
ATOM     15  C   UNL     1       4.235   4.471  17.780  0.00  0.00    +0.000 C 
BRANCH  15  21
ATOM     16  C   UNL     1       7.358   4.751  17.873  0.00  0.00    +0.000 C 
ATOM     17  N   UNL     1       6.553   4.540  16.693  0.00  0.00    +0.000 N 
ATOM     18  C   UNL     1       7.069   4.261  15.454  0.00  0.00    +0.000 A 
ATOM     19  C   UNL     1       5.981   4.160  14.625  0.00  0.00    +0.000 A 
ATOM     20  N   UNL     1       4.820   4.315  15.337  0.00  0.00    +0.000 NA
ATOM     21  C   UNL     1       5.175   4.511  16.600  0.00  0.00    +0.000 A 
ENDBRANCH  15  21
ENDBRANCH   1  15
BRANCH   1  22
ATOM     22  C   UNL     1       1.769   5.024  17.799  0.00  0.00    +0.000 C 
BRANCH  22  23
ATOM     23  C   UNL     1       1.503   3.624  18.348  0.00  0.00    +0.000 C 
BRANCH  23  24
ATOM     24  O   UNL     1       1.449   3.618  19.768  0.00  0.00    +0.000 OA
ATOM     25  H   UNL     1       1.961   4.412  20.043  0.00  0.00    +0.000 HD
ENDBRANCH  23  24
ENDBRANCH  22  23
ENDBRANCH   1  22
TORSDOF 6
ENDMDL
MODEL 8
REMARK VINA RESULT:      -6.5      3.592      8.056
REMARK  Name = 
REMARK  8 active torsions:
REMARK  status: ('A' for Active; 'I' for Inactive)
REMARK    1  A    between atoms: C_1  and  N_2
REMARK    2  A    between atoms: C_6  and  C_7
REMARK    3  A    between atoms: C_7  and  N_8
REMARK    4  A    between atoms: N_8  and  C_9
REMARK    5  A    between atoms: C_9  and  C_10
REMARK    6  A    between atoms: C_10  and  O_11
REMARK    7  A    between atoms: C_12  and  C_14
REMARK    8  A    between atoms: N_23  and  C_24
REMARK                            x       y       z     vdW  Elec       q    Type
REMARK                         _______ _______ _______ _____ _____    ______ ____
ROOT
ATOM      1  N   UNL     1      -0.759  10.928  19.282  0.00  0.00    +0.000 N 
ATOM      2  C   UNL     1       0.571  10.783  19.707  0.00  0.00    +0.000 C 
ATOM      3  O   UNL     1       1.086  11.638  20.431  0.00  0.00    +0.000 OA
ENDROOT
BRANCH   2   4
ATOM      4  C   UNL     1       1.342   9.606  19.284  0.00  0.00    +0.000 A 
ATOM      5  C   UNL     1       2.182   9.451  18.195  0.00  0.00    +0.000 A 
ATOM      6  C   UNL     1       2.640   8.111  18.148  0.00  0.00    +0.000 A 
ATOM      7  C   UNL     1       3.408   7.395  17.205  0.00  0.00    +0.000 A 
ATOM      8  C   UNL     1       3.741   6.062  17.445  0.00  0.00    +0.000 A 
ATOM      9  C   UNL     1       3.351   5.454  18.631  0.00  0.00    +0.000 A 
ATOM     10  C   UNL     1       2.596   6.146  19.591  0.00  0.00    +0.000 A 
ATOM     11 CL   UNL     1       2.232   5.310  21.052  0.00  0.00    +0.000 Cl
ATOM     12  C   UNL     1       2.204   7.478  19.320  0.00  0.00    +0.000 A 
ATOM     13  N   UNL     1       1.419   8.406  19.993  0.00  0.00    +0.000 N 
ATOM     14  C   UNL     1       0.695   8.172  21.226  0.00  0.00    +0.000 C 
ENDBRANCH   2   4
BRANCH   1  15
ATOM     15  C   UNL     1      -1.336  12.277  19.377  0.00  0.00    +0.000 C 
BRANCH  15  21
ATOM     16  C   UNL     1      -1.542  12.534  22.496  0.00  0.00    +0.000 C 
ATOM     17  N   UNL     1      -2.641  12.568  21.561  0.00  0.00    +0.000 N 
ATOM     18  C   UNL     1      -3.929  12.892  21.903  0.00  0.00    +0.000 A 
ATOM     19  C   UNL     1      -4.649  12.782  20.742  0.00  0.00    +0.000 A 
ATOM     20  N   UNL     1      -3.826  12.454  19.696  0.00  0.00    +0.000 NA
ATOM     21  C   UNL     1      -2.600  12.360  20.196  0.00  0.00    +0.000 A 
ENDBRANCH  15  21
ENDBRANCH   1  15
BRANCH   1  22
ATOM     22  C   UNL     1      -1.453   9.932  18.440  0.00  0.00    +0.000 C 
BRANCH  22  23
ATOM     23  C   UNL     1      -2.050  10.414  17.119  0.00  0.00    +0.000 C 
BRANCH  23  24
ATOM     24  O   UNL     1      -3.353   9.887  16.909  0.00  0.00    +0.000 OA
ATOM     25  H   UNL     1      -3.276   8.929  17.125  0.00  0.00    +0.000 HD
ENDBRANCH  23  24
ENDBRANCH  22  23
ENDBRANCH   1  22
TORSDOF 6
ENDMDL
MODEL 9
REMARK VINA RESULT:      -6.5      2.962      7.040
REMARK  Name = 
REMARK  8 active torsions:
REMARK  status: ('A' for Active; 'I' for Inactive)
REMARK    1  A    between atoms: C_1  and  N_2
REMARK    2  A    between atoms: C_6  and  C_7
REMARK    3  A    between atoms: C_7  and  N_8
REMARK    4  A    between atoms: N_8  and  C_9
REMARK    5  A    between atoms: C_9  and  C_10
REMARK    6  A    between atoms: C_10  and  O_11
REMARK    7  A    between atoms: C_12  and  C_14
REMARK    8  A    between atoms: N_23  and  C_24
REMARK                            x       y       z     vdW  Elec       q    Type
REMARK                         _______ _______ _______ _____ _____    ______ ____
ROOT
ATOM      1  N   UNL     1       1.079   9.362  19.862  0.00  0.00    +0.000 N 
ATOM      2  C   UNL     1       1.955   8.574  19.098  0.00  0.00    +0.000 C 
ATOM      3  O   UNL     1       2.540   9.062  18.128  0.00  0.00    +0.000 OA
ENDROOT
BRANCH   2   4
ATOM      4  C   UNL     1       2.168   7.167  19.464  0.00  0.00    +0.000 A 
ATOM      5  C   UNL     1       1.578   6.421  20.469  0.00  0.00    +0.000 A 
ATOM      6  C   UNL     1       2.161   5.130  20.493  0.00  0.00    +0.000 A 
ATOM      7  C   UNL     1       2.019   4.033  21.370  0.00  0.00    +0.000 A 
ATOM      8  C   UNL     1       2.711   2.848  21.121  0.00  0.00    +0.000 A 
ATOM      9  C   UNL     1       3.506   2.736  19.988  0.00  0.00    +0.000 A 
ATOM     10  C   UNL     1       3.657   3.808  19.094  0.00  0.00    +0.000 A 
ATOM     11 CL   UNL     1       4.613   3.527  17.690  0.00  0.00    +0.000 Cl
ATOM     12  C   UNL     1       3.006   5.030  19.380  0.00  0.00    +0.000 A 
ATOM     13  N   UNL     1       2.993   6.279  18.771  0.00  0.00    +0.000 N 
ATOM     14  C   UNL     1       3.779   6.671  17.618  0.00  0.00    +0.000 C 
ENDBRANCH   2   4
BRANCH   1  15
ATOM     15  C   UNL     1       0.589  10.597  19.233  0.00  0.00    +0.000 C 
BRANCH  15  21
ATOM     16  C   UNL     1      -1.989  12.151  20.117  0.00  0.00    +0.000 C 
ATOM     17  N   UNL     1      -1.873  11.262  18.986  0.00  0.00    +0.000 N 
ATOM     18  C   UNL     1      -2.844  11.104  18.033  0.00  0.00    +0.000 A 
ATOM     19  C   UNL     1      -2.349  10.164  17.165  0.00  0.00    +0.000 A 
ATOM     20  N   UNL     1      -1.084   9.788  17.535  0.00  0.00    +0.000 NA
ATOM     21  C   UNL     1      -0.788  10.486  18.625  0.00  0.00    +0.000 A 
ENDBRANCH  15  21
ENDBRANCH   1  15
BRANCH   1  22
ATOM     22  C   UNL     1       0.366   8.858  21.053  0.00  0.00    +0.000 C 
BRANCH  22  23
ATOM     23  C   UNL     1       0.714   9.481  22.404  0.00  0.00    +0.000 C 
BRANCH  23  24
ATOM     24  O   UNL     1       2.082   9.286  22.735  0.00  0.00    +0.000 OA
ATOM     25  H   UNL     1       2.198   8.309  22.763  0.00  0.00    +0.000 HD
ENDBRANCH  23  24
ENDBRANCH  22  23
ENDBRANCH   1  22
TORSDOF 6
ENDMDL
