MODEL 1
REMARK VINA RESULT:      -7.4      0.000      0.000
REMARK  Name = 
REMARK  1 active torsions:
REMARK  status: ('A' for Active; 'I' for Inactive)
REMARK    1  A    between atoms: O_1  and  C_2
REMARK                            x       y       z     vdW  Elec       q    Type
REMARK                         _______ _______ _______ _____ _____    ______ ____
ROOT
ATOM      1  C   UNL     1       3.492   2.105  18.166  0.00  0.00    +0.000 A 
ATOM      2  C   UNL     1       2.232   2.523  18.562  0.00  0.00    +0.000 A 
ATOM      3  C   UNL     1       1.913   3.877  18.479  0.00  0.00    +0.000 A 
ATOM      4  C   UNL     1       2.848   4.820  18.009  0.00  0.00    +0.000 A 
ATOM      5  C   UNL     1       4.125   4.388  17.589  0.00  0.00    +0.000 A 
ATOM      6  C   UNL     1       4.424   3.015  17.684  0.00  0.00    +0.000 A 
ATOM      7  C   UNL     1       5.183   5.388  17.091  0.00  0.00    +0.000 C 
ATOM      8  C   UNL     1       4.539   6.739  16.699  0.00  0.00    +0.000 C 
ATOM      9  C   UNL     1       3.569   7.240  17.759  0.00  0.00    +0.000 C 
ATOM     10  C   UNL     1       2.412   6.262  17.919  0.00  0.00    +0.000 C 
ATOM     11  C   UNL     1       6.254   5.594  18.186  0.00  0.00    +0.000 C 
ATOM     12  C   UNL     1       7.379   4.652  17.803  0.00  0.00    +0.000 C 
ATOM     13  N   UNL     1       7.403   4.714  16.346  0.00  0.00    +0.000 NA
ATOM     14  C   UNL     1       6.011   4.849  15.893  0.00  0.00    +0.000 C 
ATOM     15  H   UNL     1       7.823   3.871  15.957  0.00  0.00    +0.000 HD
ENDROOT
BRANCH   1  16
ATOM     16  O   UNL     1       3.870   0.798  18.225  0.00  0.00    +0.000 OA
ATOM     17  H   UNL     1       3.384   0.370  18.948  0.00  0.00    +0.000 HD
ENDBRANCH   1  16
TORSDOF 1
ENDMDL
MODEL 2
REMARK VINA RESULT:      -7.2      2.339      4.001
REMARK  Name = 
REMARK  1 active torsions:
REMARK  status: ('A' for Active; 'I' for Inactive)
REMARK    1  A    between atoms: O_1  and  C_2
REMARK                            x       y       z     vdW  Elec       q    Type
REMARK                         _______ _______ _______ _____ _____    ______ ____
ROOT
ATOM      1  C   UNL     1       5.534   4.161  15.977  0.00  0.00    +0.000 A 
ATOM      2  C   UNL     1       5.811   5.437  15.514  0.00  0.00    +0.000 A 
ATOM      3  C   UNL     1       5.138   6.520  16.078  0.00  0.00    +0.000 A 
ATOM      4  C   UNL     1       4.184   6.337  17.097  0.00  0.00    +0.000 A 
ATOM      5  C   UNL     1       3.918   5.036  17.580  0.00  0.00    +0.000 A 
ATOM      6  C   UNL     1       4.608   3.959  16.993  0.00  0.00    +0.000 A 
ATOM      7  C   UNL     1       2.866   4.791  18.675  0.00  0.00    +0.000 C 
ATOM      8  C   UNL     1       2.531   6.096  19.436  0.00  0.00    +0.000 C 
ATOM      9  C   UNL     1       2.273   7.259  18.489  0.00  0.00    +0.000 C 
ATOM     10  C   UNL     1       3.525   7.564  17.677  0.00  0.00    +0.000 C 
ATOM     11  C   UNL     1       1.592   4.187  18.042  0.00  0.00    +0.000 C 
ATOM     12  C   UNL     1       1.736   2.691  18.245  0.00  0.00    +0.000 C 
ATOM     13  N   UNL     1       2.359   2.577  19.559  0.00  0.00    +0.000 NA
ATOM     14  C   UNL     1       3.296   3.701  19.695  0.00  0.00    +0.000 C 
ATOM     15  H   UNL     1       2.853   1.690  19.647  0.00  0.00    +0.000 HD
ENDROOT
BRANCH   1  16
ATOM     16  O   UNL     1       6.151   3.059  15.468  0.00  0.00    +0.000 OA
ATOM     17  H   UNL     1       6.709   2.672  16.163  0.00  0.00    +0.000 HD
ENDBRANCH   1  16
TORSDOF 1
ENDMDL
MODEL 3
REMARK VINA RESULT:      -7.1      2.310      4.052
REMARK  Name = 
REMARK  1 active torsions:
REMARK  status: ('A' for Active; 'I' for Inactive)
REMARK    1  A    between atoms: O_1  and  C_2
REMARK                            x       y       z     vdW  Elec       q    Type
REMARK                         _______ _______ _______ _____ _____    ______ ____
ROOT
ATOM      1  C   UNL     1       7.074   4.892  17.422  0.00  0.00    +0.000 A 
ATOM      2  C   UNL     1       7.128   6.218  17.026  0.00  0.00    +0.000 A 
ATOM      3  C   UNL     1       5.978   6.999  17.127  0.00  0.00    +0.000 A 
ATOM      4  C   UNL     1       4.771   6.463  17.616  0.00  0.00    +0.000 A 
ATOM      5  C   UNL     1       4.725   5.116  18.036  0.00  0.00    +0.000 A 
ATOM      6  C   UNL     1       5.898   4.346  17.922  0.00  0.00    +0.000 A 
ATOM      7  C   UNL     1       3.421   4.485  18.554  0.00  0.00    +0.000 C 
ATOM      8  C   UNL     1       2.395   5.568  18.963  0.00  0.00    +0.000 C 
ATOM      9  C   UNL     1       2.258   6.654  17.906  0.00  0.00    +0.000 C 
ATOM     10  C   UNL     1       3.582   7.385  17.725  0.00  0.00    +0.000 C 
ATOM     11  C   UNL     1       2.829   3.558  17.467  0.00  0.00    +0.000 C 
ATOM     12  C   UNL     1       3.313   2.170  17.843  0.00  0.00    +0.000 C 
ATOM     13  N   UNL     1       3.269   2.170  19.300  0.00  0.00    +0.000 NA
ATOM     14  C   UNL     1       3.647   3.518  19.748  0.00  0.00    +0.000 C 
ATOM     15  H   UNL     1       3.912   1.476  19.679  0.00  0.00    +0.000 HD
ENDROOT
BRANCH   1  16
ATOM     16  O   UNL     1       8.159   4.071  17.346  0.00  0.00    +0.000 OA
ATOM     17  H   UNL     1       7.872   3.218  16.981  0.00  0.00    +0.000 HD
ENDBRANCH   1  16
TORSDOF 1
ENDMDL
MODEL 4
REMARK VINA RESULT:      -6.8      2.490      4.274
REMARK  Name = 
REMARK  1 active torsions:
REMARK  status: ('A' for Active; 'I' for Inactive)
REMARK    1  A    between atoms: O_1  and  C_2
REMARK                            x       y       z     vdW  Elec       q    Type
REMARK                         _______ _______ _______ _____ _____    ______ ____
ROOT
ATOM      1  C   UNL     1       4.414   6.145  17.144  0.00  0.00    +0.000 A 
ATOM      2  C   UNL     1       3.689   7.261  17.529  0.00  0.00    +0.000 A 
ATOM      3  C   UNL     1       2.776   7.143  18.576  0.00  0.00    +0.000 A 
ATOM      4  C   UNL     1       2.577   5.916  19.237  0.00  0.00    +0.000 A 
ATOM      5  C   UNL     1       3.331   4.785  18.853  0.00  0.00    +0.000 A 
ATOM      6  C   UNL     1       4.245   4.928  17.792  0.00  0.00    +0.000 A 
ATOM      7  C   UNL     1       3.127   3.421  19.534  0.00  0.00    +0.000 C 
ATOM      8  C   UNL     1       2.398   3.572  20.890  0.00  0.00    +0.000 C 
ATOM      9  C   UNL     1       1.177   4.474  20.786  0.00  0.00    +0.000 C 
ATOM     10  C   UNL     1       1.595   5.882  20.382  0.00  0.00    +0.000 C 
ATOM     11  C   UNL     1       2.334   2.488  18.591  0.00  0.00    +0.000 C 
ATOM     12  C   UNL     1       3.395   1.658  17.892  0.00  0.00    +0.000 C 
ATOM     13  N   UNL     1       4.395   1.430  18.928  0.00  0.00    +0.000 NA
ATOM     14  C   UNL     1       4.455   2.646  19.751  0.00  0.00    +0.000 C 
ATOM     15  H   UNL     1       5.306   1.237  18.512  0.00  0.00    +0.000 HD
ENDROOT
BRANCH   1  16
ATOM     16  O   UNL     1       5.319   6.188  16.126  0.00  0.00    +0.000 OA
ATOM     17  H   UNL     1       5.512   7.119  15.927  0.00  0.00    +0.000 HD
ENDBRANCH   1  16
TORSDOF 1
ENDMDL
MODEL 5
REMARK VINA RESULT:      -6.8      3.349      5.185
REMARK  Name = 
REMARK  1 active torsions:
REMARK  status: ('A' for Active; 'I' for Inactive)
REMARK    1  A    between atoms: O_1  and  C_2
REMARK                            x       y       z     vdW  Elec       q    Type
REMARK                         _______ _______ _______ _____ _____    ______ ____
ROOT
ATOM      1  C   UNL     1       2.402   7.151  19.214  0.00  0.00    +0.000 A 
ATOM      2  C   UNL     1       3.209   7.411  18.119  0.00  0.00    +0.000 A 
ATOM      3  C   UNL     1       3.721   6.341  17.389  0.00  0.00    +0.000 A 
ATOM      4  C   UNL     1       3.439   5.009  17.749  0.00  0.00    +0.000 A 
ATOM      5  C   UNL     1       2.601   4.747  18.856  0.00  0.00    +0.000 A 
ATOM      6  C   UNL     1       2.097   5.845  19.578  0.00  0.00    +0.000 A 
ATOM      7  C   UNL     1       2.287   3.308  19.297  0.00  0.00    +0.000 C 
ATOM      8  C   UNL     1       2.596   2.294  18.170  0.00  0.00    +0.000 C 
ATOM      9  C   UNL     1       3.962   2.535  17.543  0.00  0.00    +0.000 C 
ATOM     10  C   UNL     1       4.005   3.909  16.887  0.00  0.00    +0.000 C 
ATOM     11  C   UNL     1       3.096   2.970  20.570  0.00  0.00    +0.000 C 
ATOM     12  C   UNL     1       2.132   3.225  21.714  0.00  0.00    +0.000 C 
ATOM     13  N   UNL     1       0.846   2.781  21.190  0.00  0.00    +0.000 NA
ATOM     14  C   UNL     1       0.816   3.122  19.761  0.00  0.00    +0.000 C 
ATOM     15  H   UNL     1       0.080   3.241  21.681  0.00  0.00    +0.000 HD
ENDROOT
BRANCH   1  16
ATOM     16  O   UNL     1       1.871   8.149  19.974  0.00  0.00    +0.000 OA
ATOM     17  H   UNL     1       2.449   8.290  20.742  0.00  0.00    +0.000 HD
ENDBRANCH   1  16
TORSDOF 1
ENDMDL
MODEL 6
REMARK VINA RESULT:      -6.7      1.147      1.147
REMARK  Name = 
REMARK  1 active torsions:
REMARK  status: ('A' for Active; 'I' for Inactive)
REMARK    1  A    between atoms: O_1  and  C_2
REMARK                            x       y       z     vdW  Elec       q    Type
REMARK                         _______ _______ _______ _____ _____    ______ ____
ROOT
ATOM      1  C   UNL     1       4.315   2.733  19.709  0.00  0.00    +0.000 A 
ATOM      2  C   UNL     1       3.063   3.123  20.158  0.00  0.00    +0.000 A 
ATOM      3  C   UNL     1       2.525   4.323  19.697  0.00  0.00    +0.000 A 
ATOM      4  C   UNL     1       3.230   5.141  18.795  0.00  0.00    +0.000 A 
ATOM      5  C   UNL     1       4.497   4.731  18.324  0.00  0.00    +0.000 A 
ATOM      6  C   UNL     1       5.022   3.517  18.806  0.00  0.00    +0.000 A 
ATOM      7  C   UNL     1       5.311   5.607  17.356  0.00  0.00    +0.000 C 
ATOM      8  C   UNL     1       4.415   6.662  16.663  0.00  0.00    +0.000 C 
ATOM      9  C   UNL     1       3.518   7.389  17.653  0.00  0.00    +0.000 C 
ATOM     10  C   UNL     1       2.562   6.407  18.318  0.00  0.00    +0.000 C 
ATOM     11  C   UNL     1       6.463   6.293  18.124  0.00  0.00    +0.000 C 
ATOM     12  C   UNL     1       7.669   5.404  17.879  0.00  0.00    +0.000 C 
ATOM     13  N   UNL     1       7.500   4.962  16.500  0.00  0.00    +0.000 NA
ATOM     14  C   UNL     1       6.059   4.782  16.273  0.00  0.00    +0.000 C 
ATOM     15  H   UNL     1       7.998   4.088  16.339  0.00  0.00    +0.000 HD
ENDROOT
BRANCH   1  16
ATOM     16  O   UNL     1       4.902   1.576  20.123  0.00  0.00    +0.000 OA
ATOM     17  H   UNL     1       5.864   1.707  20.132  0.00  0.00    +0.000 HD
ENDBRANCH   1  16
TORSDOF 1
ENDMDL
MODEL 7
REMARK VINA RESULT:      -6.7      2.378      4.073
REMARK  Name = 
REMARK  1 active torsions:
REMARK  status: ('A' for Active; 'I' for Inactive)
REMARK    1  A    between atoms: O_1  and  C_2
REMARK                            x       y       z     vdW  Elec       q    Type
REMARK                         _______ _______ _______ _____ _____    ______ ____
ROOT
ATOM      1  C   UNL     1       5.151   5.561  16.308  0.00  0.00    +0.000 A 
ATOM      2  C   UNL     1       4.734   6.874  16.444  0.00  0.00    +0.000 A 
ATOM      3  C   UNL     1       3.874   7.204  17.491  0.00  0.00    +0.000 A 
ATOM      4  C   UNL     1       3.422   6.228  18.400  0.00  0.00    +0.000 A 
ATOM      5  C   UNL     1       3.865   4.893  18.269  0.00  0.00    +0.000 A 
ATOM      6  C   UNL     1       4.731   4.585  17.203  0.00  0.00    +0.000 A 
ATOM      7  C   UNL     1       3.378   3.793  19.227  0.00  0.00    +0.000 C 
ATOM      8  C   UNL     1       2.776   4.396  20.518  0.00  0.00    +0.000 C 
ATOM      9  C   UNL     1       1.801   5.526  20.221  0.00  0.00    +0.000 C 
ATOM     10  C   UNL     1       2.521   6.674  19.524  0.00  0.00    +0.000 C 
ATOM     11  C   UNL     1       2.337   2.905  18.506  0.00  0.00    +0.000 C 
ATOM     12  C   UNL     1       3.133   1.715  18.003  0.00  0.00    +0.000 C 
ATOM     13  N   UNL     1       4.103   1.472  19.064  0.00  0.00    +0.000 NA
ATOM     14  C   UNL     1       4.493   2.781  19.607  0.00  0.00    +0.000 C 
ATOM     15  H   UNL     1       4.918   0.980  18.701  0.00  0.00    +0.000 HD
ENDROOT
BRANCH   1  16
ATOM     16  O   UNL     1       5.987   5.169  15.306  0.00  0.00    +0.000 OA
ATOM     17  H   UNL     1       6.356   4.301  15.537  0.00  0.00    +0.000 HD
ENDBRANCH   1  16
TORSDOF 1
ENDMDL
MODEL 8
REMARK VINA RESULT:      -6.3      2.801      4.273
REMARK  Name = 
REMARK  1 active torsions:
REMARK  status: ('A' for Active; 'I' for Inactive)
REMARK    1  A    between atoms: O_1  and  C_2
REMARK                            x       y       z     vdW  Elec       q    Type
REMARK                         _______ _______ _______ _____ _____    ______ ____
ROOT
ATOM      1  C   UNL     1       2.562   7.441  18.936  0.00  0.00    +0.000 A 
ATOM      2  C   UNL     1       1.678   7.431  20.003  0.00  0.00    +0.000 A 
ATOM      3  C   UNL     1       1.545   6.268  20.758  0.00  0.00    +0.000 A 
ATOM      4  C   UNL     1       2.286   5.110  20.452  0.00  0.00    +0.000 A 
ATOM      5  C   UNL     1       3.201   5.130  19.376  0.00  0.00    +0.000 A 
ATOM      6  C   UNL     1       3.315   6.316  18.626  0.00  0.00    +0.000 A 
ATOM      7  C   UNL     1       4.011   3.880  18.994  0.00  0.00    +0.000 C 
ATOM      8  C   UNL     1       4.036   2.850  20.149  0.00  0.00    +0.000 C 
ATOM      9  C   UNL     1       2.651   2.615  20.735  0.00  0.00    +0.000 C 
ATOM     10  C   UNL     1       2.109   3.903  21.340  0.00  0.00    +0.000 C 
ATOM     11  C   UNL     1       3.415   3.248  17.716  0.00  0.00    +0.000 C 
ATOM     12  C   UNL     1       4.267   3.795  16.586  0.00  0.00    +0.000 C 
ATOM     13  N   UNL     1       5.609   3.842  17.155  0.00  0.00    +0.000 NA
ATOM     14  C   UNL     1       5.469   4.207  18.571  0.00  0.00    +0.000 C 
ATOM     15  H   UNL     1       6.183   4.528  16.665  0.00  0.00    +0.000 HD
ENDROOT
BRANCH   1  16
ATOM     16  O   UNL     1       2.737   8.542  18.154  0.00  0.00    +0.000 OA
ATOM     17  H   UNL     1       2.431   9.321  18.647  0.00  0.00    +0.000 HD
ENDBRANCH   1  16
TORSDOF 1
ENDMDL
MODEL 9
REMARK VINA RESULT:      -6.3      2.288      3.403
REMARK  Name = 
REMARK  1 active torsions:
REMARK  status: ('A' for Active; 'I' for Inactive)
REMARK    1  A    between atoms: O_1  and  C_2
REMARK                            x       y       z     vdW  Elec       q    Type
REMARK                         _______ _______ _______ _____ _____    ______ ____
ROOT
ATOM      1  C   UNL     1       3.422   5.732  19.126  0.00  0.00    +0.000 A 
ATOM      2  C   UNL     1       2.644   4.917  18.319  0.00  0.00    +0.000 A 
ATOM      3  C   UNL     1       3.239   4.281  17.231  0.00  0.00    +0.000 A 
ATOM      4  C   UNL     1       4.605   4.456  16.939  0.00  0.00    +0.000 A 
ATOM      5  C   UNL     1       5.399   5.272  17.775  0.00  0.00    +0.000 A 
ATOM      6  C   UNL     1       4.775   5.907  18.866  0.00  0.00    +0.000 A 
ATOM      7  C   UNL     1       6.889   5.509  17.477  0.00  0.00    +0.000 C 
ATOM      8  C   UNL     1       7.446   4.440  16.507  0.00  0.00    +0.000 C 
ATOM      9  C   UNL     1       6.535   4.226  15.307  0.00  0.00    +0.000 C 
ATOM     10  C   UNL     1       5.178   3.704  15.763  0.00  0.00    +0.000 C 
ATOM     11  C   UNL     1       7.080   6.927  16.891  0.00  0.00    +0.000 C 
ATOM     12  C   UNL     1       7.476   7.782  18.080  0.00  0.00    +0.000 C 
ATOM     13  N   UNL     1       8.320   6.899  18.877  0.00  0.00    +0.000 NA
ATOM     14  C   UNL     1       7.766   5.543  18.758  0.00  0.00    +0.000 C 
ATOM     15  H   UNL     1       8.330   7.195  19.852  0.00  0.00    +0.000 HD
ENDROOT
BRANCH   1  16
ATOM     16  O   UNL     1       2.905   6.388  20.202  0.00  0.00    +0.000 OA
ATOM     17  H   UNL     1       1.937   6.317  20.168  0.00  0.00    +0.000 HD
ENDBRANCH   1  16
TORSDOF 1
ENDMDL
