MODEL 1
REMARK VINA RESULT:      -6.9      0.000      0.000
REMARK  Name = 
REMARK  4 active torsions:
REMARK  status: ('A' for Active; 'I' for Inactive)
REMARK    1  A    between atoms: C_1  and  C_2
REMARK    2  A    between atoms: C_5  and  S_6
REMARK    3  A    between atoms: S_6  and  C_7
REMARK    4  A    between atoms: C_12  and  N_13
REMARK                            x       y       z     vdW  Elec       q    Type
REMARK                         _______ _______ _______ _____ _____    ______ ____
ROOT
ATOM      1  C   UNL     1       3.127   3.351  18.941  0.00  0.00    +0.000 A 
ATOM      2  N   UNL     1       1.937   4.004  18.922  0.00  0.00    +0.000 NA
ATOM      3  C   UNL     1       1.209   3.994  20.057  0.00  0.00    +0.000 A 
ATOM      4  C   UNL     1       1.602   3.354  21.217  0.00  0.00    +0.000 A 
ATOM      5  C   UNL     1       2.816   2.671  21.215  0.00  0.00    +0.000 A 
ATOM      6  C   UNL     1       3.589   2.614  20.053  0.00  0.00    +0.000 A 
ENDROOT
BRANCH   6   7
ATOM      7  N   UNL     1       4.865   2.018  20.115  0.00  0.00    +0.000 N 
ATOM      8  H   UNL     1       5.623   2.680  20.241  0.00  0.00    +0.000 HD
ATOM      9  H   UNL     1       4.898   1.253  20.786  0.00  0.00    +0.000 HD
ENDBRANCH   6   7
BRANCH   1  10
ATOM     10  S   UNL     1       4.041   3.315  17.399  0.00  0.00    +0.000 S 
BRANCH  10  15
ATOM     11  C   UNL     1       7.879   8.053  17.624  0.00  0.00    +0.000 C 
ATOM     12  C   UNL     1       6.914   6.905  17.612  0.00  0.00    +0.000 A 
ATOM     13  C   UNL     1       7.278   5.654  18.123  0.00  0.00    +0.000 A 
ATOM     14  C   UNL     1       6.380   4.583  18.082  0.00  0.00    +0.000 A 
ATOM     15  C   UNL     1       5.103   4.742  17.533  0.00  0.00    +0.000 A 
ATOM     16  C   UNL     1       4.743   5.990  17.018  0.00  0.00    +0.000 A 
ATOM     17  C   UNL     1       5.637   7.065  17.062  0.00  0.00    +0.000 A 
ENDBRANCH  10  15
ENDBRANCH   1  10
TORSDOF 3
ENDMDL
MODEL 2
REMARK VINA RESULT:      -6.7      2.172      5.691
REMARK  Name = 
REMARK  4 active torsions:
REMARK  status: ('A' for Active; 'I' for Inactive)
REMARK    1  A    between atoms: C_1  and  C_2
REMARK    2  A    between atoms: C_5  and  S_6
REMARK    3  A    between atoms: S_6  and  C_7
REMARK    4  A    between atoms: C_12  and  N_13
REMARK                            x       y       z     vdW  Elec       q    Type
REMARK                         _______ _______ _______ _____ _____    ______ ____
ROOT
ATOM      1  C   UNL     1       6.302   5.032  17.153  0.00  0.00    +0.000 A 
ATOM      2  N   UNL     1       7.061   4.578  18.182  0.00  0.00    +0.000 NA
ATOM      3  C   UNL     1       7.830   5.479  18.826  0.00  0.00    +0.000 A 
ATOM      4  C   UNL     1       7.891   6.819  18.490  0.00  0.00    +0.000 A 
ATOM      5  C   UNL     1       7.120   7.266  17.420  0.00  0.00    +0.000 A 
ATOM      6  C   UNL     1       6.339   6.365  16.692  0.00  0.00    +0.000 A 
ENDROOT
BRANCH   6   7
ATOM      7  N   UNL     1       5.481   6.866  15.691  0.00  0.00    +0.000 N 
ATOM      8  H   UNL     1       5.632   6.455  14.776  0.00  0.00    +0.000 HD
ATOM      9  H   UNL     1       4.504   6.839  15.976  0.00  0.00    +0.000 HD
ENDBRANCH   6   7
BRANCH   1  10
ATOM     10  S   UNL     1       5.346   3.802  16.266  0.00  0.00    +0.000 S 
BRANCH  10  15
ATOM     11  C   UNL     1       0.601   3.091  20.034  0.00  0.00    +0.000 C 
ATOM     12  C   UNL     1       1.735   3.258  19.068  0.00  0.00    +0.000 A 
ATOM     13  C   UNL     1       2.562   2.181  18.735  0.00  0.00    +0.000 A 
ATOM     14  C   UNL     1       3.634   2.356  17.855  0.00  0.00    +0.000 A 
ATOM     15  C   UNL     1       3.898   3.608  17.290  0.00  0.00    +0.000 A 
ATOM     16  C   UNL     1       3.075   4.685  17.628  0.00  0.00    +0.000 A 
ATOM     17  C   UNL     1       1.998   4.512  18.505  0.00  0.00    +0.000 A 
ENDBRANCH  10  15
ENDBRANCH   1  10
TORSDOF 3
ENDMDL
MODEL 3
REMARK VINA RESULT:      -6.7      0.230      1.264
REMARK  Name = 
REMARK  4 active torsions:
REMARK  status: ('A' for Active; 'I' for Inactive)
REMARK    1  A    between atoms: C_1  and  C_2
REMARK    2  A    between atoms: C_5  and  S_6
REMARK    3  A    between atoms: S_6  and  C_7
REMARK    4  A    between atoms: C_12  and  N_13
REMARK                            x       y       z     vdW  Elec       q    Type
REMARK                         _______ _______ _______ _____ _____    ______ ____
ROOT
ATOM      1  C   UNL     1       3.202   3.500  18.851  0.00  0.00    +0.000 A 
ATOM      2  N   UNL     1       2.095   4.284  18.874  0.00  0.00    +0.000 NA
ATOM      3  C   UNL     1       1.420   4.364  20.038  0.00  0.00    +0.000 A 
ATOM      4  C   UNL     1       1.787   3.690  21.188  0.00  0.00    +0.000 A 
ATOM      5  C   UNL     1       2.915   2.874  21.143  0.00  0.00    +0.000 A 
ATOM      6  C   UNL     1       3.625   2.722  19.949  0.00  0.00    +0.000 A 
ENDROOT
BRANCH   6   7
ATOM      7  N   UNL     1       4.827   1.985  19.964  0.00  0.00    +0.000 N 
ATOM      8  H   UNL     1       4.989   1.445  19.121  0.00  0.00    +0.000 HD
ATOM      9  H   UNL     1       5.627   2.562  20.220  0.00  0.00    +0.000 HD
ENDBRANCH   6   7
BRANCH   1  10
ATOM     10  S   UNL     1       4.039   3.351  17.272  0.00  0.00    +0.000 S 
BRANCH  10  15
ATOM     11  C   UNL     1       7.851   8.101  17.645  0.00  0.00    +0.000 C 
ATOM     12  C   UNL     1       6.938   6.919  17.511  0.00  0.00    +0.000 A 
ATOM     13  C   UNL     1       5.686   7.042  16.898  0.00  0.00    +0.000 A 
ATOM     14  C   UNL     1       4.832   5.939  16.803  0.00  0.00    +0.000 A 
ATOM     15  C   UNL     1       5.212   4.695  17.315  0.00  0.00    +0.000 A 
ATOM     16  C   UNL     1       6.460   4.574  17.932  0.00  0.00    +0.000 A 
ATOM     17  C   UNL     1       7.319   5.674  18.025  0.00  0.00    +0.000 A 
ENDBRANCH  10  15
ENDBRANCH   1  10
TORSDOF 3
ENDMDL
MODEL 4
REMARK VINA RESULT:      -6.7      2.224      5.837
REMARK  Name = 
REMARK  4 active torsions:
REMARK  status: ('A' for Active; 'I' for Inactive)
REMARK    1  A    between atoms: C_1  and  C_2
REMARK    2  A    between atoms: C_5  and  S_6
REMARK    3  A    between atoms: S_6  and  C_7
REMARK    4  A    between atoms: C_12  and  N_13
REMARK                            x       y       z     vdW  Elec       q    Type
REMARK                         _______ _______ _______ _____ _____    ______ ____
ROOT
ATOM      1  C   UNL     1       6.376   5.035  17.171  0.00  0.00    +0.000 A 
ATOM      2  N   UNL     1       7.117   4.602  18.223  0.00  0.00    +0.000 NA
ATOM      3  C   UNL     1       7.879   5.515  18.857  0.00  0.00    +0.000 A 
ATOM      4  C   UNL     1       7.951   6.846  18.491  0.00  0.00    +0.000 A 
ATOM      5  C   UNL     1       7.200   7.270  17.398  0.00  0.00    +0.000 A 
ATOM      6  C   UNL     1       6.427   6.356  16.678  0.00  0.00    +0.000 A 
ENDROOT
BRANCH   6   7
ATOM      7  N   UNL     1       5.588   6.836  15.652  0.00  0.00    +0.000 N 
ATOM      8  H   UNL     1       5.546   6.232  14.838  0.00  0.00    +0.000 HD
ATOM      9  H   UNL     1       4.665   7.091  15.999  0.00  0.00    +0.000 HD
ENDBRANCH   6   7
BRANCH   1  10
ATOM     10  S   UNL     1       5.430   3.787  16.297  0.00  0.00    +0.000 S 
BRANCH  10  15
ATOM     11  C   UNL     1       0.412   2.985  19.673  0.00  0.00    +0.000 C 
ATOM     12  C   UNL     1       1.672   3.187  18.886  0.00  0.00    +0.000 A 
ATOM     13  C   UNL     1       2.015   4.449  18.388  0.00  0.00    +0.000 A 
ATOM     14  C   UNL     1       3.179   4.620  17.633  0.00  0.00    +0.000 A 
ATOM     15  C   UNL     1       4.021   3.537  17.363  0.00  0.00    +0.000 A 
ATOM     16  C   UNL     1       3.675   2.276  17.856  0.00  0.00    +0.000 A 
ATOM     17  C   UNL     1       2.514   2.102  18.616  0.00  0.00    +0.000 A 
ENDBRANCH  10  15
ENDBRANCH   1  10
TORSDOF 3
ENDMDL
MODEL 5
REMARK VINA RESULT:      -6.6      2.272      5.439
REMARK  Name = 
REMARK  4 active torsions:
REMARK  status: ('A' for Active; 'I' for Inactive)
REMARK    1  A    between atoms: C_1  and  C_2
REMARK    2  A    between atoms: C_5  and  S_6
REMARK    3  A    between atoms: S_6  and  C_7
REMARK    4  A    between atoms: C_12  and  N_13
REMARK                            x       y       z     vdW  Elec       q    Type
REMARK                         _______ _______ _______ _____ _____    ______ ____
ROOT
ATOM      1  C   UNL     1       6.477   6.117  17.032  0.00  0.00    +0.000 A 
ATOM      2  N   UNL     1       6.712   7.423  16.742  0.00  0.00    +0.000 NA
ATOM      3  C   UNL     1       7.592   8.079  17.524  0.00  0.00    +0.000 A 
ATOM      4  C   UNL     1       8.249   7.503  18.595  0.00  0.00    +0.000 A 
ATOM      5  C   UNL     1       7.983   6.169  18.892  0.00  0.00    +0.000 A 
ATOM      6  C   UNL     1       7.047   5.455  18.140  0.00  0.00    +0.000 A 
ENDROOT
BRANCH   6   7
ATOM      7  N   UNL     1       6.886   4.076  18.388  0.00  0.00    +0.000 N 
ATOM      8  H   UNL     1       6.167   3.862  19.070  0.00  0.00    +0.000 HD
ATOM      9  H   UNL     1       6.782   3.542  17.528  0.00  0.00    +0.000 HD
ENDBRANCH   6   7
BRANCH   1  10
ATOM     10  S   UNL     1       5.248   5.287  16.025  0.00  0.00    +0.000 S 
BRANCH  10  15
ATOM     11  C   UNL     1       0.932   4.049  20.155  0.00  0.00    +0.000 C 
ATOM     12  C   UNL     1       1.957   4.371  19.109  0.00  0.00    +0.000 A 
ATOM     13  C   UNL     1       2.400   3.395  18.211  0.00  0.00    +0.000 A 
ATOM     14  C   UNL     1       3.376   3.700  17.257  0.00  0.00    +0.000 A 
ATOM     15  C   UNL     1       3.924   4.984  17.181  0.00  0.00    +0.000 A 
ATOM     16  C   UNL     1       3.485   5.957  18.082  0.00  0.00    +0.000 A 
ATOM     17  C   UNL     1       2.505   5.657  19.035  0.00  0.00    +0.000 A 
ENDBRANCH  10  15
ENDBRANCH   1  10
TORSDOF 3
ENDMDL
MODEL 6
REMARK VINA RESULT:      -6.5      2.229      5.519
REMARK  Name = 
REMARK  4 active torsions:
REMARK  status: ('A' for Active; 'I' for Inactive)
REMARK    1  A    between atoms: C_1  and  C_2
REMARK    2  A    between atoms: C_5  and  S_6
REMARK    3  A    between atoms: S_6  and  C_7
REMARK    4  A    between atoms: C_12  and  N_13
REMARK                            x       y       z     vdW  Elec       q    Type
REMARK                         _______ _______ _______ _____ _____    ______ ____
ROOT
ATOM      1  C   UNL     1       6.404   6.089  17.023  0.00  0.00    +0.000 A 
ATOM      2  N   UNL     1       6.636   7.390  16.709  0.00  0.00    +0.000 NA
ATOM      3  C   UNL     1       7.536   8.055  17.461  0.00  0.00    +0.000 A 
ATOM      4  C   UNL     1       8.217   7.491  18.524  0.00  0.00    +0.000 A 
ATOM      5  C   UNL     1       7.954   6.162  18.845  0.00  0.00    +0.000 A 
ATOM      6  C   UNL     1       6.999   5.440  18.126  0.00  0.00    +0.000 A 
ENDROOT
BRANCH   6   7
ATOM      7  N   UNL     1       6.840   4.066  18.397  0.00  0.00    +0.000 N 
ATOM      8  H   UNL     1       7.707   3.539  18.374  0.00  0.00    +0.000 HD
ATOM      9  H   UNL     1       6.306   3.903  19.249  0.00  0.00    +0.000 HD
ENDBRANCH   6   7
BRANCH   1  10
ATOM     10  S   UNL     1       5.149   5.249  16.057  0.00  0.00    +0.000 S 
BRANCH  10  15
ATOM     11  C   UNL     1       0.791   3.859  20.094  0.00  0.00    +0.000 C 
ATOM     12  C   UNL     1       1.897   4.185  19.135  0.00  0.00    +0.000 A 
ATOM     13  C   UNL     1       2.424   5.478  19.056  0.00  0.00    +0.000 A 
ATOM     14  C   UNL     1       3.437   5.776  18.139  0.00  0.00    +0.000 A 
ATOM     15  C   UNL     1       3.942   4.789  17.287  0.00  0.00    +0.000 A 
ATOM     16  C   UNL     1       3.411   3.498  17.362  0.00  0.00    +0.000 A 
ATOM     17  C   UNL     1       2.401   3.196  18.282  0.00  0.00    +0.000 A 
ENDBRANCH  10  15
ENDBRANCH   1  10
TORSDOF 3
ENDMDL
MODEL 7
REMARK VINA RESULT:      -6.5      2.029      2.547
REMARK  Name = 
REMARK  4 active torsions:
REMARK  status: ('A' for Active; 'I' for Inactive)
REMARK    1  A    between atoms: C_1  and  C_2
REMARK    2  A    between atoms: C_5  and  S_6
REMARK    3  A    between atoms: S_6  and  C_7
REMARK    4  A    between atoms: C_12  and  N_13
REMARK                            x       y       z     vdW  Elec       q    Type
REMARK                         _______ _______ _______ _____ _____    ______ ____
ROOT
ATOM      1  C   UNL     1       4.018   4.435  19.656  0.00  0.00    +0.000 A 
ATOM      2  N   UNL     1       2.979   5.307  19.708  0.00  0.00    +0.000 NA
ATOM      3  C   UNL     1       1.755   4.793  19.941  0.00  0.00    +0.000 A 
ATOM      4  C   UNL     1       1.506   3.445  20.118  0.00  0.00    +0.000 A 
ATOM      5  C   UNL     1       2.579   2.561  20.043  0.00  0.00    +0.000 A 
ATOM      6  C   UNL     1       3.863   3.036  19.760  0.00  0.00    +0.000 A 
ENDROOT
BRANCH   6   7
ATOM      7  N   UNL     1       4.945   2.134  19.808  0.00  0.00    +0.000 N 
ATOM      8  H   UNL     1       4.674   1.175  19.993  0.00  0.00    +0.000 HD
ATOM      9  H   UNL     1       5.551   2.220  18.993  0.00  0.00    +0.000 HD
ENDBRANCH   6   7
BRANCH   1  10
ATOM     10  S   UNL     1       5.624   5.132  19.270  0.00  0.00    +0.000 S 
BRANCH  10  15
ATOM     11  C   UNL     1       6.272   3.866  13.337  0.00  0.00    +0.000 C 
ATOM     12  C   UNL     1       6.104   4.226  14.783  0.00  0.00    +0.000 A 
ATOM     13  C   UNL     1       7.210   4.527  15.584  0.00  0.00    +0.000 A 
ATOM     14  C   UNL     1       7.043   4.834  16.937  0.00  0.00    +0.000 A 
ATOM     15  C   UNL     1       5.770   4.849  17.515  0.00  0.00    +0.000 A 
ATOM     16  C   UNL     1       4.665   4.542  16.716  0.00  0.00    +0.000 A 
ATOM     17  C   UNL     1       4.828   4.239  15.360  0.00  0.00    +0.000 A 
ENDBRANCH  10  15
ENDBRANCH   1  10
TORSDOF 3
ENDMDL
MODEL 8
REMARK VINA RESULT:      -6.5      0.652      1.789
REMARK  Name = 
REMARK  4 active torsions:
REMARK  status: ('A' for Active; 'I' for Inactive)
REMARK    1  A    between atoms: C_1  and  C_2
REMARK    2  A    between atoms: C_5  and  S_6
REMARK    3  A    between atoms: S_6  and  C_7
REMARK    4  A    between atoms: C_12  and  N_13
REMARK                            x       y       z     vdW  Elec       q    Type
REMARK                         _______ _______ _______ _____ _____    ______ ____
ROOT
ATOM      1  C   UNL     1       3.117   3.265  18.885  0.00  0.00    +0.000 A 
ATOM      2  N   UNL     1       3.604   2.701  20.020  0.00  0.00    +0.000 NA
ATOM      3  C   UNL     1       2.857   2.819  21.136  0.00  0.00    +0.000 A 
ATOM      4  C   UNL     1       1.646   3.484  21.185  0.00  0.00    +0.000 A 
ATOM      5  C   UNL     1       1.170   4.073  20.017  0.00  0.00    +0.000 A 
ATOM      6  C   UNL     1       1.925   4.018  18.843  0.00  0.00    +0.000 A 
ENDROOT
BRANCH   6   7
ATOM      7  N   UNL     1       1.364   4.521  17.651  0.00  0.00    +0.000 N 
ATOM      8  H   UNL     1       0.852   3.830  17.113  0.00  0.00    +0.000 HD
ATOM      9  H   UNL     1       0.825   5.370  17.810  0.00  0.00    +0.000 HD
ENDBRANCH   6   7
BRANCH   1  10
ATOM     10  S   UNL     1       4.163   3.160  17.432  0.00  0.00    +0.000 S 
BRANCH  10  15
ATOM     11  C   UNL     1       7.782   8.069  17.614  0.00  0.00    +0.000 C 
ATOM     12  C   UNL     1       6.868   6.879  17.611  0.00  0.00    +0.000 A 
ATOM     13  C   UNL     1       7.257   5.672  18.201  0.00  0.00    +0.000 A 
ATOM     14  C   UNL     1       6.408   4.562  18.168  0.00  0.00    +0.000 A 
ATOM     15  C   UNL     1       5.157   4.637  17.548  0.00  0.00    +0.000 A 
ATOM     16  C   UNL     1       4.771   5.842  16.954  0.00  0.00    +0.000 A 
ATOM     17  C   UNL     1       5.617   6.956  16.989  0.00  0.00    +0.000 A 
ENDBRANCH  10  15
ENDBRANCH   1  10
TORSDOF 3
ENDMDL
MODEL 9
REMARK VINA RESULT:      -6.3      1.141      1.691
REMARK  Name = 
REMARK  4 active torsions:
REMARK  status: ('A' for Active; 'I' for Inactive)
REMARK    1  A    between atoms: C_1  and  C_2
REMARK    2  A    between atoms: C_5  and  S_6
REMARK    3  A    between atoms: S_6  and  C_7
REMARK    4  A    between atoms: C_12  and  N_13
REMARK                            x       y       z     vdW  Elec       q    Type
REMARK                         _______ _______ _______ _____ _____    ______ ____
ROOT
ATOM      1  C   UNL     1       2.866   3.821  18.579  0.00  0.00    +0.000 A 
ATOM      2  N   UNL     1       2.749   5.061  19.119  0.00  0.00    +0.000 NA
ATOM      3  C   UNL     1       2.008   5.179  20.239  0.00  0.00    +0.000 A 
ATOM      4  C   UNL     1       1.364   4.120  20.851  0.00  0.00    +0.000 A 
ATOM      5  C   UNL     1       1.477   2.858  20.274  0.00  0.00    +0.000 A 
ATOM      6  C   UNL     1       2.197   2.688  19.089  0.00  0.00    +0.000 A 
ENDROOT
BRANCH   6   7
ATOM      7  N   UNL     1       2.393   1.382  18.595  0.00  0.00    +0.000 N 
ATOM      8  H   UNL     1       2.615   0.700  19.312  0.00  0.00    +0.000 HD
ATOM      9  H   UNL     1       1.628   1.082  17.993  0.00  0.00    +0.000 HD
ENDBRANCH   6   7
BRANCH   1  10
ATOM     10  S   UNL     1       3.793   3.703  17.050  0.00  0.00    +0.000 S 
BRANCH  10  15
ATOM     11  C   UNL     1       8.109   7.898  18.049  0.00  0.00    +0.000 C 
ATOM     12  C   UNL     1       7.079   6.844  17.769  0.00  0.00    +0.000 A 
ATOM     13  C   UNL     1       6.054   7.067  16.844  0.00  0.00    +0.000 A 
ATOM     14  C   UNL     1       5.084   6.088  16.612  0.00  0.00    +0.000 A 
ATOM     15  C   UNL     1       5.120   4.869  17.297  0.00  0.00    +0.000 A 
ATOM     16  C   UNL     1       6.141   4.649  18.225  0.00  0.00    +0.000 A 
ATOM     17  C   UNL     1       7.117   5.625  18.456  0.00  0.00    +0.000 A 
ENDBRANCH  10  15
ENDBRANCH   1  10
TORSDOF 3
ENDMDL
