MODEL 1
REMARK VINA RESULT:      -8.0      0.000      0.000
REMARK  Name = 
REMARK  9 active torsions:
REMARK  status: ('A' for Active; 'I' for Inactive)
REMARK    1  A    between atoms: C_1  and  C_2
REMARK    2  A    between atoms: C_2  and  C_3
REMARK    3  A    between atoms: C_3  and  C_4
REMARK    4  A    between atoms: C_4  and  N_5
REMARK    5  A    between atoms: C_6  and  N_7
REMARK    6  A    between atoms: C_8  and  C_10
REMARK    7  A    between atoms: C_16  and  S_17
REMARK    8  A    between atoms: S_17  and  C_20
REMARK    9  A    between atoms: C_23  and  C_24
REMARK                            x       y       z     vdW  Elec       q    Type
REMARK                         _______ _______ _______ _____ _____    ______ ____
ROOT
ATOM      1  N   UNL     1       4.817   6.742  16.519  0.00  0.00    +0.000 N 
ATOM      2  C   UNL     1       5.663   6.216  17.530  0.00  0.00    +0.000 A 
ATOM      3  C   UNL     1       4.695   5.422  18.189  0.00  0.00    +0.000 A 
ATOM      4  C   UNL     1       3.748   6.409  18.425  0.00  0.00    +0.000 A 
ATOM      5  N   UNL     1       2.913   6.512  19.462  0.00  0.00    +0.000 NA
ATOM      6  C   UNL     1       2.186   7.609  19.450  0.00  0.00    +0.000 A 
ATOM      7  C   UNL     1       1.453   7.802  20.611  0.00  0.00    +0.000 A 
ATOM      8  C   UNL     1       0.706   8.949  20.791  0.00  0.00    +0.000 A 
ATOM      9  C   UNL     1       0.703   9.893  19.778  0.00  0.00    +0.000 A 
ATOM     10  C   UNL     1       1.426   9.673  18.582  0.00  0.00    +0.000 A 
ATOM     11  C   UNL     1       2.199   8.526  18.356  0.00  0.00    +0.000 A 
ATOM     12  N   UNL     1       2.950   8.339  17.197  0.00  0.00    +0.000 NA
ATOM     13  C   UNL     1       3.738   7.234  17.280  0.00  0.00    +0.000 A 
ENDROOT
BRANCH   2  14
ATOM     14  N   UNL     1       6.455   7.255  18.098  0.00  0.00    +0.000 N 
ATOM     15  C   UNL     1       7.599   7.684  17.456  0.00  0.00    +0.000 C 
ATOM     16  O   UNL     1       8.134   7.089  16.531  0.00  0.00    +0.000 OA
ATOM     17  H   UNL     1       5.900   8.047  18.423  0.00  0.00    +0.000 HD
BRANCH  15  18
ATOM     18  C   UNL     1       8.168   8.993  17.946  0.00  0.00    +0.000 A 
ATOM     19  C   UNL     1       7.896  10.227  17.330  0.00  0.00    +0.000 A 
ATOM     20  C   UNL     1       8.377  11.419  17.885  0.00  0.00    +0.000 A 
ATOM     21  C   UNL     1       9.135  11.392  19.055  0.00  0.00    +0.000 A 
ATOM     22  C   UNL     1       9.444  10.172  19.651  0.00  0.00    +0.000 A 
ATOM     23  C   UNL     1       8.969   8.980  19.096  0.00  0.00    +0.000 A 
ENDBRANCH  15  18
ENDBRANCH   2  14
BRANCH   3  24
ATOM     24  S   UNL     1       3.925   3.893  17.767  0.00  0.00    +0.000 S 
ATOM     25  O   UNL     1       2.966   4.239  16.738  0.00  0.00    +0.000 OA
ATOM     26  O   UNL     1       5.027   2.989  17.506  0.00  0.00    +0.000 OA
BRANCH  24  27
ATOM     27  C   UNL     1       3.019   3.292  19.187  0.00  0.00    +0.000 A 
ATOM     28  C   UNL     1       1.617   3.337  19.194  0.00  0.00    +0.000 A 
ATOM     29  C   UNL     1       0.908   2.955  20.343  0.00  0.00    +0.000 A 
ATOM     30  C   UNL     1       1.590   2.550  21.497  0.00  0.00    +0.000 A 
ATOM     31  C   UNL     1       0.847   2.230  22.765  0.00  0.00    +0.000 C 
ATOM     32  C   UNL     1       2.987   2.456  21.458  0.00  0.00    +0.000 A 
ATOM     33  C   UNL     1       3.699   2.831  20.315  0.00  0.00    +0.000 A 
ENDBRANCH  24  27
ENDBRANCH   3  24
BRANCH   1  34
ATOM     34  C   UNL     1       5.186   6.308  15.182  0.00  0.00    +0.000 C 
BRANCH  34  35
ATOM     35  C   UNL     1       6.062   5.159  14.682  0.00  0.00    +0.000 C 
BRANCH  35  37
ATOM     36  C   UNL     1       6.177   3.586  12.642  0.00  0.00    +0.000 C 
ATOM     37  C   UNL     1       5.475   3.976  13.934  0.00  0.00    +0.000 C 
ENDBRANCH  35  37
ENDBRANCH  34  35
ENDBRANCH   1  34
TORSDOF 7
ENDMDL
MODEL 2
REMARK VINA RESULT:      -7.8      5.736      9.540
REMARK  Name = 
REMARK  9 active torsions:
REMARK  status: ('A' for Active; 'I' for Inactive)
REMARK    1  A    between atoms: C_1  and  C_2
REMARK    2  A    between atoms: C_2  and  C_3
REMARK    3  A    between atoms: C_3  and  C_4
REMARK    4  A    between atoms: C_4  and  N_5
REMARK    5  A    between atoms: C_6  and  N_7
REMARK    6  A    between atoms: C_8  and  C_10
REMARK    7  A    between atoms: C_16  and  S_17
REMARK    8  A    between atoms: S_17  and  C_20
REMARK    9  A    between atoms: C_23  and  C_24
REMARK                            x       y       z     vdW  Elec       q    Type
REMARK                         _______ _______ _______ _____ _____    ______ ____
ROOT
ATOM      1  N   UNL     1       0.294  12.723  19.067  0.00  0.00    +0.000 N 
ATOM      2  C   UNL     1       0.407  12.027  20.298  0.00  0.00    +0.000 A 
ATOM      3  C   UNL     1       0.681  13.146  21.121  0.00  0.00    +0.000 A 
ATOM      4  C   UNL     1       1.773  13.647  20.427  0.00  0.00    +0.000 A 
ATOM      5  N   UNL     1       2.838  14.282  20.922  0.00  0.00    +0.000 NA
ATOM      6  C   UNL     1       3.755  14.564  20.020  0.00  0.00    +0.000 A 
ATOM      7  C   UNL     1       4.931  15.060  20.561  0.00  0.00    +0.000 A 
ATOM      8  C   UNL     1       6.021  15.323  19.756  0.00  0.00    +0.000 A 
ATOM      9  C   UNL     1       5.902  15.087  18.396  0.00  0.00    +0.000 A 
ATOM     10  C   UNL     1       4.686  14.614  17.849  0.00  0.00    +0.000 A 
ATOM     11  C   UNL     1       3.556  14.331  18.626  0.00  0.00    +0.000 A 
ATOM     12  N   UNL     1       2.379  13.816  18.087  0.00  0.00    +0.000 NA
ATOM     13  C   UNL     1       1.488  13.473  19.055  0.00  0.00    +0.000 A 
ENDROOT
BRANCH   2  14
ATOM     14  N   UNL     1       1.211  10.863  20.133  0.00  0.00    +0.000 N 
ATOM     15  C   UNL     1       0.669   9.612  20.344  0.00  0.00    +0.000 C 
ATOM     16  O   UNL     1      -0.406   9.409  20.890  0.00  0.00    +0.000 OA
ATOM     17  H   UNL     1       1.767  10.881  19.279  0.00  0.00    +0.000 HD
BRANCH  15  18
ATOM     18  C   UNL     1       1.483   8.454  19.821  0.00  0.00    +0.000 A 
ATOM     19  C   UNL     1       1.705   7.277  20.557  0.00  0.00    +0.000 A 
ATOM     20  C   UNL     1       2.391   6.199  19.984  0.00  0.00    +0.000 A 
ATOM     21  C   UNL     1       2.864   6.286  18.675  0.00  0.00    +0.000 A 
ATOM     22  C   UNL     1       2.685   7.461  17.951  0.00  0.00    +0.000 A 
ATOM     23  C   UNL     1       2.005   8.541  18.523  0.00  0.00    +0.000 A 
ENDBRANCH  15  18
ENDBRANCH   2  14
BRANCH   3  24
ATOM     24  S   UNL     1      -0.337  14.451  21.728  0.00  0.00    +0.000 S 
ATOM     25  O   UNL     1       0.121  14.670  23.084  0.00  0.00    +0.000 OA
ATOM     26  O   UNL     1      -0.245  15.486  20.718  0.00  0.00    +0.000 OA
BRANCH  24  27
ATOM     27  C   UNL     1      -2.029  13.877  21.802  0.00  0.00    +0.000 A 
ATOM     28  C   UNL     1      -2.989  14.414  20.931  0.00  0.00    +0.000 A 
ATOM     29  C   UNL     1      -4.335  14.035  21.050  0.00  0.00    +0.000 A 
ATOM     30  C   UNL     1      -4.736  13.140  22.050  0.00  0.00    +0.000 A 
ATOM     31  C   UNL     1      -6.187  12.800  22.251  0.00  0.00    +0.000 C 
ATOM     32  C   UNL     1      -3.759  12.569  22.876  0.00  0.00    +0.000 A 
ATOM     33  C   UNL     1      -2.416  12.938  22.759  0.00  0.00    +0.000 A 
ENDBRANCH  24  27
ENDBRANCH   3  24
BRANCH   1  34
ATOM     34  C   UNL     1      -1.042  12.670  18.499  0.00  0.00    +0.000 C 
BRANCH  34  35
ATOM     35  C   UNL     1      -2.109  11.575  18.491  0.00  0.00    +0.000 C 
BRANCH  35  37
ATOM     36  C   UNL     1      -2.409  10.182  16.342  0.00  0.00    +0.000 C 
ATOM     37  C   UNL     1      -1.894  10.256  17.771  0.00  0.00    +0.000 C 
ENDBRANCH  35  37
ENDBRANCH  34  35
ENDBRANCH   1  34
TORSDOF 7
ENDMDL
MODEL 3
REMARK VINA RESULT:      -7.7      5.806      9.718
REMARK  Name = 
REMARK  9 active torsions:
REMARK  status: ('A' for Active; 'I' for Inactive)
REMARK    1  A    between atoms: C_1  and  C_2
REMARK    2  A    between atoms: C_2  and  C_3
REMARK    3  A    between atoms: C_3  and  C_4
REMARK    4  A    between atoms: C_4  and  N_5
REMARK    5  A    between atoms: C_6  and  N_7
REMARK    6  A    between atoms: C_8  and  C_10
REMARK    7  A    between atoms: C_16  and  S_17
REMARK    8  A    between atoms: S_17  and  C_20
REMARK    9  A    between atoms: C_23  and  C_24
REMARK                            x       y       z     vdW  Elec       q    Type
REMARK                         _______ _______ _______ _____ _____    ______ ____
ROOT
ATOM      1  N   UNL     1       0.490  13.009  18.978  0.00  0.00    +0.000 N 
ATOM      2  C   UNL     1       0.539  12.285  20.197  0.00  0.00    +0.000 A 
ATOM      3  C   UNL     1       0.815  13.379  21.053  0.00  0.00    +0.000 A 
ATOM      4  C   UNL     1       1.946  13.861  20.408  0.00  0.00    +0.000 A 
ATOM      5  N   UNL     1       3.010  14.456  20.954  0.00  0.00    +0.000 NA
ATOM      6  C   UNL     1       3.965  14.729  20.091  0.00  0.00    +0.000 A 
ATOM      7  C   UNL     1       5.135  15.179  20.682  0.00  0.00    +0.000 A 
ATOM      8  C   UNL     1       6.260  15.427  19.921  0.00  0.00    +0.000 A 
ATOM      9  C   UNL     1       6.183  15.222  18.554  0.00  0.00    +0.000 A 
ATOM     10  C   UNL     1       4.974  14.795  17.954  0.00  0.00    +0.000 A 
ATOM     11  C   UNL     1       3.810  14.530  18.686  0.00  0.00    +0.000 A 
ATOM     12  N   UNL     1       2.639  14.060  18.095  0.00  0.00    +0.000 NA
ATOM     13  C   UNL     1       1.704  13.724  19.024  0.00  0.00    +0.000 A 
ENDROOT
BRANCH   2  14
ATOM     14  N   UNL     1       1.315  11.102  20.036  0.00  0.00    +0.000 N 
ATOM     15  C   UNL     1       0.695   9.871  19.965  0.00  0.00    +0.000 C 
ATOM     16  O   UNL     1      -0.475   9.671  20.258  0.00  0.00    +0.000 OA
ATOM     17  H   UNL     1       2.033  11.191  19.317  0.00  0.00    +0.000 HD
BRANCH  15  18
ATOM     18  C   UNL     1       1.554   8.739  19.459  0.00  0.00    +0.000 A 
ATOM     19  C   UNL     1       1.801   7.572  20.203  0.00  0.00    +0.000 A 
ATOM     20  C   UNL     1       2.530   6.515  19.644  0.00  0.00    +0.000 A 
ATOM     21  C   UNL     1       3.020   6.612  18.343  0.00  0.00    +0.000 A 
ATOM     22  C   UNL     1       2.815   7.779  17.611  0.00  0.00    +0.000 A 
ATOM     23  C   UNL     1       2.092   8.838  18.168  0.00  0.00    +0.000 A 
ENDBRANCH  15  18
ENDBRANCH   2  14
BRANCH   3  24
ATOM     24  S   UNL     1      -0.186  14.701  21.652  0.00  0.00    +0.000 S 
ATOM     25  O   UNL     1       0.258  14.906  23.015  0.00  0.00    +0.000 OA
ATOM     26  O   UNL     1      -0.062  15.738  20.647  0.00  0.00    +0.000 OA
BRANCH  24  27
ATOM     27  C   UNL     1      -1.889  14.157  21.701  0.00  0.00    +0.000 A 
ATOM     28  C   UNL     1      -2.251  13.059  22.495  0.00  0.00    +0.000 A 
ATOM     29  C   UNL     1      -3.567  12.571  22.461  0.00  0.00    +0.000 A 
ATOM     30  C   UNL     1      -4.521  13.158  21.621  0.00  0.00    +0.000 A 
ATOM     31  C   UNL     1      -5.907  12.586  21.503  0.00  0.00    +0.000 C 
ATOM     32  C   UNL     1      -4.160  14.288  20.876  0.00  0.00    +0.000 A 
ATOM     33  C   UNL     1      -2.853  14.781  20.908  0.00  0.00    +0.000 A 
ENDBRANCH  24  27
ENDBRANCH   3  24
BRANCH   1  34
ATOM     34  C   UNL     1      -0.826  13.006  18.362  0.00  0.00    +0.000 C 
BRANCH  34  35
ATOM     35  C   UNL     1      -1.730  11.870  17.882  0.00  0.00    +0.000 C 
BRANCH  35  37
ATOM     36  C   UNL     1      -3.970  10.595  17.812  0.00  0.00    +0.000 C 
ATOM     37  C   UNL     1      -3.073  11.591  18.531  0.00  0.00    +0.000 C 
ENDBRANCH  35  37
ENDBRANCH  34  35
ENDBRANCH   1  34
TORSDOF 7
ENDMDL
MODEL 4
REMARK VINA RESULT:      -7.7      5.840      9.577
REMARK  Name = 
REMARK  9 active torsions:
REMARK  status: ('A' for Active; 'I' for Inactive)
REMARK    1  A    between atoms: C_1  and  C_2
REMARK    2  A    between atoms: C_2  and  C_3
REMARK    3  A    between atoms: C_3  and  C_4
REMARK    4  A    between atoms: C_4  and  N_5
REMARK    5  A    between atoms: C_6  and  N_7
REMARK    6  A    between atoms: C_8  and  C_10
REMARK    7  A    between atoms: C_16  and  S_17
REMARK    8  A    between atoms: S_17  and  C_20
REMARK    9  A    between atoms: C_23  and  C_24
REMARK                            x       y       z     vdW  Elec       q    Type
REMARK                         _______ _______ _______ _____ _____    ______ ____
ROOT
ATOM      1  N   UNL     1       0.262  12.881  19.353  0.00  0.00    +0.000 N 
ATOM      2  C   UNL     1       0.481  12.186  20.571  0.00  0.00    +0.000 A 
ATOM      3  C   UNL     1       0.845  13.302  21.361  0.00  0.00    +0.000 A 
ATOM      4  C   UNL     1       1.874  13.788  20.566  0.00  0.00    +0.000 A 
ATOM      5  N   UNL     1       2.988  14.410  20.958  0.00  0.00    +0.000 NA
ATOM      6  C   UNL     1       3.820  14.678  19.974  0.00  0.00    +0.000 A 
ATOM      7  C   UNL     1       5.048  15.160  20.401  0.00  0.00    +0.000 A 
ATOM      8  C   UNL     1       6.061  15.408  19.496  0.00  0.00    +0.000 A 
ATOM      9  C   UNL     1       5.812  15.170  18.155  0.00  0.00    +0.000 A 
ATOM     10  C   UNL     1       4.545  14.712  17.724  0.00  0.00    +0.000 A 
ATOM     11  C   UNL     1       3.489  14.445  18.605  0.00  0.00    +0.000 A 
ATOM     12  N   UNL     1       2.260  13.944  18.180  0.00  0.00    +0.000 NA
ATOM     13  C   UNL     1       1.459  13.615  19.228  0.00  0.00    +0.000 A 
ENDROOT
BRANCH   2  14
ATOM     14  N   UNL     1       1.251  11.011  20.335  0.00  0.00    +0.000 N 
ATOM     15  C   UNL     1       0.667   9.766  20.448  0.00  0.00    +0.000 C 
ATOM     16  O   UNL     1      -0.424   9.560  20.961  0.00  0.00    +0.000 OA
ATOM     17  H   UNL     1       1.822  11.072  19.493  0.00  0.00    +0.000 HD
BRANCH  15  18
ATOM     18  C   UNL     1       1.454   8.623  19.855  0.00  0.00    +0.000 A 
ATOM     19  C   UNL     1       1.682   7.414  20.537  0.00  0.00    +0.000 A 
ATOM     20  C   UNL     1       2.341   6.354  19.901  0.00  0.00    +0.000 A 
ATOM     21  C   UNL     1       2.778   6.490  18.584  0.00  0.00    +0.000 A 
ATOM     22  C   UNL     1       2.593   7.696  17.914  0.00  0.00    +0.000 A 
ATOM     23  C   UNL     1       1.940   8.758  18.548  0.00  0.00    +0.000 A 
ENDBRANCH  15  18
ENDBRANCH   2  14
BRANCH   3  24
ATOM     24  S   UNL     1      -0.095  14.622  22.057  0.00  0.00    +0.000 S 
ATOM     25  O   UNL     1       0.790  15.227  23.030  0.00  0.00    +0.000 OA
ATOM     26  O   UNL     1      -0.588  15.363  20.912  0.00  0.00    +0.000 OA
BRANCH  24  27
ATOM     27  C   UNL     1      -1.494  13.934  22.934  0.00  0.00    +0.000 A 
ATOM     28  C   UNL     1      -1.722  12.549  22.912  0.00  0.00    +0.000 A 
ATOM     29  C   UNL     1      -2.870  12.017  23.518  0.00  0.00    +0.000 A 
ATOM     30  C   UNL     1      -3.808  12.860  24.127  0.00  0.00    +0.000 A 
ATOM     31  C   UNL     1      -5.089  12.313  24.695  0.00  0.00    +0.000 C 
ATOM     32  C   UNL     1      -3.540  14.233  24.190  0.00  0.00    +0.000 A 
ATOM     33  C   UNL     1      -2.396  14.770  23.592  0.00  0.00    +0.000 A 
ENDBRANCH  24  27
ENDBRANCH   3  24
BRANCH   1  34
ATOM     34  C   UNL     1      -1.121  12.844  18.913  0.00  0.00    +0.000 C 
BRANCH  34  35
ATOM     35  C   UNL     1      -2.053  11.685  18.557  0.00  0.00    +0.000 C 
BRANCH  35  37
ATOM     36  C   UNL     1      -2.518  10.014  16.649  0.00  0.00    +0.000 C 
ATOM     37  C   UNL     1      -1.575  10.499  17.739  0.00  0.00    +0.000 C 
ENDBRANCH  35  37
ENDBRANCH  34  35
ENDBRANCH   1  34
TORSDOF 7
ENDMDL
MODEL 5
REMARK VINA RESULT:      -7.6      5.409      7.937
REMARK  Name = 
REMARK  9 active torsions:
REMARK  status: ('A' for Active; 'I' for Inactive)
REMARK    1  A    between atoms: C_1  and  C_2
REMARK    2  A    between atoms: C_2  and  C_3
REMARK    3  A    between atoms: C_3  and  C_4
REMARK    4  A    between atoms: C_4  and  N_5
REMARK    5  A    between atoms: C_6  and  N_7
REMARK    6  A    between atoms: C_8  and  C_10
REMARK    7  A    between atoms: C_16  and  S_17
REMARK    8  A    between atoms: S_17  and  C_20
REMARK    9  A    between atoms: C_23  and  C_24
REMARK                            x       y       z     vdW  Elec       q    Type
REMARK                         _______ _______ _______ _____ _____    ______ ____
ROOT
ATOM      1  N   UNL     1      -0.928  11.235  19.069  0.00  0.00    +0.000 N 
ATOM      2  C   UNL     1       0.405  11.628  19.356  0.00  0.00    +0.000 A 
ATOM      3  C   UNL     1       0.477  11.101  20.668  0.00  0.00    +0.000 A 
ATOM      4  C   UNL     1      -0.635  11.735  21.203  0.00  0.00    +0.000 A 
ATOM      5  N   UNL     1      -0.814  12.157  22.457  0.00  0.00    +0.000 NA
ATOM      6  C   UNL     1      -1.946  12.802  22.644  0.00  0.00    +0.000 A 
ATOM      7  C   UNL     1      -2.049  13.392  23.894  0.00  0.00    +0.000 A 
ATOM      8  C   UNL     1      -3.139  14.177  24.216  0.00  0.00    +0.000 A 
ATOM      9  C   UNL     1      -4.126  14.349  23.260  0.00  0.00    +0.000 A 
ATOM     10  C   UNL     1      -4.029  13.714  21.999  0.00  0.00    +0.000 A 
ATOM     11  C   UNL     1      -2.943  12.912  21.628  0.00  0.00    +0.000 A 
ATOM     12  N   UNL     1      -2.829  12.333  20.366  0.00  0.00    +0.000 NA
ATOM     13  C   UNL     1      -1.619  11.739  20.190  0.00  0.00    +0.000 A 
ENDROOT
BRANCH   2  14
ATOM     14  N   UNL     1       0.616  12.979  18.959  0.00  0.00    +0.000 N 
ATOM     15  C   UNL     1       1.808  13.610  19.255  0.00  0.00    +0.000 C 
ATOM     16  O   UNL     1       2.638  13.179  20.042  0.00  0.00    +0.000 OA
ATOM     17  H   UNL     1       0.337  13.160  17.995  0.00  0.00    +0.000 HD
BRANCH  15  18
ATOM     18  C   UNL     1       2.065  14.896  18.509  0.00  0.00    +0.000 A 
ATOM     19  C   UNL     1       1.213  16.011  18.585  0.00  0.00    +0.000 A 
ATOM     20  C   UNL     1       1.552  17.209  17.944  0.00  0.00    +0.000 A 
ATOM     21  C   UNL     1       2.739  17.305  17.221  0.00  0.00    +0.000 A 
ATOM     22  C   UNL     1       3.571  16.195  17.105  0.00  0.00    +0.000 A 
ATOM     23  C   UNL     1       3.233  14.996  17.740  0.00  0.00    +0.000 A 
ENDBRANCH  15  18
ENDBRANCH   2  14
BRANCH   3  24
ATOM     24  S   UNL     1       0.623   9.454  21.280  0.00  0.00    +0.000 S 
ATOM     25  O   UNL     1       1.454   9.576  22.460  0.00  0.00    +0.000 OA
ATOM     26  O   UNL     1      -0.741   8.970  21.357  0.00  0.00    +0.000 OA
BRANCH  24  27
ATOM     27  C   UNL     1       1.508   8.469  20.078  0.00  0.00    +0.000 A 
ATOM     28  C   UNL     1       1.963   7.186  20.422  0.00  0.00    +0.000 A 
ATOM     29  C   UNL     1       2.740   6.450  19.515  0.00  0.00    +0.000 A 
ATOM     30  C   UNL     1       3.088   6.994  18.273  0.00  0.00    +0.000 A 
ATOM     31  C   UNL     1       3.999   6.256  17.331  0.00  0.00    +0.000 C 
ATOM     32  C   UNL     1       2.582   8.251  17.921  0.00  0.00    +0.000 A 
ATOM     33  C   UNL     1       1.804   8.989  18.818  0.00  0.00    +0.000 A 
ENDBRANCH  24  27
ENDBRANCH   3  24
BRANCH   1  34
ATOM     34  C   UNL     1      -1.019  10.256  18.000  0.00  0.00    +0.000 C 
BRANCH  34  35
ATOM     35  C   UNL     1      -2.157   9.879  17.050  0.00  0.00    +0.000 C 
BRANCH  35  37
ATOM     36  C   UNL     1      -3.268  10.196  14.745  0.00  0.00    +0.000 C 
ATOM     37  C   UNL     1      -2.654  10.835  15.981  0.00  0.00    +0.000 C 
ENDBRANCH  35  37
ENDBRANCH  34  35
ENDBRANCH   1  34
TORSDOF 7
ENDMDL
MODEL 6
REMARK VINA RESULT:      -7.6      5.782      9.463
REMARK  Name = 
REMARK  9 active torsions:
REMARK  status: ('A' for Active; 'I' for Inactive)
REMARK    1  A    between atoms: C_1  and  C_2
REMARK    2  A    between atoms: C_2  and  C_3
REMARK    3  A    between atoms: C_3  and  C_4
REMARK    4  A    between atoms: C_4  and  N_5
REMARK    5  A    between atoms: C_6  and  N_7
REMARK    6  A    between atoms: C_8  and  C_10
REMARK    7  A    between atoms: C_16  and  S_17
REMARK    8  A    between atoms: S_17  and  C_20
REMARK    9  A    between atoms: C_23  and  C_24
REMARK                            x       y       z     vdW  Elec       q    Type
REMARK                         _______ _______ _______ _____ _____    ______ ____
ROOT
ATOM      1  N   UNL     1       0.370  12.928  19.175  0.00  0.00    +0.000 N 
ATOM      2  C   UNL     1       0.539  12.182  20.370  0.00  0.00    +0.000 A 
ATOM      3  C   UNL     1       0.898  13.261  21.214  0.00  0.00    +0.000 A 
ATOM      4  C   UNL     1       1.958  13.758  20.470  0.00  0.00    +0.000 A 
ATOM      5  N   UNL     1       3.070  14.346  20.918  0.00  0.00    +0.000 NA
ATOM      6  C   UNL     1       3.936  14.637  19.971  0.00  0.00    +0.000 A 
ATOM      7  C   UNL     1       5.158  15.080  20.452  0.00  0.00    +0.000 A 
ATOM      8  C   UNL     1       6.202  15.345  19.589  0.00  0.00    +0.000 A 
ATOM      9  C   UNL     1       5.990  15.164  18.232  0.00  0.00    +0.000 A 
ATOM     10  C   UNL     1       4.729  14.745  17.747  0.00  0.00    +0.000 A 
ATOM     11  C   UNL     1       3.643  14.463  18.584  0.00  0.00    +0.000 A 
ATOM     12  N   UNL     1       2.419  14.001  18.103  0.00  0.00    +0.000 NA
ATOM     13  C   UNL     1       1.581  13.645  19.114  0.00  0.00    +0.000 A 
ENDROOT
BRANCH   2  14
ATOM     14  N   UNL     1       1.297  11.004  20.111  0.00  0.00    +0.000 N 
ATOM     15  C   UNL     1       0.733   9.761  20.310  0.00  0.00    +0.000 C 
ATOM     16  O   UNL     1      -0.311   9.566  20.916  0.00  0.00    +0.000 OA
ATOM     17  H   UNL     1       1.799  11.040  19.224  0.00  0.00    +0.000 HD
BRANCH  15  18
ATOM     18  C   UNL     1       1.478   8.603  19.694  0.00  0.00    +0.000 A 
ATOM     19  C   UNL     1       2.016   8.640  18.395  0.00  0.00    +0.000 A 
ATOM     20  C   UNL     1       2.778   7.569  17.911  0.00  0.00    +0.000 A 
ATOM     21  C   UNL     1       3.009   6.453  18.714  0.00  0.00    +0.000 A 
ATOM     22  C   UNL     1       2.448   6.388  19.987  0.00  0.00    +0.000 A 
ATOM     23  C   UNL     1       1.682   7.454  20.471  0.00  0.00    +0.000 A 
ENDBRANCH  15  18
ENDBRANCH   2  14
BRANCH   3  24
ATOM     24  S   UNL     1      -0.041  14.569  21.933  0.00  0.00    +0.000 S 
ATOM     25  O   UNL     1       0.794  15.071  23.004  0.00  0.00    +0.000 OA
ATOM     26  O   UNL     1      -0.423  15.404  20.811  0.00  0.00    +0.000 OA
BRANCH  24  27
ATOM     27  C   UNL     1      -1.523  13.882  22.662  0.00  0.00    +0.000 A 
ATOM     28  C   UNL     1      -2.541  14.735  23.115  0.00  0.00    +0.000 A 
ATOM     29  C   UNL     1      -3.661  14.204  23.772  0.00  0.00    +0.000 A 
ATOM     30  C   UNL     1      -3.762  12.827  24.005  0.00  0.00    +0.000 A 
ATOM     31  C   UNL     1      -4.909  12.256  24.792  0.00  0.00    +0.000 C 
ATOM     32  C   UNL     1      -2.767  11.982  23.499  0.00  0.00    +0.000 A 
ATOM     33  C   UNL     1      -1.650  12.504  22.838  0.00  0.00    +0.000 A 
ENDBRANCH  24  27
ENDBRANCH   3  24
BRANCH   1  34
ATOM     34  C   UNL     1      -1.001  12.932  18.692  0.00  0.00    +0.000 C 
BRANCH  34  35
ATOM     35  C   UNL     1      -1.740  12.036  17.699  0.00  0.00    +0.000 C 
BRANCH  35  37
ATOM     36  C   UNL     1      -2.517   9.752  16.786  0.00  0.00    +0.000 C 
ATOM     37  C   UNL     1      -1.647  10.522  17.768  0.00  0.00    +0.000 C 
ENDBRANCH  35  37
ENDBRANCH  34  35
ENDBRANCH   1  34
TORSDOF 7
ENDMDL
MODEL 7
REMARK VINA RESULT:      -7.5      0.289      1.170
REMARK  Name = 
REMARK  9 active torsions:
REMARK  status: ('A' for Active; 'I' for Inactive)
REMARK    1  A    between atoms: C_1  and  C_2
REMARK    2  A    between atoms: C_2  and  C_3
REMARK    3  A    between atoms: C_3  and  C_4
REMARK    4  A    between atoms: C_4  and  N_5
REMARK    5  A    between atoms: C_6  and  N_7
REMARK    6  A    between atoms: C_8  and  C_10
REMARK    7  A    between atoms: C_16  and  S_17
REMARK    8  A    between atoms: S_17  and  C_20
REMARK    9  A    between atoms: C_23  and  C_24
REMARK                            x       y       z     vdW  Elec       q    Type
REMARK                         _______ _______ _______ _____ _____    ______ ____
ROOT
ATOM      1  N   UNL     1       4.828   6.821  16.586  0.00  0.00    +0.000 N 
ATOM      2  C   UNL     1       5.639   6.345  17.649  0.00  0.00    +0.000 A 
ATOM      3  C   UNL     1       4.643   5.599  18.324  0.00  0.00    +0.000 A 
ATOM      4  C   UNL     1       3.702   6.607  18.476  0.00  0.00    +0.000 A 
ATOM      5  N   UNL     1       2.838   6.778  19.481  0.00  0.00    +0.000 NA
ATOM      6  C   UNL     1       2.125   7.880  19.386  0.00  0.00    +0.000 A 
ATOM      7  C   UNL     1       1.362   8.145  20.512  0.00  0.00    +0.000 A 
ATOM      8  C   UNL     1       0.623   9.308  20.606  0.00  0.00    +0.000 A 
ATOM      9  C   UNL     1       0.660  10.193  19.541  0.00  0.00    +0.000 A 
ATOM     10  C   UNL     1       1.415   9.898  18.382  0.00  0.00    +0.000 A 
ATOM     11  C   UNL     1       2.180   8.733  18.243  0.00  0.00    +0.000 A 
ATOM     12  N   UNL     1       2.961   8.473  17.119  0.00  0.00    +0.000 NA
ATOM     13  C   UNL     1       3.734   7.366  17.286  0.00  0.00    +0.000 A 
ENDROOT
BRANCH   2  14
ATOM     14  N   UNL     1       6.426   7.406  18.180  0.00  0.00    +0.000 N 
ATOM     15  C   UNL     1       7.553   7.836  17.509  0.00  0.00    +0.000 C 
ATOM     16  O   UNL     1       8.080   7.228  16.588  0.00  0.00    +0.000 OA
ATOM     17  H   UNL     1       5.867   8.198  18.498  0.00  0.00    +0.000 HD
BRANCH  15  18
ATOM     18  C   UNL     1       8.113   9.162  17.960  0.00  0.00    +0.000 A 
ATOM     19  C   UNL     1       9.053   9.285  18.999  0.00  0.00    +0.000 A 
ATOM     20  C   UNL     1       9.606  10.533  19.312  0.00  0.00    +0.000 A 
ATOM     21  C   UNL     1       9.227  11.667  18.597  0.00  0.00    +0.000 A 
ATOM     22  C   UNL     1       8.266  11.564  17.593  0.00  0.00    +0.000 A 
ATOM     23  C   UNL     1       7.709  10.320  17.282  0.00  0.00    +0.000 A 
ENDBRANCH  15  18
ENDBRANCH   2  14
BRANCH   3  24
ATOM     24  S   UNL     1       3.867   4.057  17.966  0.00  0.00    +0.000 S 
ATOM     25  O   UNL     1       2.912   4.362  16.921  0.00  0.00    +0.000 OA
ATOM     26  O   UNL     1       4.967   3.137  17.747  0.00  0.00    +0.000 OA
BRANCH  24  27
ATOM     27  C   UNL     1       2.957   3.521  19.409  0.00  0.00    +0.000 A 
ATOM     28  C   UNL     1       3.634   2.916  20.479  0.00  0.00    +0.000 A 
ATOM     29  C   UNL     1       2.911   2.409  21.571  0.00  0.00    +0.000 A 
ATOM     30  C   UNL     1       1.513   2.478  21.590  0.00  0.00    +0.000 A 
ATOM     31  C   UNL     1       0.721   1.853  22.706  0.00  0.00    +0.000 C 
ATOM     32  C   UNL     1       0.854   3.133  20.542  0.00  0.00    +0.000 A 
ATOM     33  C   UNL     1       1.568   3.645  19.454  0.00  0.00    +0.000 A 
ENDBRANCH  24  27
ENDBRANCH   3  24
BRANCH   1  34
ATOM     34  C   UNL     1       5.229   6.309  15.287  0.00  0.00    +0.000 C 
BRANCH  34  35
ATOM     35  C   UNL     1       6.196   5.197  14.877  0.00  0.00    +0.000 C 
BRANCH  35  37
ATOM     36  C   UNL     1       6.012   3.635  12.834  0.00  0.00    +0.000 C 
ATOM     37  C   UNL     1       5.701   3.882  14.302  0.00  0.00    +0.000 C 
ENDBRANCH  35  37
ENDBRANCH  34  35
ENDBRANCH   1  34
TORSDOF 7
ENDMDL
MODEL 8
REMARK VINA RESULT:      -7.5      5.915      9.870
REMARK  Name = 
REMARK  9 active torsions:
REMARK  status: ('A' for Active; 'I' for Inactive)
REMARK    1  A    between atoms: C_1  and  C_2
REMARK    2  A    between atoms: C_2  and  C_3
REMARK    3  A    between atoms: C_3  and  C_4
REMARK    4  A    between atoms: C_4  and  N_5
REMARK    5  A    between atoms: C_6  and  N_7
REMARK    6  A    between atoms: C_8  and  C_10
REMARK    7  A    between atoms: C_16  and  S_17
REMARK    8  A    between atoms: S_17  and  C_20
REMARK    9  A    between atoms: C_23  and  C_24
REMARK                            x       y       z     vdW  Elec       q    Type
REMARK                         _______ _______ _______ _____ _____    ______ ____
ROOT
ATOM      1  N   UNL     1       0.176  12.757  19.272  0.00  0.00    +0.000 N 
ATOM      2  C   UNL     1       0.361  12.100  20.516  0.00  0.00    +0.000 A 
ATOM      3  C   UNL     1       0.689  13.243  21.284  0.00  0.00    +0.000 A 
ATOM      4  C   UNL     1       1.739  13.715  20.509  0.00  0.00    +0.000 A 
ATOM      5  N   UNL     1       2.834  14.360  20.917  0.00  0.00    +0.000 NA
ATOM      6  C   UNL     1       3.695  14.607  19.953  0.00  0.00    +0.000 A 
ATOM      7  C   UNL     1       4.904  15.113  20.404  0.00  0.00    +0.000 A 
ATOM      8  C   UNL     1       5.944  15.344  19.526  0.00  0.00    +0.000 A 
ATOM      9  C   UNL     1       5.741  15.065  18.185  0.00  0.00    +0.000 A 
ATOM     10  C   UNL     1       4.493  14.581  17.728  0.00  0.00    +0.000 A 
ATOM     11  C   UNL     1       3.411  14.330  18.582  0.00  0.00    +0.000 A 
ATOM     12  N   UNL     1       2.201  13.805  18.132  0.00  0.00    +0.000 NA
ATOM     13  C   UNL     1       1.369  13.499  19.163  0.00  0.00    +0.000 A 
ENDROOT
BRANCH   2  14
ATOM     14  N   UNL     1       1.148  10.927  20.341  0.00  0.00    +0.000 N 
ATOM     15  C   UNL     1       0.588   9.681  20.535  0.00  0.00    +0.000 C 
ATOM     16  O   UNL     1      -0.493   9.488  21.074  0.00  0.00    +0.000 OA
ATOM     17  H   UNL     1       1.709  10.947  19.489  0.00  0.00    +0.000 HD
BRANCH  15  18
ATOM     18  C   UNL     1       1.388   8.518  20.001  0.00  0.00    +0.000 A 
ATOM     19  C   UNL     1       1.543   7.308  20.701  0.00  0.00    +0.000 A 
ATOM     20  C   UNL     1       2.219   6.231  20.115  0.00  0.00    +0.000 A 
ATOM     21  C   UNL     1       2.748   6.350  18.830  0.00  0.00    +0.000 A 
ATOM     22  C   UNL     1       2.635   7.557  18.145  0.00  0.00    +0.000 A 
ATOM     23  C   UNL     1       1.965   8.636  18.729  0.00  0.00    +0.000 A 
ENDBRANCH  15  18
ENDBRANCH   2  14
BRANCH   3  24
ATOM     24  S   UNL     1      -0.285  14.574  21.910  0.00  0.00    +0.000 S 
ATOM     25  O   UNL     1       0.392  14.981  23.123  0.00  0.00    +0.000 OA
ATOM     26  O   UNL     1      -0.438  15.475  20.784  0.00  0.00    +0.000 OA
BRANCH  24  27
ATOM     27  C   UNL     1      -1.898  13.946  22.359  0.00  0.00    +0.000 A 
ATOM     28  C   UNL     1      -3.053  14.650  21.985  0.00  0.00    +0.000 A 
ATOM     29  C   UNL     1      -4.314  14.211  22.417  0.00  0.00    +0.000 A 
ATOM     30  C   UNL     1      -4.430  13.087  23.243  0.00  0.00    +0.000 A 
ATOM     31  C   UNL     1      -5.765  12.662  23.792  0.00  0.00    +0.000 C 
ATOM     32  C   UNL     1      -3.275  12.361  23.563  0.00  0.00    +0.000 A 
ATOM     33  C   UNL     1      -2.016  12.790  23.131  0.00  0.00    +0.000 A 
ENDBRANCH  24  27
ENDBRANCH   3  24
BRANCH   1  34
ATOM     34  C   UNL     1      -1.193  12.693  18.788  0.00  0.00    +0.000 C 
BRANCH  34  35
ATOM     35  C   UNL     1      -2.466  12.098  19.391  0.00  0.00    +0.000 C 
BRANCH  35  37
ATOM     36  C   UNL     1      -5.041  12.132  19.249  0.00  0.00    +0.000 C 
ATOM     37  C   UNL     1      -3.712  11.870  18.555  0.00  0.00    +0.000 C 
ENDBRANCH  35  37
ENDBRANCH  34  35
ENDBRANCH   1  34
TORSDOF 7
ENDMDL
MODEL 9
REMARK VINA RESULT:      -7.4      5.392      7.983
REMARK  Name = 
REMARK  9 active torsions:
REMARK  status: ('A' for Active; 'I' for Inactive)
REMARK    1  A    between atoms: C_1  and  C_2
REMARK    2  A    between atoms: C_2  and  C_3
REMARK    3  A    between atoms: C_3  and  C_4
REMARK    4  A    between atoms: C_4  and  N_5
REMARK    5  A    between atoms: C_6  and  N_7
REMARK    6  A    between atoms: C_8  and  C_10
REMARK    7  A    between atoms: C_16  and  S_17
REMARK    8  A    between atoms: S_17  and  C_20
REMARK    9  A    between atoms: C_23  and  C_24
REMARK                            x       y       z     vdW  Elec       q    Type
REMARK                         _______ _______ _______ _____ _____    ______ ____
ROOT
ATOM      1  N   UNL     1      -0.912  11.209  19.089  0.00  0.00    +0.000 N 
ATOM      2  C   UNL     1       0.437  11.542  19.377  0.00  0.00    +0.000 A 
ATOM      3  C   UNL     1       0.474  11.044  20.702  0.00  0.00    +0.000 A 
ATOM      4  C   UNL     1      -0.610  11.746  21.213  0.00  0.00    +0.000 A 
ATOM      5  N   UNL     1      -0.776  12.206  22.455  0.00  0.00    +0.000 NA
ATOM      6  C   UNL     1      -1.876  12.910  22.617  0.00  0.00    +0.000 A 
ATOM      7  C   UNL     1      -1.959  13.534  23.852  0.00  0.00    +0.000 A 
ATOM      8  C   UNL     1      -3.010  14.379  24.146  0.00  0.00    +0.000 A 
ATOM      9  C   UNL     1      -3.981  14.576  23.178  0.00  0.00    +0.000 A 
ATOM     10  C   UNL     1      -3.907  13.908  21.933  0.00  0.00    +0.000 A 
ATOM     11  C   UNL     1      -2.859  13.044  21.591  0.00  0.00    +0.000 A 
ATOM     12  N   UNL     1      -2.765  12.429  20.343  0.00  0.00    +0.000 NA
ATOM     13  C   UNL     1      -1.584  11.773  20.191  0.00  0.00    +0.000 A 
ENDROOT
BRANCH   2  14
ATOM     14  N   UNL     1       0.718  12.872  18.950  0.00  0.00    +0.000 N 
ATOM     15  C   UNL     1       1.832  13.532  19.425  0.00  0.00    +0.000 C 
ATOM     16  O   UNL     1       2.503  13.155  20.376  0.00  0.00    +0.000 OA
ATOM     17  H   UNL     1       0.623  12.995  17.942  0.00  0.00    +0.000 HD
BRANCH  15  18
ATOM     18  C   UNL     1       2.223  14.777  18.668  0.00  0.00    +0.000 A 
ATOM     19  C   UNL     1       3.326  14.831  17.798  0.00  0.00    +0.000 A 
ATOM     20  C   UNL     1       3.586  15.987  17.052  0.00  0.00    +0.000 A 
ATOM     21  C   UNL     1       2.751  17.098  17.167  0.00  0.00    +0.000 A 
ATOM     22  C   UNL     1       1.679  17.069  18.055  0.00  0.00    +0.000 A 
ATOM     23  C   UNL     1       1.421  15.918  18.805  0.00  0.00    +0.000 A 
ENDBRANCH  15  18
ENDBRANCH   2  14
BRANCH   3  24
ATOM     24  S   UNL     1       0.534   9.408  21.354  0.00  0.00    +0.000 S 
ATOM     25  O   UNL     1       1.245   9.541  22.608  0.00  0.00    +0.000 OA
ATOM     26  O   UNL     1      -0.838   8.943  21.303  0.00  0.00    +0.000 OA
BRANCH  24  27
ATOM     27  C   UNL     1       1.521   8.389  20.264  0.00  0.00    +0.000 A 
ATOM     28  C   UNL     1       1.909   8.879  19.008  0.00  0.00    +0.000 A 
ATOM     29  C   UNL     1       2.601   8.048  18.113  0.00  0.00    +0.000 A 
ATOM     30  C   UNL     1       2.887   6.721  18.453  0.00  0.00    +0.000 A 
ATOM     31  C   UNL     1       3.542   5.792  17.468  0.00  0.00    +0.000 C 
ATOM     32  C   UNL     1       2.543   6.262  19.731  0.00  0.00    +0.000 A 
ATOM     33  C   UNL     1       1.858   7.085  20.629  0.00  0.00    +0.000 A 
ENDBRANCH  24  27
ENDBRANCH   3  24
BRANCH   1  34
ATOM     34  C   UNL     1      -1.044  10.210  18.042  0.00  0.00    +0.000 C 
BRANCH  34  35
ATOM     35  C   UNL     1      -2.202   9.846  17.113  0.00  0.00    +0.000 C 
BRANCH  35  37
ATOM     36  C   UNL     1      -4.377  11.165  16.688  0.00  0.00    +0.000 C 
ATOM     37  C   UNL     1      -3.647  10.106  17.500  0.00  0.00    +0.000 C 
ENDBRANCH  35  37
ENDBRANCH  34  35
ENDBRANCH   1  34
TORSDOF 7
ENDMDL
