MODEL 1
REMARK VINA RESULT:      -6.3      0.000      0.000
REMARK  Name = 
REMARK  11 active torsions:
REMARK  status: ('A' for Active; 'I' for Inactive)
REMARK    1  A    between atoms: C_1  and  C_2
REMARK    2  A    between atoms: C_2  and  C_11
REMARK    3  A    between atoms: C_3  and  C_4
REMARK    4  A    between atoms: C_4  and  S_5
REMARK    5  A    between atoms: S_5  and  C_6
REMARK    6  A    between atoms: C_6  and  C_7
REMARK    7  A    between atoms: C_7  and  C_8
REMARK    8  A    between atoms: C_8  and  O_10
REMARK    9  A    between atoms: C_11  and  C_12
REMARK   10  A    between atoms: C_12  and  N_13
REMARK   11  A    between atoms: C_15  and  C_16
REMARK                            x       y       z     vdW  Elec       q    Type
REMARK                         _______ _______ _______ _____ _____    ______ ____
ROOT
ATOM      1  C   UNL     1       1.578   2.343  19.365  0.00  0.00    +0.000 C 
ENDROOT
BRANCH   1   3
ATOM      2  C   UNL     1       1.946   3.170  21.734  0.00  0.00    +0.000 C 
ATOM      3  C   UNL     1       1.692   3.545  20.295  0.00  0.00    +0.000 C 
ATOM      4  C   UNL     1       1.570   4.818  19.862  0.00  0.00    +0.000 C 
BRANCH   4   5
ATOM      5  C   UNL     1       1.569   6.068  20.694  0.00  0.00    +0.000 C 
BRANCH   5   6
ATOM      6  S   UNL     1       2.172   7.483  19.712  0.00  0.00    +0.000 S 
BRANCH   6   7
ATOM      7  C   UNL     1       1.126   8.808  20.412  0.00  0.00    +0.000 C 
BRANCH   7   8
ATOM      8  C   UNL     1       1.120   8.690  21.930  0.00  0.00    +0.000 C 
BRANCH   8   9
ATOM      9  C   UNL     1       0.161   9.681  22.536  0.00  0.00    +0.000 C 
ATOM     10  O   UNL     1      -0.622  10.377  21.910  0.00  0.00    +0.000 OA
BRANCH   9  11
ATOM     11  O   UNL     1       0.250   9.725  23.885  0.00  0.00    +0.000 OA
ATOM     12  H   UNL     1       0.444   8.861  24.296  0.00  0.00    +0.000 HD
ENDBRANCH   9  11
ENDBRANCH   8   9
ENDBRANCH   7   8
ENDBRANCH   6   7
ENDBRANCH   5   6
ENDBRANCH   4   5
ENDBRANCH   1   3
BRANCH   1  13
ATOM     13  C   UNL     1       2.878   1.874  18.706  0.00  0.00    +0.000 C 
BRANCH  13  14
ATOM     14  N   UNL     1       3.659   2.968  18.174  0.00  0.00    +0.000 N 
ATOM     15  C   UNL     1       4.719   3.597  18.753  0.00  0.00    +0.000 A 
ATOM     16  C   UNL     1       5.029   4.594  17.859  0.00  0.00    +0.000 A 
ATOM     17  N   UNL     1       4.167   4.542  16.797  0.00  0.00    +0.000 NA
ATOM     18  N   UNL     1       3.318   3.543  17.008  0.00  0.00    +0.000 NA
BRANCH  16  19
ATOM     19  C   UNL     1       6.082   5.603  17.936  0.00  0.00    +0.000 A 
ATOM     20  C   UNL     1       7.148   5.533  18.879  0.00  0.00    +0.000 A 
ATOM     21  C   UNL     1       8.017   6.598  18.763  0.00  0.00    +0.000 A 
ATOM     22  S   UNL     1       7.550   7.675  17.517  0.00  0.00    +0.000 S 
ATOM     23  C   UNL     1       6.181   6.718  17.130  0.00  0.00    +0.000 A 
ENDBRANCH  16  19
ENDBRANCH  13  14
ENDBRANCH   1  13
TORSDOF 10
ENDMDL
MODEL 2
REMARK VINA RESULT:      -6.3      4.553      5.838
REMARK  Name = 
REMARK  11 active torsions:
REMARK  status: ('A' for Active; 'I' for Inactive)
REMARK    1  A    between atoms: C_1  and  C_2
REMARK    2  A    between atoms: C_2  and  C_11
REMARK    3  A    between atoms: C_3  and  C_4
REMARK    4  A    between atoms: C_4  and  S_5
REMARK    5  A    between atoms: S_5  and  C_6
REMARK    6  A    between atoms: C_6  and  C_7
REMARK    7  A    between atoms: C_7  and  C_8
REMARK    8  A    between atoms: C_8  and  O_10
REMARK    9  A    between atoms: C_11  and  C_12
REMARK   10  A    between atoms: C_12  and  N_13
REMARK   11  A    between atoms: C_15  and  C_16
REMARK                            x       y       z     vdW  Elec       q    Type
REMARK                         _______ _______ _______ _____ _____    ______ ____
ROOT
ATOM      1  C   UNL     1       5.700   4.581  18.251  0.00  0.00    +0.000 C 
ENDROOT
BRANCH   1   3
ATOM      2  C   UNL     1       3.838   6.303  18.271  0.00  0.00    +0.000 C 
ATOM      3  C   UNL     1       4.211   4.854  18.074  0.00  0.00    +0.000 C 
ATOM      4  C   UNL     1       3.320   3.885  17.777  0.00  0.00    +0.000 C 
BRANCH   4   5
ATOM      5  C   UNL     1       1.828   4.018  17.673  0.00  0.00    +0.000 C 
BRANCH   5   6
ATOM      6  S   UNL     1       1.008   2.925  18.883  0.00  0.00    +0.000 S 
BRANCH   6   7
ATOM      7  C   UNL     1       0.810   4.099  20.269  0.00  0.00    +0.000 C 
BRANCH   7   8
ATOM      8  C   UNL     1       2.106   4.155  21.067  0.00  0.00    +0.000 C 
BRANCH   8   9
ATOM      9  C   UNL     1       2.395   2.821  21.703  0.00  0.00    +0.000 C 
ATOM     10  O   UNL     1       3.464   2.234  21.654  0.00  0.00    +0.000 OA
BRANCH   9  11
ATOM     11  O   UNL     1       1.324   2.322  22.361  0.00  0.00    +0.000 OA
ATOM     12  H   UNL     1       0.792   1.696  21.832  0.00  0.00    +0.000 HD
ENDBRANCH   9  11
ENDBRANCH   8   9
ENDBRANCH   7   8
ENDBRANCH   6   7
ENDBRANCH   5   6
ENDBRANCH   4   5
ENDBRANCH   1   3
BRANCH   1  13
ATOM     13  C   UNL     1       6.651   5.492  17.469  0.00  0.00    +0.000 C 
BRANCH  13  14
ATOM     14  N   UNL     1       6.704   5.165  16.062  0.00  0.00    +0.000 N 
ATOM     15  C   UNL     1       5.962   4.244  15.390  0.00  0.00    +0.000 A 
ATOM     16  C   UNL     1       6.465   4.295  14.111  0.00  0.00    +0.000 A 
ATOM     17  N   UNL     1       7.474   5.218  14.053  0.00  0.00    +0.000 NA
ATOM     18  N   UNL     1       7.621   5.740  15.265  0.00  0.00    +0.000 NA
BRANCH  16  19
ATOM     19  C   UNL     1       6.068   3.527  12.935  0.00  0.00    +0.000 A 
ATOM     20  C   UNL     1       4.747   3.568  12.399  0.00  0.00    +0.000 A 
ATOM     21  C   UNL     1       4.611   2.759  11.290  0.00  0.00    +0.000 A 
ATOM     22  S   UNL     1       6.071   1.959  10.894  0.00  0.00    +0.000 S 
ATOM     23  C   UNL     1       6.891   2.692  12.209  0.00  0.00    +0.000 A 
ENDBRANCH  16  19
ENDBRANCH  13  14
ENDBRANCH   1  13
TORSDOF 10
ENDMDL
MODEL 3
REMARK VINA RESULT:      -6.1      4.220      5.806
REMARK  Name = 
REMARK  11 active torsions:
REMARK  status: ('A' for Active; 'I' for Inactive)
REMARK    1  A    between atoms: C_1  and  C_2
REMARK    2  A    between atoms: C_2  and  C_11
REMARK    3  A    between atoms: C_3  and  C_4
REMARK    4  A    between atoms: C_4  and  S_5
REMARK    5  A    between atoms: S_5  and  C_6
REMARK    6  A    between atoms: C_6  and  C_7
REMARK    7  A    between atoms: C_7  and  C_8
REMARK    8  A    between atoms: C_8  and  O_10
REMARK    9  A    between atoms: C_11  and  C_12
REMARK   10  A    between atoms: C_12  and  N_13
REMARK   11  A    between atoms: C_15  and  C_16
REMARK                            x       y       z     vdW  Elec       q    Type
REMARK                         _______ _______ _______ _____ _____    ______ ____
ROOT
ATOM      1  C   UNL     1       4.103   6.629  17.480  0.00  0.00    +0.000 C 
ENDROOT
BRANCH   1   3
ATOM      2  C   UNL     1       3.156   5.951  19.733  0.00  0.00    +0.000 C 
ATOM      3  C   UNL     1       3.954   5.529  18.525  0.00  0.00    +0.000 C 
ATOM      4  C   UNL     1       4.493   4.301  18.374  0.00  0.00    +0.000 C 
BRANCH   4   5
ATOM      5  C   UNL     1       4.493   3.176  19.369  0.00  0.00    +0.000 C 
BRANCH   5   6
ATOM      6  S   UNL     1       3.599   1.735  18.696  0.00  0.00    +0.000 S 
BRANCH   6   7
ATOM      7  C   UNL     1       1.942   2.475  18.482  0.00  0.00    +0.000 C 
BRANCH   7   8
ATOM      8  C   UNL     1       1.035   2.006  19.612  0.00  0.00    +0.000 C 
BRANCH   8   9
ATOM      9  C   UNL     1       1.111   2.951  20.782  0.00  0.00    +0.000 C 
ATOM     10  O   UNL     1       1.643   2.706  21.852  0.00  0.00    +0.000 OA
BRANCH   9  11
ATOM     11  O   UNL     1       0.519   4.140  20.522  0.00  0.00    +0.000 OA
ATOM     12  H   UNL     1       0.592   4.785  21.252  0.00  0.00    +0.000 HD
ENDBRANCH   9  11
ENDBRANCH   8   9
ENDBRANCH   7   8
ENDBRANCH   6   7
ENDBRANCH   5   6
ENDBRANCH   4   5
ENDBRANCH   1   3
BRANCH   1  13
ATOM     13  C   UNL     1       5.538   7.032  17.125  0.00  0.00    +0.000 C 
BRANCH  13  14
ATOM     14  N   UNL     1       6.092   6.232  16.057  0.00  0.00    +0.000 N 
ATOM     15  C   UNL     1       5.420   5.547  15.090  0.00  0.00    +0.000 A 
ATOM     16  C   UNL     1       6.420   4.913  14.392  0.00  0.00    +0.000 A 
ATOM     17  N   UNL     1       7.633   5.220  14.946  0.00  0.00    +0.000 NA
ATOM     18  N   UNL     1       7.418   6.025  15.980  0.00  0.00    +0.000 NA
BRANCH  16  19
ATOM     19  C   UNL     1       6.314   4.025  13.237  0.00  0.00    +0.000 A 
ATOM     20  C   UNL     1       5.079   3.445  12.823  0.00  0.00    +0.000 A 
ATOM     21  C   UNL     1       5.230   2.642  11.711  0.00  0.00    +0.000 A 
ATOM     22  S   UNL     1       6.852   2.594  11.167  0.00  0.00    +0.000 S 
ATOM     23  C   UNL     1       7.359   3.647  12.420  0.00  0.00    +0.000 A 
ENDBRANCH  16  19
ENDBRANCH  13  14
ENDBRANCH   1  13
TORSDOF 10
ENDMDL
MODEL 4
REMARK VINA RESULT:      -6.1      4.441      5.989
REMARK  Name = 
REMARK  11 active torsions:
REMARK  status: ('A' for Active; 'I' for Inactive)
REMARK    1  A    between atoms: C_1  and  C_2
REMARK    2  A    between atoms: C_2  and  C_11
REMARK    3  A    between atoms: C_3  and  C_4
REMARK    4  A    between atoms: C_4  and  S_5
REMARK    5  A    between atoms: S_5  and  C_6
REMARK    6  A    between atoms: C_6  and  C_7
REMARK    7  A    between atoms: C_7  and  C_8
REMARK    8  A    between atoms: C_8  and  O_10
REMARK    9  A    between atoms: C_11  and  C_12
REMARK   10  A    between atoms: C_12  and  N_13
REMARK   11  A    between atoms: C_15  and  C_16
REMARK                            x       y       z     vdW  Elec       q    Type
REMARK                         _______ _______ _______ _____ _____    ______ ____
ROOT
ATOM      1  C   UNL     1       3.689   7.075  17.505  0.00  0.00    +0.000 C 
ENDROOT
BRANCH   1   3
ATOM      2  C   UNL     1       2.129   8.163  19.183  0.00  0.00    +0.000 C 
ATOM      3  C   UNL     1       2.783   6.886  18.716  0.00  0.00    +0.000 C 
ATOM      4  C   UNL     1       2.597   5.687  19.309  0.00  0.00    +0.000 C 
BRANCH   4   5
ATOM      5  C   UNL     1       1.809   5.399  20.555  0.00  0.00    +0.000 C 
BRANCH   5   6
ATOM      6  S   UNL     1       1.692   3.598  20.828  0.00  0.00    +0.000 S 
BRANCH   6   7
ATOM      7  C   UNL     1       1.793   3.020  19.097  0.00  0.00    +0.000 C 
BRANCH   7   8
ATOM      8  C   UNL     1       2.766   1.851  19.017  0.00  0.00    +0.000 C 
BRANCH   8   9
ATOM      9  C   UNL     1       4.178   2.319  19.249  0.00  0.00    +0.000 C 
ATOM     10  O   UNL     1       4.850   2.066  20.236  0.00  0.00    +0.000 OA
BRANCH   9  11
ATOM     11  O   UNL     1       4.648   3.066  18.224  0.00  0.00    +0.000 OA
ATOM     12  H   UNL     1       3.953   3.544  17.733  0.00  0.00    +0.000 HD
ENDBRANCH   9  11
ENDBRANCH   8   9
ENDBRANCH   7   8
ENDBRANCH   6   7
ENDBRANCH   5   6
ENDBRANCH   4   5
ENDBRANCH   1   3
BRANCH   1  13
ATOM     13  C   UNL     1       5.186   6.851  17.741  0.00  0.00    +0.000 C 
BRANCH  13  14
ATOM     14  N   UNL     1       5.840   6.231  16.611  0.00  0.00    +0.000 N 
ATOM     15  C   UNL     1       5.266   5.537  15.589  0.00  0.00    +0.000 A 
ATOM     16  C   UNL     1       6.341   5.116  14.843  0.00  0.00    +0.000 A 
ATOM     17  N   UNL     1       7.501   5.551  15.423  0.00  0.00    +0.000 NA
ATOM     18  N   UNL     1       7.181   6.228  16.519  0.00  0.00    +0.000 NA
BRANCH  16  19
ATOM     19  C   UNL     1       6.354   4.320  13.618  0.00  0.00    +0.000 A 
ATOM     20  C   UNL     1       5.244   3.528  13.203  0.00  0.00    +0.000 A 
ATOM     21  C   UNL     1       5.492   2.866  12.018  0.00  0.00    +0.000 A 
ATOM     22  S   UNL     1       7.056   3.202  11.409  0.00  0.00    +0.000 S 
ATOM     23  C   UNL     1       7.406   4.236  12.730  0.00  0.00    +0.000 A 
ENDBRANCH  16  19
ENDBRANCH  13  14
ENDBRANCH   1  13
TORSDOF 10
ENDMDL
MODEL 5
REMARK VINA RESULT:      -6.1      4.021      7.267
REMARK  Name = 
REMARK  11 active torsions:
REMARK  status: ('A' for Active; 'I' for Inactive)
REMARK    1  A    between atoms: C_1  and  C_2
REMARK    2  A    between atoms: C_2  and  C_11
REMARK    3  A    between atoms: C_3  and  C_4
REMARK    4  A    between atoms: C_4  and  S_5
REMARK    5  A    between atoms: S_5  and  C_6
REMARK    6  A    between atoms: C_6  and  C_7
REMARK    7  A    between atoms: C_7  and  C_8
REMARK    8  A    between atoms: C_8  and  O_10
REMARK    9  A    between atoms: C_11  and  C_12
REMARK   10  A    between atoms: C_12  and  N_13
REMARK   11  A    between atoms: C_15  and  C_16
REMARK                            x       y       z     vdW  Elec       q    Type
REMARK                         _______ _______ _______ _____ _____    ______ ____
ROOT
ATOM      1  C   UNL     1       1.996   4.911  19.186  0.00  0.00    +0.000 C 
ENDROOT
BRANCH   1   3
ATOM      2  C   UNL     1       2.122   2.941  17.593  0.00  0.00    +0.000 C 
ATOM      3  C   UNL     1       2.747   4.238  18.043  0.00  0.00    +0.000 C 
ATOM      4  C   UNL     1       3.866   4.760  17.497  0.00  0.00    +0.000 C 
BRANCH   4   5
ATOM      5  C   UNL     1       4.737   4.145  16.440  0.00  0.00    +0.000 C 
BRANCH   5   6
ATOM      6  S   UNL     1       5.535   5.446  15.440  0.00  0.00    +0.000 S 
BRANCH   6   7
ATOM      7  C   UNL     1       7.230   5.357  16.118  0.00  0.00    +0.000 C 
BRANCH   7   8
ATOM      8  C   UNL     1       7.192   5.691  17.603  0.00  0.00    +0.000 C 
BRANCH   8   9
ATOM      9  C   UNL     1       7.742   7.072  17.850  0.00  0.00    +0.000 C 
ATOM     10  O   UNL     1       7.579   8.036  17.120  0.00  0.00    +0.000 OA
BRANCH   9  11
ATOM     11  O   UNL     1       8.453   7.145  18.998  0.00  0.00    +0.000 OA
ATOM     12  H   UNL     1       9.100   6.422  19.109  0.00  0.00    +0.000 HD
ENDBRANCH   9  11
ENDBRANCH   8   9
ENDBRANCH   7   8
ENDBRANCH   6   7
ENDBRANCH   5   6
ENDBRANCH   4   5
ENDBRANCH   1   3
BRANCH   1  13
ATOM     13  C   UNL     1       2.780   5.955  19.986  0.00  0.00    +0.000 C 
BRANCH  13  14
ATOM     14  N   UNL     1       2.105   7.232  20.046  0.00  0.00    +0.000 N 
ATOM     15  C   UNL     1       1.414   7.764  21.091  0.00  0.00    +0.000 A 
ATOM     16  C   UNL     1       0.927   8.947  20.587  0.00  0.00    +0.000 A 
ATOM     17  N   UNL     1       1.325   9.088  19.285  0.00  0.00    +0.000 NA
ATOM     18  N   UNL     1       2.041   8.019  18.958  0.00  0.00    +0.000 NA
BRANCH  16  19
ATOM     19  C   UNL     1       0.103   9.957  21.245  0.00  0.00    +0.000 A 
ATOM     20  C   UNL     1      -0.292   9.858  22.611  0.00  0.00    +0.000 A 
ATOM     21  C   UNL     1      -1.068  10.928  23.006  0.00  0.00    +0.000 A 
ATOM     22  S   UNL     1      -1.313  12.049  21.736  0.00  0.00    +0.000 S 
ATOM     23  C   UNL     1      -0.382  11.104  20.651  0.00  0.00    +0.000 A 
ENDBRANCH  16  19
ENDBRANCH  13  14
ENDBRANCH   1  13
TORSDOF 10
ENDMDL
MODEL 6
REMARK VINA RESULT:      -6.1      5.648      9.274
REMARK  Name = 
REMARK  11 active torsions:
REMARK  status: ('A' for Active; 'I' for Inactive)
REMARK    1  A    between atoms: C_1  and  C_2
REMARK    2  A    between atoms: C_2  and  C_11
REMARK    3  A    between atoms: C_3  and  C_4
REMARK    4  A    between atoms: C_4  and  S_5
REMARK    5  A    between atoms: S_5  and  C_6
REMARK    6  A    between atoms: C_6  and  C_7
REMARK    7  A    between atoms: C_7  and  C_8
REMARK    8  A    between atoms: C_8  and  O_10
REMARK    9  A    between atoms: C_11  and  C_12
REMARK   10  A    between atoms: C_12  and  N_13
REMARK   11  A    between atoms: C_15  and  C_16
REMARK                            x       y       z     vdW  Elec       q    Type
REMARK                         _______ _______ _______ _____ _____    ______ ____
ROOT
ATOM      1  C   UNL     1       1.434   7.605  21.185  0.00  0.00    +0.000 C 
ENDROOT
BRANCH   1   3
ATOM      2  C   UNL     1       1.756   5.172  20.544  0.00  0.00    +0.000 C 
ATOM      3  C   UNL     1       1.980   6.615  20.163  0.00  0.00    +0.000 C 
ATOM      4  C   UNL     1       2.606   7.003  19.032  0.00  0.00    +0.000 C 
BRANCH   4   5
ATOM      5  C   UNL     1       3.263   6.125  18.006  0.00  0.00    +0.000 C 
BRANCH   5   6
ATOM      6  S   UNL     1       4.761   5.349  18.702  0.00  0.00    +0.000 S 
BRANCH   6   7
ATOM      7  C   UNL     1       5.061   4.071  17.430  0.00  0.00    +0.000 C 
BRANCH   7   8
ATOM      8  C   UNL     1       5.730   4.713  16.223  0.00  0.00    +0.000 C 
BRANCH   8   9
ATOM      9  C   UNL     1       7.177   5.010  16.513  0.00  0.00    +0.000 C 
ATOM     10  O   UNL     1       7.994   4.201  16.924  0.00  0.00    +0.000 OA
BRANCH   9  11
ATOM     11  O   UNL     1       7.498   6.300  16.263  0.00  0.00    +0.000 OA
ATOM     12  H   UNL     1       6.906   6.945  16.696  0.00  0.00    +0.000 HD
ENDBRANCH   9  11
ENDBRANCH   8   9
ENDBRANCH   7   8
ENDBRANCH   6   7
ENDBRANCH   5   6
ENDBRANCH   4   5
ENDBRANCH   1   3
BRANCH   1  13
ATOM     13  C   UNL     1       0.993   8.966  20.638  0.00  0.00    +0.000 C 
BRANCH  13  14
ATOM     14  N   UNL     1       0.276   9.753  21.616  0.00  0.00    +0.000 N 
ATOM     15  C   UNL     1      -0.510  10.843  21.397  0.00  0.00    +0.000 A 
ATOM     16  C   UNL     1      -0.878  11.233  22.663  0.00  0.00    +0.000 A 
ATOM     17  N   UNL     1      -0.314  10.392  23.584  0.00  0.00    +0.000 NA
ATOM     18  N   UNL     1       0.405   9.490  22.927  0.00  0.00    +0.000 NA
BRANCH  16  19
ATOM     19  C   UNL     1      -1.722  12.353  23.071  0.00  0.00    +0.000 A 
ATOM     20  C   UNL     1      -1.228  13.684  23.194  0.00  0.00    +0.000 A 
ATOM     21  C   UNL     1      -2.209  14.567  23.595  0.00  0.00    +0.000 A 
ATOM     22  S   UNL     1      -3.720  13.794  23.817  0.00  0.00    +0.000 S 
ATOM     23  C   UNL     1      -3.065  12.272  23.378  0.00  0.00    +0.000 A 
ENDBRANCH  16  19
ENDBRANCH  13  14
ENDBRANCH   1  13
TORSDOF 10
ENDMDL
MODEL 7
REMARK VINA RESULT:      -6.0      5.667      9.294
REMARK  Name = 
REMARK  11 active torsions:
REMARK  status: ('A' for Active; 'I' for Inactive)
REMARK    1  A    between atoms: C_1  and  C_2
REMARK    2  A    between atoms: C_2  and  C_11
REMARK    3  A    between atoms: C_3  and  C_4
REMARK    4  A    between atoms: C_4  and  S_5
REMARK    5  A    between atoms: S_5  and  C_6
REMARK    6  A    between atoms: C_6  and  C_7
REMARK    7  A    between atoms: C_7  and  C_8
REMARK    8  A    between atoms: C_8  and  O_10
REMARK    9  A    between atoms: C_11  and  C_12
REMARK   10  A    between atoms: C_12  and  N_13
REMARK   11  A    between atoms: C_15  and  C_16
REMARK                            x       y       z     vdW  Elec       q    Type
REMARK                         _______ _______ _______ _____ _____    ______ ____
ROOT
ATOM      1  C   UNL     1       1.806   8.085  20.224  0.00  0.00    +0.000 C 
ENDROOT
BRANCH   1   3
ATOM      2  C   UNL     1       1.808   5.594  20.702  0.00  0.00    +0.000 C 
ATOM      3  C   UNL     1       2.085   6.683  19.695  0.00  0.00    +0.000 C 
ATOM      4  C   UNL     1       2.542   6.451  18.446  0.00  0.00    +0.000 C 
BRANCH   4   5
ATOM      5  C   UNL     1       2.939   5.131  17.851  0.00  0.00    +0.000 C 
BRANCH   5   6
ATOM      6  S   UNL     1       4.725   4.841  18.089  0.00  0.00    +0.000 S 
BRANCH   6   7
ATOM      7  C   UNL     1       5.097   3.944  16.540  0.00  0.00    +0.000 C 
BRANCH   7   8
ATOM      8  C   UNL     1       5.634   4.927  15.509  0.00  0.00    +0.000 C 
BRANCH   8   9
ATOM      9  C   UNL     1       7.139   4.909  15.492  0.00  0.00    +0.000 C 
ATOM     10  O   UNL     1       7.850   4.506  16.399  0.00  0.00    +0.000 OA
BRANCH   9  11
ATOM     11  O   UNL     1       7.646   5.392  14.335  0.00  0.00    +0.000 OA
ATOM     12  H   UNL     1       7.797   6.357  14.342  0.00  0.00    +0.000 HD
ENDBRANCH   9  11
ENDBRANCH   8   9
ENDBRANCH   7   8
ENDBRANCH   6   7
ENDBRANCH   5   6
ENDBRANCH   4   5
ENDBRANCH   1   3
BRANCH   1  13
ATOM     13  C   UNL     1       0.958   8.170  21.497  0.00  0.00    +0.000 C 
BRANCH  13  14
ATOM     14  N   UNL     1       0.543   9.521  21.800  0.00  0.00    +0.000 N 
ATOM     15  C   UNL     1      -0.562   9.922  22.487  0.00  0.00    +0.000 A 
ATOM     16  C   UNL     1      -0.504  11.293  22.418  0.00  0.00    +0.000 A 
ATOM     17  N   UNL     1       0.601  11.670  21.705  0.00  0.00    +0.000 NA
ATOM     18  N   UNL     1       1.234  10.569  21.318  0.00  0.00    +0.000 NA
BRANCH  16  19
ATOM     19  C   UNL     1      -1.426  12.281  22.972  0.00  0.00    +0.000 A 
ATOM     20  C   UNL     1      -2.767  11.964  23.336  0.00  0.00    +0.000 A 
ATOM     21  C   UNL     1      -3.443  13.059  23.833  0.00  0.00    +0.000 A 
ATOM     22  S   UNL     1      -2.463  14.461  23.865  0.00  0.00    +0.000 S 
ATOM     23  C   UNL     1      -1.128  13.607  23.211  0.00  0.00    +0.000 A 
ENDBRANCH  16  19
ENDBRANCH  13  14
ENDBRANCH   1  13
TORSDOF 10
ENDMDL
MODEL 8
REMARK VINA RESULT:      -6.0      5.106      6.729
REMARK  Name = 
REMARK  11 active torsions:
REMARK  status: ('A' for Active; 'I' for Inactive)
REMARK    1  A    between atoms: C_1  and  C_2
REMARK    2  A    between atoms: C_2  and  C_11
REMARK    3  A    between atoms: C_3  and  C_4
REMARK    4  A    between atoms: C_4  and  S_5
REMARK    5  A    between atoms: S_5  and  C_6
REMARK    6  A    between atoms: C_6  and  C_7
REMARK    7  A    between atoms: C_7  and  C_8
REMARK    8  A    between atoms: C_8  and  O_10
REMARK    9  A    between atoms: C_11  and  C_12
REMARK   10  A    between atoms: C_12  and  N_13
REMARK   11  A    between atoms: C_15  and  C_16
REMARK                            x       y       z     vdW  Elec       q    Type
REMARK                         _______ _______ _______ _____ _____    ______ ____
ROOT
ATOM      1  C   UNL     1       6.190   6.583  17.245  0.00  0.00    +0.000 C 
ENDROOT
BRANCH   1   3
ATOM      2  C   UNL     1       5.794   5.271  19.380  0.00  0.00    +0.000 C 
ATOM      3  C   UNL     1       5.169   6.009  18.222  0.00  0.00    +0.000 C 
ATOM      4  C   UNL     1       3.838   6.150  18.052  0.00  0.00    +0.000 C 
BRANCH   4   5
ATOM      5  C   UNL     1       2.744   5.553  18.890  0.00  0.00    +0.000 C 
BRANCH   5   6
ATOM      6  S   UNL     1       1.578   4.622  17.840  0.00  0.00    +0.000 S 
BRANCH   6   7
ATOM      7  C   UNL     1       2.701   3.323  17.213  0.00  0.00    +0.000 C 
BRANCH   7   8
ATOM      8  C   UNL     1       2.484   2.046  18.012  0.00  0.00    +0.000 C 
BRANCH   8   9
ATOM      9  C   UNL     1       3.663   1.773  18.909  0.00  0.00    +0.000 C 
ATOM     10  O   UNL     1       3.964   2.426  19.895  0.00  0.00    +0.000 OA
BRANCH   9  11
ATOM     11  O   UNL     1       4.378   0.698  18.506  0.00  0.00    +0.000 OA
ATOM     12  H   UNL     1       4.069   0.311  17.664  0.00  0.00    +0.000 HD
ENDBRANCH   9  11
ENDBRANCH   8   9
ENDBRANCH   7   8
ENDBRANCH   6   7
ENDBRANCH   5   6
ENDBRANCH   4   5
ENDBRANCH   1   3
BRANCH   1  13
ATOM     13  C   UNL     1       7.298   5.628  16.790  0.00  0.00    +0.000 C 
BRANCH  13  14
ATOM     14  N   UNL     1       7.140   5.207  15.416  0.00  0.00    +0.000 N 
ATOM     15  C   UNL     1       6.334   4.222  14.932  0.00  0.00    +0.000 A 
ATOM     16  C   UNL     1       6.626   4.199  13.589  0.00  0.00    +0.000 A 
ATOM     17  N   UNL     1       7.578   5.142  13.310  0.00  0.00    +0.000 NA
ATOM     18  N   UNL     1       7.897   5.749  14.447  0.00  0.00    +0.000 NA
BRANCH  16  19
ATOM     19  C   UNL     1       6.074   3.343  12.542  0.00  0.00    +0.000 A 
ATOM     20  C   UNL     1       4.764   3.522  12.012  0.00  0.00    +0.000 A 
ATOM     21  C   UNL     1       4.466   2.592  11.038  0.00  0.00    +0.000 A 
ATOM     22  S   UNL     1       5.763   1.511  10.761  0.00  0.00    +0.000 S 
ATOM     23  C   UNL     1       6.729   2.284  11.947  0.00  0.00    +0.000 A 
ENDBRANCH  16  19
ENDBRANCH  13  14
ENDBRANCH   1  13
TORSDOF 10
ENDMDL
MODEL 9
REMARK VINA RESULT:      -6.0      5.082      8.007
REMARK  Name = 
REMARK  11 active torsions:
REMARK  status: ('A' for Active; 'I' for Inactive)
REMARK    1  A    between atoms: C_1  and  C_2
REMARK    2  A    between atoms: C_2  and  C_11
REMARK    3  A    between atoms: C_3  and  C_4
REMARK    4  A    between atoms: C_4  and  S_5
REMARK    5  A    between atoms: S_5  and  C_6
REMARK    6  A    between atoms: C_6  and  C_7
REMARK    7  A    between atoms: C_7  and  C_8
REMARK    8  A    between atoms: C_8  and  O_10
REMARK    9  A    between atoms: C_11  and  C_12
REMARK   10  A    between atoms: C_12  and  N_13
REMARK   11  A    between atoms: C_15  and  C_16
REMARK                            x       y       z     vdW  Elec       q    Type
REMARK                         _______ _______ _______ _____ _____    ______ ____
ROOT
ATOM      1  C   UNL     1       2.412   8.091  18.056  0.00  0.00    +0.000 C 
ENDROOT
BRANCH   1   3
ATOM      2  C   UNL     1       2.239   6.453  19.985  0.00  0.00    +0.000 C 
ATOM      3  C   UNL     1       2.413   6.632  18.497  0.00  0.00    +0.000 C 
ATOM      4  C   UNL     1       2.562   5.607  17.631  0.00  0.00    +0.000 C 
BRANCH   4   5
ATOM      5  C   UNL     1       2.672   4.146  17.957  0.00  0.00    +0.000 C 
BRANCH   5   6
ATOM      6  S   UNL     1       4.391   3.724  18.401  0.00  0.00    +0.000 S 
BRANCH   6   7
ATOM      7  C   UNL     1       4.091   2.822  19.962  0.00  0.00    +0.000 C 
BRANCH   7   8
ATOM      8  C   UNL     1       2.666   2.285  19.963  0.00  0.00    +0.000 C 
BRANCH   8   9
ATOM      9  C   UNL     1       1.910   2.788  21.165  0.00  0.00    +0.000 C 
ATOM     10  O   UNL     1       2.363   2.877  22.295  0.00  0.00    +0.000 OA
BRANCH   9  11
ATOM     11  O   UNL     1       0.642   3.147  20.862  0.00  0.00    +0.000 OA
ATOM     12  H   UNL     1       0.009   3.019  21.595  0.00  0.00    +0.000 HD
ENDBRANCH   9  11
ENDBRANCH   8   9
ENDBRANCH   7   8
ENDBRANCH   6   7
ENDBRANCH   5   6
ENDBRANCH   4   5
ENDBRANCH   1   3
BRANCH   1  13
ATOM     13  C   UNL     1       2.058   9.121  19.134  0.00  0.00    +0.000 C 
BRANCH  13  14
ATOM     14  N   UNL     1       0.702   9.607  19.015  0.00  0.00    +0.000 N 
ATOM     15  C   UNL     1      -0.046   9.730  17.884  0.00  0.00    +0.000 A 
ATOM     16  C   UNL     1      -1.214  10.300  18.330  0.00  0.00    +0.000 A 
ATOM     17  N   UNL     1      -1.137  10.505  19.681  0.00  0.00    +0.000 NA
ATOM     18  N   UNL     1       0.054  10.084  20.091  0.00  0.00    +0.000 NA
BRANCH  16  19
ATOM     19  C   UNL     1      -2.402  10.677  17.570  0.00  0.00    +0.000 A 
ATOM     20  C   UNL     1      -2.546  10.401  16.179  0.00  0.00    +0.000 A 
ATOM     21  C   UNL     1      -3.751  10.853  15.681  0.00  0.00    +0.000 A 
ATOM     22  S   UNL     1      -4.705  11.603  16.888  0.00  0.00    +0.000 S 
ATOM     23  C   UNL     1      -3.507  11.325  18.082  0.00  0.00    +0.000 A 
ENDBRANCH  16  19
ENDBRANCH  13  14
ENDBRANCH   1  13
TORSDOF 10
ENDMDL
