MODEL 1
REMARK VINA RESULT:      -7.4      0.000      0.000
REMARK  Name = 
REMARK  11 active torsions:
REMARK  status: ('A' for Active; 'I' for Inactive)
REMARK    1  A    between atoms: C_2  and  C_3
REMARK    2  A    between atoms: C_2  and  C_4
REMARK    3  A    between atoms: C_9  and  C_10
REMARK    4  A    between atoms: C_10  and  C_11
REMARK    5  A    between atoms: C_12  and  C_13
REMARK    6  A    between atoms: C_14  and  C_15
REMARK    7  A    between atoms: C_15  and  C_16
REMARK    8  A    between atoms: C_17  and  C_18
REMARK    9  A    between atoms: C_18  and  O_20
REMARK   10  A    between atoms: C_23  and  C_24
REMARK   11  A    between atoms: C_25  and  C_26
REMARK                            x       y       z     vdW  Elec       q    Type
REMARK                         _______ _______ _______ _____ _____    ______ ____
ROOT
ATOM      1  C   UNL     1      -4.551  11.883  17.971  0.00  0.00    +0.000 C 
ATOM      2  C   UNL     1      -4.034  11.421  16.597  0.00  0.00    +0.000 C 
ATOM      3  C   UNL     1      -3.075  10.232  16.603  0.00  0.00    +0.000 C 
ATOM      4  C   UNL     1      -1.956  10.348  17.600  0.00  0.00    +0.000 C 
ATOM      5  C   UNL     1      -0.788   9.671  17.474  0.00  0.00    +0.000 C 
ATOM      6  C   UNL     1       0.311   9.852  18.441  0.00  0.00    +0.000 C 
ATOM      7  C   UNL     1      -0.025  10.233  19.690  0.00  0.00    +0.000 C 
ATOM      8  C   UNL     1      -1.417  10.701  19.987  0.00  0.00    +0.000 C 
ATOM      9  C   UNL     1      -2.081  11.369  18.732  0.00  0.00    +0.000 C 
ATOM     10  C   UNL     1      -1.295  12.618  18.239  0.00  0.00    +0.000 C 
ATOM     11  C   UNL     1      -3.537  11.752  19.140  0.00  0.00    +0.000 C 
ATOM     12  C   UNL     1      -3.580  13.041  19.997  0.00  0.00    +0.000 C 
ENDROOT
BRANCH   1  14
ATOM     13  C   UNL     1      -5.950   9.996  18.858  0.00  0.00    +0.000 C 
ATOM     14  C   UNL     1      -5.890  11.246  18.363  0.00  0.00    +0.000 C 
ATOM     15  C   UNL     1      -7.154  12.035  18.142  0.00  0.00    +0.000 C 
ENDBRANCH   1  14
BRANCH   6  16
ATOM     16  C   UNL     1       1.737   9.756  18.126  0.00  0.00    +0.000 C 
ATOM     17  C   UNL     1       2.376  11.052  17.674  0.00  0.00    +0.000 C 
ATOM     18  C   UNL     1       2.503   8.656  18.214  0.00  0.00    +0.000 C 
BRANCH  18  19
ATOM     19  C   UNL     1       2.066   7.361  18.654  0.00  0.00    +0.000 C 
ATOM     20  C   UNL     1       2.630   6.211  18.249  0.00  0.00    +0.000 C 
BRANCH  20  21
ATOM     21  C   UNL     1       2.188   4.906  18.712  0.00  0.00    +0.000 C 
ATOM     22  C   UNL     1       2.138   3.831  17.656  0.00  0.00    +0.000 C 
ATOM     23  C   UNL     1       1.871   4.714  20.007  0.00  0.00    +0.000 C 
BRANCH  23  24
ATOM     24  C   UNL     1       1.391   3.446  20.573  0.00  0.00    +0.000 C 
ATOM     25  O   UNL     1       2.003   2.747  21.356  0.00  0.00    +0.000 OA
BRANCH  24  26
ATOM     26  O   UNL     1       0.157   3.130  20.113  0.00  0.00    +0.000 OA
ATOM     27  H   UNL     1      -0.255   2.358  20.542  0.00  0.00    +0.000 HD
ENDBRANCH  24  26
ENDBRANCH  23  24
ENDBRANCH  20  21
ENDBRANCH  18  19
ENDBRANCH   6  16
TORSDOF 6
ENDMDL
MODEL 2
REMARK VINA RESULT:      -7.3      0.740      1.267
REMARK  Name = 
REMARK  11 active torsions:
REMARK  status: ('A' for Active; 'I' for Inactive)
REMARK    1  A    between atoms: C_2  and  C_3
REMARK    2  A    between atoms: C_2  and  C_4
REMARK    3  A    between atoms: C_9  and  C_10
REMARK    4  A    between atoms: C_10  and  C_11
REMARK    5  A    between atoms: C_12  and  C_13
REMARK    6  A    between atoms: C_14  and  C_15
REMARK    7  A    between atoms: C_15  and  C_16
REMARK    8  A    between atoms: C_17  and  C_18
REMARK    9  A    between atoms: C_18  and  O_20
REMARK   10  A    between atoms: C_23  and  C_24
REMARK   11  A    between atoms: C_25  and  C_26
REMARK                            x       y       z     vdW  Elec       q    Type
REMARK                         _______ _______ _______ _____ _____    ______ ____
ROOT
ATOM      1  C   UNL     1      -4.558  11.875  17.964  0.00  0.00    +0.000 C 
ATOM      2  C   UNL     1      -4.032  11.408  16.595  0.00  0.00    +0.000 C 
ATOM      3  C   UNL     1      -3.069  10.222  16.611  0.00  0.00    +0.000 C 
ATOM      4  C   UNL     1      -1.955  10.349  17.613  0.00  0.00    +0.000 C 
ATOM      5  C   UNL     1      -0.784   9.675  17.497  0.00  0.00    +0.000 C 
ATOM      6  C   UNL     1       0.309   9.865  18.468  0.00  0.00    +0.000 C 
ATOM      7  C   UNL     1      -0.034  10.250  19.714  0.00  0.00    +0.000 C 
ATOM      8  C   UNL     1      -1.430  10.715  20.001  0.00  0.00    +0.000 C 
ATOM      9  C   UNL     1      -2.090  11.374  18.740  0.00  0.00    +0.000 C 
ATOM     10  C   UNL     1      -1.307  12.623  18.245  0.00  0.00    +0.000 C 
ATOM     11  C   UNL     1      -3.550  11.754  19.138  0.00  0.00    +0.000 C 
ATOM     12  C   UNL     1      -3.602  13.046  19.989  0.00  0.00    +0.000 C 
ENDROOT
BRANCH   1  14
ATOM     13  C   UNL     1      -7.062  11.876  18.149  0.00  0.00    +0.000 C 
ATOM     14  C   UNL     1      -5.896  11.234  18.351  0.00  0.00    +0.000 C 
ATOM     15  C   UNL     1      -5.883   9.878  19.007  0.00  0.00    +0.000 C 
ENDBRANCH   1  14
BRANCH   6  16
ATOM     16  C   UNL     1       1.737   9.772  18.160  0.00  0.00    +0.000 C 
ATOM     17  C   UNL     1       2.358  11.050  17.636  0.00  0.00    +0.000 C 
ATOM     18  C   UNL     1       2.520   8.692  18.312  0.00  0.00    +0.000 C 
BRANCH  18  19
ATOM     19  C   UNL     1       2.102   7.418  18.826  0.00  0.00    +0.000 C 
ATOM     20  C   UNL     1       2.484   6.244  18.297  0.00  0.00    +0.000 C 
BRANCH  20  21
ATOM     21  C   UNL     1       2.066   4.959  18.834  0.00  0.00    +0.000 C 
ATOM     22  C   UNL     1       1.760   4.948  20.311  0.00  0.00    +0.000 C 
ATOM     23  C   UNL     1       1.958   3.886  18.028  0.00  0.00    +0.000 C 
BRANCH  23  24
ATOM     24  C   UNL     1       1.570   2.540  18.471  0.00  0.00    +0.000 C 
ATOM     25  O   UNL     1       2.334   1.673  18.847  0.00  0.00    +0.000 OA
BRANCH  24  26
ATOM     26  O   UNL     1       0.228   2.364  18.412  0.00  0.00    +0.000 OA
ATOM     27  H   UNL     1      -0.078   1.795  17.682  0.00  0.00    +0.000 HD
ENDBRANCH  24  26
ENDBRANCH  23  24
ENDBRANCH  20  21
ENDBRANCH  18  19
ENDBRANCH   6  16
TORSDOF 6
ENDMDL
MODEL 3
REMARK VINA RESULT:      -7.0      4.158      9.563
REMARK  Name = 
REMARK  11 active torsions:
REMARK  status: ('A' for Active; 'I' for Inactive)
REMARK    1  A    between atoms: C_2  and  C_3
REMARK    2  A    between atoms: C_2  and  C_4
REMARK    3  A    between atoms: C_9  and  C_10
REMARK    4  A    between atoms: C_10  and  C_11
REMARK    5  A    between atoms: C_12  and  C_13
REMARK    6  A    between atoms: C_14  and  C_15
REMARK    7  A    between atoms: C_15  and  C_16
REMARK    8  A    between atoms: C_17  and  C_18
REMARK    9  A    between atoms: C_18  and  O_20
REMARK   10  A    between atoms: C_23  and  C_24
REMARK   11  A    between atoms: C_25  and  C_26
REMARK                            x       y       z     vdW  Elec       q    Type
REMARK                         _______ _______ _______ _____ _____    ______ ____
ROOT
ATOM      1  C   UNL     1       6.406   4.454  15.790  0.00  0.00    +0.000 C 
ATOM      2  C   UNL     1       5.594   3.270  16.344  0.00  0.00    +0.000 C 
ATOM      3  C   UNL     1       4.120   3.543  16.639  0.00  0.00    +0.000 C 
ATOM      4  C   UNL     1       3.873   4.796  17.430  0.00  0.00    +0.000 C 
ATOM      5  C   UNL     1       2.749   4.991  18.165  0.00  0.00    +0.000 C 
ATOM      6  C   UNL     1       2.564   6.210  18.974  0.00  0.00    +0.000 C 
ATOM      7  C   UNL     1       3.210   7.322  18.569  0.00  0.00    +0.000 C 
ATOM      8  C   UNL     1       4.264   7.237  17.507  0.00  0.00    +0.000 C 
ATOM      9  C   UNL     1       4.985   5.843  17.520  0.00  0.00    +0.000 C 
ATOM     10  C   UNL     1       5.700   5.557  18.871  0.00  0.00    +0.000 C 
ATOM     11  C   UNL     1       6.005   5.849  16.340  0.00  0.00    +0.000 C 
ATOM     12  C   UNL     1       7.286   6.648  16.684  0.00  0.00    +0.000 C 
ENDROOT
BRANCH   1  14
ATOM     13  C   UNL     1       7.477   5.087  13.609  0.00  0.00    +0.000 C 
ATOM     14  C   UNL     1       6.462   4.488  14.258  0.00  0.00    +0.000 C 
ATOM     15  C   UNL     1       5.328   3.869  13.483  0.00  0.00    +0.000 C 
ENDBRANCH   1  14
BRANCH   6  16
ATOM     16  C   UNL     1       1.825   6.281  20.236  0.00  0.00    +0.000 C 
ATOM     17  C   UNL     1       1.720   4.970  20.985  0.00  0.00    +0.000 C 
ATOM     18  C   UNL     1       1.265   7.377  20.774  0.00  0.00    +0.000 C 
BRANCH  18  19
ATOM     19  C   UNL     1       1.300   8.699  20.214  0.00  0.00    +0.000 C 
ATOM     20  C   UNL     1       0.214   9.334  19.744  0.00  0.00    +0.000 C 
BRANCH  20  21
ATOM     21  C   UNL     1       0.259  10.678  19.192  0.00  0.00    +0.000 C 
ATOM     22  C   UNL     1       1.619  11.138  18.729  0.00  0.00    +0.000 C 
ATOM     23  C   UNL     1      -0.862  11.418  19.106  0.00  0.00    +0.000 C 
BRANCH  23  24
ATOM     24  C   UNL     1      -0.923  12.792  18.590  0.00  0.00    +0.000 C 
ATOM     25  O   UNL     1      -0.767  13.800  19.250  0.00  0.00    +0.000 OA
BRANCH  24  26
ATOM     26  O   UNL     1      -1.182  12.815  17.261  0.00  0.00    +0.000 OA
ATOM     27  H   UNL     1      -1.947  12.278  16.983  0.00  0.00    +0.000 HD
ENDBRANCH  24  26
ENDBRANCH  23  24
ENDBRANCH  20  21
ENDBRANCH  18  19
ENDBRANCH   6  16
TORSDOF 6
ENDMDL
MODEL 4
REMARK VINA RESULT:      -7.0      4.589      9.536
REMARK  Name = 
REMARK  11 active torsions:
REMARK  status: ('A' for Active; 'I' for Inactive)
REMARK    1  A    between atoms: C_2  and  C_3
REMARK    2  A    between atoms: C_2  and  C_4
REMARK    3  A    between atoms: C_9  and  C_10
REMARK    4  A    between atoms: C_10  and  C_11
REMARK    5  A    between atoms: C_12  and  C_13
REMARK    6  A    between atoms: C_14  and  C_15
REMARK    7  A    between atoms: C_15  and  C_16
REMARK    8  A    between atoms: C_17  and  C_18
REMARK    9  A    between atoms: C_18  and  O_20
REMARK   10  A    between atoms: C_23  and  C_24
REMARK   11  A    between atoms: C_25  and  C_26
REMARK                            x       y       z     vdW  Elec       q    Type
REMARK                         _______ _______ _______ _____ _____    ______ ____
ROOT
ATOM      1  C   UNL     1       6.451   4.568  15.772  0.00  0.00    +0.000 C 
ATOM      2  C   UNL     1       5.745   3.304  16.295  0.00  0.00    +0.000 C 
ATOM      3  C   UNL     1       4.253   3.441  16.596  0.00  0.00    +0.000 C 
ATOM      4  C   UNL     1       3.900   4.647  17.420  0.00  0.00    +0.000 C 
ATOM      5  C   UNL     1       2.765   4.725  18.159  0.00  0.00    +0.000 C 
ATOM      6  C   UNL     1       2.477   5.901  18.999  0.00  0.00    +0.000 C 
ATOM      7  C   UNL     1       3.023   7.076  18.623  0.00  0.00    +0.000 C 
ATOM      8  C   UNL     1       4.079   7.110  17.561  0.00  0.00    +0.000 C 
ATOM      9  C   UNL     1       4.918   5.784  17.537  0.00  0.00    +0.000 C 
ATOM     10  C   UNL     1       5.657   5.526  18.881  0.00  0.00    +0.000 C 
ATOM     11  C   UNL     1       5.931   5.908  16.358  0.00  0.00    +0.000 C 
ATOM     12  C   UNL     1       7.139   6.806  16.724  0.00  0.00    +0.000 C 
ENDROOT
BRANCH   1  14
ATOM     13  C   UNL     1       5.511   4.139  13.484  0.00  0.00    +0.000 C 
ATOM     14  C   UNL     1       6.500   4.647  14.241  0.00  0.00    +0.000 C 
ATOM     15  C   UNL     1       7.707   5.272  13.592  0.00  0.00    +0.000 C 
ENDBRANCH   1  14
BRANCH   6  16
ATOM     16  C   UNL     1       1.737   5.876  20.262  0.00  0.00    +0.000 C 
ATOM     17  C   UNL     1       1.514   4.494  20.839  0.00  0.00    +0.000 C 
ATOM     18  C   UNL     1       1.268   6.938  20.936  0.00  0.00    +0.000 C 
BRANCH  18  19
ATOM     19  C   UNL     1       1.420   8.313  20.548  0.00  0.00    +0.000 C 
ATOM     20  C   UNL     1       0.445   9.229  20.667  0.00  0.00    +0.000 C 
BRANCH  20  21
ATOM     21  C   UNL     1       0.615  10.621  20.284  0.00  0.00    +0.000 C 
ATOM     22  C   UNL     1       0.053  11.629  21.254  0.00  0.00    +0.000 C 
ATOM     23  C   UNL     1       1.251  10.940  19.141  0.00  0.00    +0.000 C 
BRANCH  23  24
ATOM     24  C   UNL     1       1.454  12.310  18.649  0.00  0.00    +0.000 C 
ATOM     25  O   UNL     1       2.478  12.954  18.761  0.00  0.00    +0.000 OA
BRANCH  24  26
ATOM     26  O   UNL     1       0.343  12.791  18.042  0.00  0.00    +0.000 OA
ATOM     27  H   UNL     1      -0.187  13.403  18.585  0.00  0.00    +0.000 HD
ENDBRANCH  24  26
ENDBRANCH  23  24
ENDBRANCH  20  21
ENDBRANCH  18  19
ENDBRANCH   6  16
TORSDOF 6
ENDMDL
MODEL 5
REMARK VINA RESULT:      -6.9      4.353      8.499
REMARK  Name = 
REMARK  11 active torsions:
REMARK  status: ('A' for Active; 'I' for Inactive)
REMARK    1  A    between atoms: C_2  and  C_3
REMARK    2  A    between atoms: C_2  and  C_4
REMARK    3  A    between atoms: C_9  and  C_10
REMARK    4  A    between atoms: C_10  and  C_11
REMARK    5  A    between atoms: C_12  and  C_13
REMARK    6  A    between atoms: C_14  and  C_15
REMARK    7  A    between atoms: C_15  and  C_16
REMARK    8  A    between atoms: C_17  and  C_18
REMARK    9  A    between atoms: C_18  and  O_20
REMARK   10  A    between atoms: C_23  and  C_24
REMARK   11  A    between atoms: C_25  and  C_26
REMARK                            x       y       z     vdW  Elec       q    Type
REMARK                         _______ _______ _______ _____ _____    ______ ____
ROOT
ATOM      1  C   UNL     1       6.237   4.488  15.885  0.00  0.00    +0.000 C 
ATOM      2  C   UNL     1       5.182   3.515  16.440  0.00  0.00    +0.000 C 
ATOM      3  C   UNL     1       3.760   4.062  16.564  0.00  0.00    +0.000 C 
ATOM      4  C   UNL     1       3.674   5.405  17.231  0.00  0.00    +0.000 C 
ATOM      5  C   UNL     1       2.544   5.855  17.832  0.00  0.00    +0.000 C 
ATOM      6  C   UNL     1       2.510   7.156  18.525  0.00  0.00    +0.000 C 
ATOM      7  C   UNL     1       3.377   8.100  18.106  0.00  0.00    +0.000 C 
ATOM      8  C   UNL     1       4.487   7.740  17.165  0.00  0.00    +0.000 C 
ATOM      9  C   UNL     1       4.943   6.251  17.354  0.00  0.00    +0.000 C 
ATOM     10  C   UNL     1       5.476   5.971  18.788  0.00  0.00    +0.000 C 
ATOM     11  C   UNL     1       6.045   5.975  16.286  0.00  0.00    +0.000 C 
ATOM     12  C   UNL     1       7.414   6.571  16.697  0.00  0.00    +0.000 C 
ENDROOT
BRANCH   1  14
ATOM     13  C   UNL     1       7.465   4.969  13.748  0.00  0.00    +0.000 C 
ATOM     14  C   UNL     1       6.430   4.373  14.367  0.00  0.00    +0.000 C 
ATOM     15  C   UNL     1       5.409   3.607  13.568  0.00  0.00    +0.000 C 
ENDBRANCH   1  14
BRANCH   6  16
ATOM     16  C   UNL     1       1.690   7.467  19.697  0.00  0.00    +0.000 C 
ATOM     17  C   UNL     1       0.869   8.733  19.580  0.00  0.00    +0.000 C 
ATOM     18  C   UNL     1       1.596   6.741  20.823  0.00  0.00    +0.000 C 
BRANCH  18  19
ATOM     19  C   UNL     1       2.277   5.503  21.083  0.00  0.00    +0.000 C 
ATOM     20  C   UNL     1       2.000   4.356  20.441  0.00  0.00    +0.000 C 
BRANCH  20  21
ATOM     21  C   UNL     1       2.705   3.112  20.703  0.00  0.00    +0.000 C 
ATOM     22  C   UNL     1       2.024   2.178  21.672  0.00  0.00    +0.000 C 
ATOM     23  C   UNL     1       3.874   2.849  20.088  0.00  0.00    +0.000 C 
BRANCH  23  24
ATOM     24  C   UNL     1       4.678   1.638  20.300  0.00  0.00    +0.000 C 
ATOM     25  O   UNL     1       5.327   1.387  21.296  0.00  0.00    +0.000 OA
BRANCH  24  26
ATOM     26  O   UNL     1       4.619   0.807  19.231  0.00  0.00    +0.000 OA
ATOM     27  H   UNL     1       5.169   1.076  18.472  0.00  0.00    +0.000 HD
ENDBRANCH  24  26
ENDBRANCH  23  24
ENDBRANCH  20  21
ENDBRANCH  18  19
ENDBRANCH   6  16
TORSDOF 6
ENDMDL
MODEL 6
REMARK VINA RESULT:      -6.8      4.689      9.597
REMARK  Name = 
REMARK  11 active torsions:
REMARK  status: ('A' for Active; 'I' for Inactive)
REMARK    1  A    between atoms: C_2  and  C_3
REMARK    2  A    between atoms: C_2  and  C_4
REMARK    3  A    between atoms: C_9  and  C_10
REMARK    4  A    between atoms: C_10  and  C_11
REMARK    5  A    between atoms: C_12  and  C_13
REMARK    6  A    between atoms: C_14  and  C_15
REMARK    7  A    between atoms: C_15  and  C_16
REMARK    8  A    between atoms: C_17  and  C_18
REMARK    9  A    between atoms: C_18  and  O_20
REMARK   10  A    between atoms: C_23  and  C_24
REMARK   11  A    between atoms: C_25  and  C_26
REMARK                            x       y       z     vdW  Elec       q    Type
REMARK                         _______ _______ _______ _____ _____    ______ ____
ROOT
ATOM      1  C   UNL     1       6.521   4.563  15.781  0.00  0.00    +0.000 C 
ATOM      2  C   UNL     1       5.818   3.285  16.275  0.00  0.00    +0.000 C 
ATOM      3  C   UNL     1       4.323   3.407  16.563  0.00  0.00    +0.000 C 
ATOM      4  C   UNL     1       3.953   4.597  17.403  0.00  0.00    +0.000 C 
ATOM      5  C   UNL     1       2.810   4.655  18.131  0.00  0.00    +0.000 C 
ATOM      6  C   UNL     1       2.505   5.815  18.988  0.00  0.00    +0.000 C 
ATOM      7  C   UNL     1       3.047   6.999  18.638  0.00  0.00    +0.000 C 
ATOM      8  C   UNL     1       4.114   7.058  17.587  0.00  0.00    +0.000 C 
ATOM      9  C   UNL     1       4.961   5.738  17.550  0.00  0.00    +0.000 C 
ATOM     10  C   UNL     1       5.689   5.463  18.897  0.00  0.00    +0.000 C 
ATOM     11  C   UNL     1       5.986   5.889  16.384  0.00  0.00    +0.000 C 
ATOM     12  C   UNL     1       7.184   6.789  16.777  0.00  0.00    +0.000 C 
ENDROOT
BRANCH   1  14
ATOM     13  C   UNL     1       7.623   5.264  13.637  0.00  0.00    +0.000 C 
ATOM     14  C   UNL     1       6.586   4.667  14.253  0.00  0.00    +0.000 C 
ATOM     15  C   UNL     1       5.438   4.122  13.444  0.00  0.00    +0.000 C 
ENDBRANCH   1  14
BRANCH   6  16
ATOM     16  C   UNL     1       1.752   5.764  20.243  0.00  0.00    +0.000 C 
ATOM     17  C   UNL     1       1.549   4.372  20.804  0.00  0.00    +0.000 C 
ATOM     18  C   UNL     1       1.256   6.811  20.921  0.00  0.00    +0.000 C 
BRANCH  18  19
ATOM     19  C   UNL     1       1.387   8.191  20.549  0.00  0.00    +0.000 C 
ATOM     20  C   UNL     1       0.457   9.123  20.817  0.00  0.00    +0.000 C 
BRANCH  20  21
ATOM     21  C   UNL     1       0.607  10.521  20.447  0.00  0.00    +0.000 C 
ATOM     22  C   UNL     1       1.131  10.766  19.054  0.00  0.00    +0.000 C 
ATOM     23  C   UNL     1       0.273  11.495  21.315  0.00  0.00    +0.000 C 
BRANCH  23  24
ATOM     24  C   UNL     1       0.409  12.934  21.053  0.00  0.00    +0.000 C 
ATOM     25  O   UNL     1      -0.419  13.631  20.500  0.00  0.00    +0.000 OA
BRANCH  24  26
ATOM     26  O   UNL     1       1.593  13.414  21.505  0.00  0.00    +0.000 OA
ATOM     27  H   UNL     1       1.709  14.376  21.406  0.00  0.00    +0.000 HD
ENDBRANCH  24  26
ENDBRANCH  23  24
ENDBRANCH  20  21
ENDBRANCH  18  19
ENDBRANCH   6  16
TORSDOF 6
ENDMDL
MODEL 7
REMARK VINA RESULT:      -6.8      1.897      2.828
REMARK  Name = 
REMARK  11 active torsions:
REMARK  status: ('A' for Active; 'I' for Inactive)
REMARK    1  A    between atoms: C_2  and  C_3
REMARK    2  A    between atoms: C_2  and  C_4
REMARK    3  A    between atoms: C_9  and  C_10
REMARK    4  A    between atoms: C_10  and  C_11
REMARK    5  A    between atoms: C_12  and  C_13
REMARK    6  A    between atoms: C_14  and  C_15
REMARK    7  A    between atoms: C_15  and  C_16
REMARK    8  A    between atoms: C_17  and  C_18
REMARK    9  A    between atoms: C_18  and  O_20
REMARK   10  A    between atoms: C_23  and  C_24
REMARK   11  A    between atoms: C_25  and  C_26
REMARK                            x       y       z     vdW  Elec       q    Type
REMARK                         _______ _______ _______ _____ _____    ______ ____
ROOT
ATOM      1  C   UNL     1      -3.006  13.164  21.566  0.00  0.00    +0.000 C 
ATOM      2  C   UNL     1      -3.207  13.124  20.041  0.00  0.00    +0.000 C 
ATOM      3  C   UNL     1      -2.758  11.845  19.335  0.00  0.00    +0.000 C 
ATOM      4  C   UNL     1      -1.383  11.380  19.720  0.00  0.00    +0.000 C 
ATOM      5  C   UNL     1      -0.632  10.574  18.929  0.00  0.00    +0.000 C 
ATOM      6  C   UNL     1       0.737  10.182  19.312  0.00  0.00    +0.000 C 
ATOM      7  C   UNL     1       1.024  10.156  20.629  0.00  0.00    +0.000 C 
ATOM      8  C   UNL     1       0.072  10.755  21.620  0.00  0.00    +0.000 C 
ATOM      9  C   UNL     1      -0.745  11.939  20.994  0.00  0.00    +0.000 C 
ATOM     10  C   UNL     1       0.171  13.100  20.511  0.00  0.00    +0.000 C 
ATOM     11  C   UNL     1      -1.740  12.433  22.088  0.00  0.00    +0.000 C 
ATOM     12  C   UNL     1      -1.043  13.318  23.150  0.00  0.00    +0.000 C 
ENDROOT
BRANCH   1  14
ATOM     13  C   UNL     1      -4.160  12.404  23.662  0.00  0.00    +0.000 C 
ATOM     14  C   UNL     1      -4.240  12.707  22.354  0.00  0.00    +0.000 C 
ATOM     15  C   UNL     1      -5.548  12.563  21.621  0.00  0.00    +0.000 C 
ENDBRANCH   1  14
BRANCH   6  16
ATOM     16  C   UNL     1       1.834   9.924  18.378  0.00  0.00    +0.000 C 
ATOM     17  C   UNL     1       2.378  11.154  17.682  0.00  0.00    +0.000 C 
ATOM     18  C   UNL     1       2.389   8.732  18.106  0.00  0.00    +0.000 C 
BRANCH  18  19
ATOM     19  C   UNL     1       2.018   7.478  18.699  0.00  0.00    +0.000 C 
ATOM     20  C   UNL     1       2.300   6.286  18.148  0.00  0.00    +0.000 C 
BRANCH  20  21
ATOM     21  C   UNL     1       1.932   5.022  18.764  0.00  0.00    +0.000 C 
ATOM     22  C   UNL     1       1.865   5.036  20.271  0.00  0.00    +0.000 C 
ATOM     23  C   UNL     1       1.663   3.945  18.002  0.00  0.00    +0.000 C 
BRANCH  23  24
ATOM     24  C   UNL     1       1.307   2.617  18.522  0.00  0.00    +0.000 C 
ATOM     25  O   UNL     1       0.190   2.262  18.843  0.00  0.00    +0.000 OA
BRANCH  24  26
ATOM     26  O   UNL     1       2.391   1.810  18.611  0.00  0.00    +0.000 OA
ATOM     27  H   UNL     1       3.159   2.096  18.083  0.00  0.00    +0.000 HD
ENDBRANCH  24  26
ENDBRANCH  23  24
ENDBRANCH  20  21
ENDBRANCH  18  19
ENDBRANCH   6  16
TORSDOF 6
ENDMDL
MODEL 8
REMARK VINA RESULT:      -6.7      4.466      9.494
REMARK  Name = 
REMARK  11 active torsions:
REMARK  status: ('A' for Active; 'I' for Inactive)
REMARK    1  A    between atoms: C_2  and  C_3
REMARK    2  A    between atoms: C_2  and  C_4
REMARK    3  A    between atoms: C_9  and  C_10
REMARK    4  A    between atoms: C_10  and  C_11
REMARK    5  A    between atoms: C_12  and  C_13
REMARK    6  A    between atoms: C_14  and  C_15
REMARK    7  A    between atoms: C_15  and  C_16
REMARK    8  A    between atoms: C_17  and  C_18
REMARK    9  A    between atoms: C_18  and  O_20
REMARK   10  A    between atoms: C_23  and  C_24
REMARK   11  A    between atoms: C_25  and  C_26
REMARK                            x       y       z     vdW  Elec       q    Type
REMARK                         _______ _______ _______ _____ _____    ______ ____
ROOT
ATOM      1  C   UNL     1       6.607   5.594  15.628  0.00  0.00    +0.000 C 
ATOM      2  C   UNL     1       7.367   5.035  16.844  0.00  0.00    +0.000 C 
ATOM      3  C   UNL     1       6.687   3.892  17.597  0.00  0.00    +0.000 C 
ATOM      4  C   UNL     1       5.242   4.143  17.921  0.00  0.00    +0.000 C 
ATOM      5  C   UNL     1       4.594   3.508  18.929  0.00  0.00    +0.000 C 
ATOM      6  C   UNL     1       3.190   3.819  19.255  0.00  0.00    +0.000 C 
ATOM      7  C   UNL     1       2.417   4.294  18.258  0.00  0.00    +0.000 C 
ATOM      8  C   UNL     1       3.037   4.727  16.964  0.00  0.00    +0.000 C 
ATOM      9  C   UNL     1       4.500   5.254  17.173  0.00  0.00    +0.000 C 
ATOM     10  C   UNL     1       4.558   6.486  18.120  0.00  0.00    +0.000 C 
ATOM     11  C   UNL     1       5.061   5.609  15.762  0.00  0.00    +0.000 C 
ATOM     12  C   UNL     1       4.519   6.965  15.247  0.00  0.00    +0.000 C 
ENDROOT
BRANCH   1  14
ATOM     13  C   UNL     1       8.018   5.434  13.557  0.00  0.00    +0.000 C 
ATOM     14  C   UNL     1       7.014   4.937  14.303  0.00  0.00    +0.000 C 
ATOM     15  C   UNL     1       6.237   3.739  13.824  0.00  0.00    +0.000 C 
ENDBRANCH   1  14
BRANCH   6  16
ATOM     16  C   UNL     1       2.601   3.756  20.594  0.00  0.00    +0.000 C 
ATOM     17  C   UNL     1       2.989   2.535  21.401  0.00  0.00    +0.000 C 
ATOM     18  C   UNL     1       1.784   4.664  21.152  0.00  0.00    +0.000 C 
BRANCH  18  19
ATOM     19  C   UNL     1       1.346   5.887  20.540  0.00  0.00    +0.000 C 
ATOM     20  C   UNL     1       1.922   7.079  20.771  0.00  0.00    +0.000 C 
BRANCH  20  21
ATOM     21  C   UNL     1       1.479   8.309  20.136  0.00  0.00    +0.000 C 
ATOM     22  C   UNL     1       0.971   9.373  21.076  0.00  0.00    +0.000 C 
ATOM     23  C   UNL     1       1.551   8.449  18.799  0.00  0.00    +0.000 C 
BRANCH  23  24
ATOM     24  C   UNL     1       1.108   9.637  18.055  0.00  0.00    +0.000 C 
ATOM     25  O   UNL     1      -0.043  10.006  17.938  0.00  0.00    +0.000 OA
BRANCH  24  26
ATOM     26  O   UNL     1       2.153  10.293  17.496  0.00  0.00    +0.000 OA
ATOM     27  H   UNL     1       2.948  10.351  18.057  0.00  0.00    +0.000 HD
ENDBRANCH  24  26
ENDBRANCH  23  24
ENDBRANCH  20  21
ENDBRANCH  18  19
ENDBRANCH   6  16
TORSDOF 6
ENDMDL
MODEL 9
REMARK VINA RESULT:      -6.5      1.667      2.582
REMARK  Name = 
REMARK  11 active torsions:
REMARK  status: ('A' for Active; 'I' for Inactive)
REMARK    1  A    between atoms: C_2  and  C_3
REMARK    2  A    between atoms: C_2  and  C_4
REMARK    3  A    between atoms: C_9  and  C_10
REMARK    4  A    between atoms: C_10  and  C_11
REMARK    5  A    between atoms: C_12  and  C_13
REMARK    6  A    between atoms: C_14  and  C_15
REMARK    7  A    between atoms: C_15  and  C_16
REMARK    8  A    between atoms: C_17  and  C_18
REMARK    9  A    between atoms: C_18  and  O_20
REMARK   10  A    between atoms: C_23  and  C_24
REMARK   11  A    between atoms: C_25  and  C_26
REMARK                            x       y       z     vdW  Elec       q    Type
REMARK                         _______ _______ _______ _____ _____    ______ ____
ROOT
ATOM      1  C   UNL     1      -3.056  13.065  21.433  0.00  0.00    +0.000 C 
ATOM      2  C   UNL     1      -3.103  13.222  19.903  0.00  0.00    +0.000 C 
ATOM      3  C   UNL     1      -2.696  11.997  19.087  0.00  0.00    +0.000 C 
ATOM      4  C   UNL     1      -1.411  11.359  19.534  0.00  0.00    +0.000 C 
ATOM      5  C   UNL     1      -0.654  10.581  18.720  0.00  0.00    +0.000 C 
ATOM      6  C   UNL     1       0.629  10.016  19.174  0.00  0.00    +0.000 C 
ATOM      7  C   UNL     1       0.777   9.809  20.499  0.00  0.00    +0.000 C 
ATOM      8  C   UNL     1      -0.217  10.378  21.466  0.00  0.00    +0.000 C 
ATOM      9  C   UNL     1      -0.861  11.701  20.920  0.00  0.00    +0.000 C 
ATOM     10  C   UNL     1       0.194  12.816  20.672  0.00  0.00    +0.000 C 
ATOM     11  C   UNL     1      -1.918  12.158  21.973  0.00  0.00    +0.000 C 
ATOM     12  C   UNL     1      -1.260  12.842  23.196  0.00  0.00    +0.000 C 
ENDROOT
BRANCH   1  14
ATOM     13  C   UNL     1      -5.439  12.290  21.262  0.00  0.00    +0.000 C 
ATOM     14  C   UNL     1      -4.399  12.642  22.041  0.00  0.00    +0.000 C 
ATOM     15  C   UNL     1      -4.550  12.666  23.540  0.00  0.00    +0.000 C 
ENDBRANCH   1  14
BRANCH   6  16
ATOM     16  C   UNL     1       1.790   9.763  18.319  0.00  0.00    +0.000 C 
ATOM     17  C   UNL     1       2.420  11.003  17.721  0.00  0.00    +0.000 C 
ATOM     18  C   UNL     1       2.334   8.567  18.042  0.00  0.00    +0.000 C 
BRANCH  18  19
ATOM     19  C   UNL     1       1.884   7.302  18.551  0.00  0.00    +0.000 C 
ATOM     20  C   UNL     1       2.675   6.221  18.654  0.00  0.00    +0.000 C 
BRANCH  20  21
ATOM     21  C   UNL     1       2.212   4.949  19.184  0.00  0.00    +0.000 C 
ATOM     22  C   UNL     1       1.791   3.936  18.149  0.00  0.00    +0.000 C 
ATOM     23  C   UNL     1       2.193   4.731  20.512  0.00  0.00    +0.000 C 
BRANCH  23  24
ATOM     24  C   UNL     1       1.722   3.495  21.152  0.00  0.00    +0.000 C 
ATOM     25  O   UNL     1       0.672   2.932  20.911  0.00  0.00    +0.000 OA
BRANCH  24  26
ATOM     26  O   UNL     1       2.609   3.038  22.069  0.00  0.00    +0.000 OA
ATOM     27  H   UNL     1       2.872   2.106  21.956  0.00  0.00    +0.000 HD
ENDBRANCH  24  26
ENDBRANCH  23  24
ENDBRANCH  20  21
ENDBRANCH  18  19
ENDBRANCH   6  16
TORSDOF 6
ENDMDL
