MODEL 1
REMARK VINA RESULT:      -8.0      0.000      0.000
REMARK  Name = 
REMARK  4 active torsions:
REMARK  status: ('A' for Active; 'I' for Inactive)
REMARK    1  A    between atoms: C_2  and  C_3
REMARK    2  A    between atoms: C_3  and  C_4
REMARK    3  A    between atoms: N_11  and  C_12
REMARK    4  A    between atoms: C_17  and  N_18
REMARK                            x       y       z     vdW  Elec       q    Type
REMARK                         _______ _______ _______ _____ _____    ______ ____
ROOT
ATOM      1  O   UNL     1       3.028   6.503  19.767  0.00  0.00    +0.000 OA
ATOM      2  C   UNL     1       2.789   6.806  18.599  0.00  0.00    +0.000 C 
ATOM      3  N   UNL     1       2.618   5.894  17.564  0.00  0.00    +0.000 N 
ATOM      4  H   UNL     1       2.069   6.183  16.766  0.00  0.00    +0.000 HD
ENDROOT
BRANCH   3   5
ATOM      5  C   UNL     1       2.623   4.492  17.772  0.00  0.00    +0.000 A 
ATOM      6  C   UNL     1       1.485   3.874  18.309  0.00  0.00    +0.000 A 
ATOM      7  C   UNL     1       1.504   2.521  18.631  0.00  0.00    +0.000 A 
ATOM      8  C   UNL     1       2.648   1.772  18.383  0.00  0.00    +0.000 A 
ATOM      9  C   UNL     1       3.784   2.384  17.843  0.00  0.00    +0.000 A 
ATOM     10  C   UNL     1       3.818   3.759  17.544  0.00  0.00    +0.000 A 
BRANCH  10  11
ATOM     11  N   UNL     1       4.978   4.380  17.087  0.00  0.00    +0.000 N 
ATOM     12  C   UNL     1       5.995   4.878  18.035  0.00  0.00    +0.000 C 
ATOM     13  C   UNL     1       6.714   6.065  17.368  0.00  0.00    +0.000 C 
ATOM     14  O   UNL     1       7.285   5.712  16.094  0.00  0.00    +0.000 OA
ATOM     15  C   UNL     1       6.293   5.157  15.210  0.00  0.00    +0.000 C 
ATOM     16  C   UNL     1       5.624   3.921  15.838  0.00  0.00    +0.000 C 
ENDBRANCH  10  11
ENDBRANCH   3   5
BRANCH   2  17
ATOM     17  C   UNL     1       2.642   8.261  18.169  0.00  0.00    +0.000 C 
BRANCH  17  18
ATOM     18  C   UNL     1       1.476   9.017  18.781  0.00  0.00    +0.000 A 
ATOM     19  C   UNL     1       0.588   9.756  17.984  0.00  0.00    +0.000 A 
ATOM     20  C   UNL     1      -0.544  10.365  18.538  0.00  0.00    +0.000 A 
ATOM     21  C   UNL     1      -0.810  10.236  19.901  0.00  0.00    +0.000 A 
ATOM     22  C   UNL     1       0.062   9.508  20.705  0.00  0.00    +0.000 A 
ATOM     23 CL   UNL     1      -0.272   9.326  22.383  0.00  0.00    +0.000 Cl
ATOM     24  C   UNL     1       1.200   8.901  20.153  0.00  0.00    +0.000 A 
ENDBRANCH  17  18
ENDBRANCH   2  17
TORSDOF 4
ENDMDL
MODEL 2
REMARK VINA RESULT:      -7.9      1.186      1.545
REMARK  Name = 
REMARK  4 active torsions:
REMARK  status: ('A' for Active; 'I' for Inactive)
REMARK    1  A    between atoms: C_2  and  C_3
REMARK    2  A    between atoms: C_3  and  C_4
REMARK    3  A    between atoms: N_11  and  C_12
REMARK    4  A    between atoms: C_17  and  N_18
REMARK                            x       y       z     vdW  Elec       q    Type
REMARK                         _______ _______ _______ _____ _____    ______ ____
ROOT
ATOM      1  O   UNL     1       2.942   6.561  19.795  0.00  0.00    +0.000 OA
ATOM      2  C   UNL     1       2.696   6.861  18.628  0.00  0.00    +0.000 C 
ATOM      3  N   UNL     1       2.536   5.948  17.593  0.00  0.00    +0.000 N 
ATOM      4  H   UNL     1       1.981   6.228  16.796  0.00  0.00    +0.000 HD
ENDROOT
BRANCH   3   5
ATOM      5  C   UNL     1       2.563   4.545  17.800  0.00  0.00    +0.000 A 
ATOM      6  C   UNL     1       1.435   3.910  18.337  0.00  0.00    +0.000 A 
ATOM      7  C   UNL     1       1.476   2.556  18.659  0.00  0.00    +0.000 A 
ATOM      8  C   UNL     1       2.631   1.826  18.410  0.00  0.00    +0.000 A 
ATOM      9  C   UNL     1       3.757   2.456  17.870  0.00  0.00    +0.000 A 
ATOM     10  C   UNL     1       3.770   3.831  17.571  0.00  0.00    +0.000 A 
BRANCH  10  11
ATOM     11  N   UNL     1       4.920   4.470  17.114  0.00  0.00    +0.000 N 
ATOM     12  C   UNL     1       5.923   4.994  18.063  0.00  0.00    +0.000 C 
ATOM     13  C   UNL     1       6.622   6.190  17.390  0.00  0.00    +0.000 C 
ATOM     14  O   UNL     1       7.206   5.839  16.121  0.00  0.00    +0.000 OA
ATOM     15  C   UNL     1       6.227   5.259  15.237  0.00  0.00    +0.000 C 
ATOM     16  C   UNL     1       5.579   4.015  15.872  0.00  0.00    +0.000 C 
ENDBRANCH  10  11
ENDBRANCH   3   5
BRANCH   2  17
ATOM     17  C   UNL     1       2.526   8.314  18.199  0.00  0.00    +0.000 C 
BRANCH  17  18
ATOM     18  C   UNL     1       1.303   9.028  18.749  0.00  0.00    +0.000 A 
ATOM     19  C   UNL     1       1.153   9.261  20.124  0.00  0.00    +0.000 A 
ATOM     20  C   UNL     1       0.078  10.009  20.617  0.00  0.00    +0.000 A 
ATOM     21  C   UNL     1      -0.863  10.544  19.737  0.00  0.00    +0.000 A 
ATOM     22  C   UNL     1      -0.728  10.321  18.369  0.00  0.00    +0.000 A 
ATOM     23 CL   UNL     1      -1.872  10.998  17.276  0.00  0.00    +0.000 Cl
ATOM     24  C   UNL     1       0.346   9.567  17.874  0.00  0.00    +0.000 A 
ENDBRANCH  17  18
ENDBRANCH   2  17
TORSDOF 4
ENDMDL
MODEL 3
REMARK VINA RESULT:      -7.8      0.507      1.097
REMARK  Name = 
REMARK  4 active torsions:
REMARK  status: ('A' for Active; 'I' for Inactive)
REMARK    1  A    between atoms: C_2  and  C_3
REMARK    2  A    between atoms: C_3  and  C_4
REMARK    3  A    between atoms: N_11  and  C_12
REMARK    4  A    between atoms: C_17  and  N_18
REMARK                            x       y       z     vdW  Elec       q    Type
REMARK                         _______ _______ _______ _____ _____    ______ ____
ROOT
ATOM      1  O   UNL     1       2.525   6.371  19.904  0.00  0.00    +0.000 OA
ATOM      2  C   UNL     1       2.626   6.681  18.718  0.00  0.00    +0.000 C 
ATOM      3  N   UNL     1       2.721   5.775  17.669  0.00  0.00    +0.000 N 
ATOM      4  H   UNL     1       2.420   6.080  16.753  0.00  0.00    +0.000 HD
ENDROOT
BRANCH   3   5
ATOM      5  C   UNL     1       2.630   4.373  17.859  0.00  0.00    +0.000 A 
ATOM      6  C   UNL     1       1.434   3.822  18.338  0.00  0.00    +0.000 A 
ATOM      7  C   UNL     1       1.356   2.467  18.644  0.00  0.00    +0.000 A 
ATOM      8  C   UNL     1       2.461   1.651  18.434  0.00  0.00    +0.000 A 
ATOM      9  C   UNL     1       3.655   2.197  17.952  0.00  0.00    +0.000 A 
ATOM     10  C   UNL     1       3.787   3.570  17.672  0.00  0.00    +0.000 A 
BRANCH  10  11
ATOM     11  N   UNL     1       5.001   4.122  17.272  0.00  0.00    +0.000 N 
ATOM     12  C   UNL     1       5.173   4.669  15.912  0.00  0.00    +0.000 C 
ATOM     13  C   UNL     1       6.659   4.525  15.534  0.00  0.00    +0.000 C 
ATOM     14  O   UNL     1       7.530   5.160  16.490  0.00  0.00    +0.000 OA
ATOM     15  C   UNL     1       7.293   4.667  17.822  0.00  0.00    +0.000 C 
ATOM     16  C   UNL     1       5.826   4.880  18.237  0.00  0.00    +0.000 C 
ENDBRANCH  10  11
ENDBRANCH   3   5
BRANCH   2  17
ATOM     17  C   UNL     1       2.642   8.140  18.276  0.00  0.00    +0.000 C 
BRANCH  17  18
ATOM     18  C   UNL     1       1.475   8.988  18.750  0.00  0.00    +0.000 A 
ATOM     19  C   UNL     1       0.590   9.586  17.840  0.00  0.00    +0.000 A 
ATOM     20  C   UNL     1      -0.542  10.279  18.281  0.00  0.00    +0.000 A 
ATOM     21  C   UNL     1      -0.813  10.378  19.646  0.00  0.00    +0.000 A 
ATOM     22  C   UNL     1       0.056   9.792  20.562  0.00  0.00    +0.000 A 
ATOM     23 CL   UNL     1      -0.285   9.892  22.246  0.00  0.00    +0.000 Cl
ATOM     24  C   UNL     1       1.195   9.101  20.122  0.00  0.00    +0.000 A 
ENDBRANCH  17  18
ENDBRANCH   2  17
TORSDOF 4
ENDMDL
MODEL 4
REMARK VINA RESULT:      -7.7      1.783      1.895
REMARK  Name = 
REMARK  4 active torsions:
REMARK  status: ('A' for Active; 'I' for Inactive)
REMARK    1  A    between atoms: C_2  and  C_3
REMARK    2  A    between atoms: C_3  and  C_4
REMARK    3  A    between atoms: N_11  and  C_12
REMARK    4  A    between atoms: C_17  and  N_18
REMARK                            x       y       z     vdW  Elec       q    Type
REMARK                         _______ _______ _______ _____ _____    ______ ____
ROOT
ATOM      1  O   UNL     1       2.231   7.641  19.886  0.00  0.00    +0.000 OA
ATOM      2  C   UNL     1       2.420   7.541  18.674  0.00  0.00    +0.000 C 
ATOM      3  N   UNL     1       2.814   6.375  18.030  0.00  0.00    +0.000 N 
ATOM      4  H   UNL     1       2.580   6.274  17.051  0.00  0.00    +0.000 HD
ENDROOT
BRANCH   3   5
ATOM      5  C   UNL     1       2.963   5.139  18.708  0.00  0.00    +0.000 A 
ATOM      6  C   UNL     1       1.913   4.663  19.506  0.00  0.00    +0.000 A 
ATOM      7  C   UNL     1       2.077   3.515  20.274  0.00  0.00    +0.000 A 
ATOM      8  C   UNL     1       3.276   2.816  20.217  0.00  0.00    +0.000 A 
ATOM      9  C   UNL     1       4.324   3.284  19.418  0.00  0.00    +0.000 A 
ATOM     10  C   UNL     1       4.213   4.466  18.661  0.00  0.00    +0.000 A 
BRANCH  10  11
ATOM     11  N   UNL     1       5.288   4.973  17.934  0.00  0.00    +0.000 N 
ATOM     12  C   UNL     1       6.448   5.576  18.620  0.00  0.00    +0.000 C 
ATOM     13  C   UNL     1       7.057   6.626  17.672  0.00  0.00    +0.000 C 
ATOM     14  O   UNL     1       7.412   6.066  16.393  0.00  0.00    +0.000 OA
ATOM     15  C   UNL     1       6.285   5.417  15.775  0.00  0.00    +0.000 C 
ATOM     16  C   UNL     1       5.718   4.311  16.684  0.00  0.00    +0.000 C 
ENDBRANCH  10  11
ENDBRANCH   3   5
BRANCH   2  17
ATOM     17  C   UNL     1       2.220   8.726  17.737  0.00  0.00    +0.000 C 
BRANCH  17  18
ATOM     18  C   UNL     1       1.123   9.701  18.128  0.00  0.00    +0.000 A 
ATOM     19  C   UNL     1       1.425  10.949  18.695  0.00  0.00    +0.000 A 
ATOM     20  C   UNL     1       0.418  11.885  18.957  0.00  0.00    +0.000 A 
ATOM     21  C   UNL     1      -0.909  11.590  18.647  0.00  0.00    +0.000 A 
ATOM     22  C   UNL     1      -1.225  10.356  18.085  0.00  0.00    +0.000 A 
ATOM     23 CL   UNL     1      -2.857   9.995  17.679  0.00  0.00    +0.000 Cl
ATOM     24  C   UNL     1      -0.218   9.413  17.826  0.00  0.00    +0.000 A 
ENDBRANCH  17  18
ENDBRANCH   2  17
TORSDOF 4
ENDMDL
MODEL 5
REMARK VINA RESULT:      -7.7      1.602      1.891
REMARK  Name = 
REMARK  4 active torsions:
REMARK  status: ('A' for Active; 'I' for Inactive)
REMARK    1  A    between atoms: C_2  and  C_3
REMARK    2  A    between atoms: C_3  and  C_4
REMARK    3  A    between atoms: N_11  and  C_12
REMARK    4  A    between atoms: C_17  and  N_18
REMARK                            x       y       z     vdW  Elec       q    Type
REMARK                         _______ _______ _______ _____ _____    ______ ____
ROOT
ATOM      1  O   UNL     1       1.786   5.712  17.842  0.00  0.00    +0.000 OA
ATOM      2  C   UNL     1       2.526   6.422  18.521  0.00  0.00    +0.000 C 
ATOM      3  N   UNL     1       3.291   5.972  19.591  0.00  0.00    +0.000 N 
ATOM      4  H   UNL     1       4.120   6.498  19.832  0.00  0.00    +0.000 HD
ENDROOT
BRANCH   3   5
ATOM      5  C   UNL     1       3.355   4.606  19.964  0.00  0.00    +0.000 A 
ATOM      6  C   UNL     1       2.438   4.107  20.899  0.00  0.00    +0.000 A 
ATOM      7  C   UNL     1       2.552   2.802  21.370  0.00  0.00    +0.000 A 
ATOM      8  C   UNL     1       3.560   1.980  20.878  0.00  0.00    +0.000 A 
ATOM      9  C   UNL     1       4.473   2.474  19.941  0.00  0.00    +0.000 A 
ATOM     10  C   UNL     1       4.418   3.800  19.474  0.00  0.00    +0.000 A 
BRANCH  10  11
ATOM     11  N   UNL     1       5.380   4.312  18.606  0.00  0.00    +0.000 N 
ATOM     12  C   UNL     1       5.106   4.436  17.160  0.00  0.00    +0.000 C 
ATOM     13  C   UNL     1       6.450   4.316  16.418  0.00  0.00    +0.000 C 
ATOM     14  O   UNL     1       7.414   5.285  16.874  0.00  0.00    +0.000 OA
ATOM     15  C   UNL     1       7.610   5.198  18.298  0.00  0.00    +0.000 C 
ATOM     16  C   UNL     1       6.281   5.395  19.051  0.00  0.00    +0.000 C 
ENDBRANCH  10  11
ENDBRANCH   3   5
BRANCH   2  17
ATOM     17  C   UNL     1       2.687   7.910  18.231  0.00  0.00    +0.000 C 
BRANCH  17  18
ATOM     18  C   UNL     1       1.617   8.817  18.813  0.00  0.00    +0.000 A 
ATOM     19  C   UNL     1       0.880   9.691  18.000  0.00  0.00    +0.000 A 
ATOM     20  C   UNL     1      -0.174  10.448  18.523  0.00  0.00    +0.000 A 
ATOM     21  C   UNL     1      -0.514  10.336  19.871  0.00  0.00    +0.000 A 
ATOM     22  C   UNL     1       0.209   9.475  20.692  0.00  0.00    +0.000 A 
ATOM     23 CL   UNL     1      -0.220   9.315  22.351  0.00  0.00    +0.000 Cl
ATOM     24  C   UNL     1       1.269   8.718  20.171  0.00  0.00    +0.000 A 
ENDBRANCH  17  18
ENDBRANCH   2  17
TORSDOF 4
ENDMDL
MODEL 6
REMARK VINA RESULT:      -7.7      1.497      1.497
REMARK  Name = 
REMARK  4 active torsions:
REMARK  status: ('A' for Active; 'I' for Inactive)
REMARK    1  A    between atoms: C_2  and  C_3
REMARK    2  A    between atoms: C_3  and  C_4
REMARK    3  A    between atoms: N_11  and  C_12
REMARK    4  A    between atoms: C_17  and  N_18
REMARK                            x       y       z     vdW  Elec       q    Type
REMARK                         _______ _______ _______ _____ _____    ______ ____
ROOT
ATOM      1  O   UNL     1       1.765   6.153  17.656  0.00  0.00    +0.000 OA
ATOM      2  C   UNL     1       2.406   6.863  18.429  0.00  0.00    +0.000 C 
ATOM      3  N   UNL     1       3.132   6.394  19.517  0.00  0.00    +0.000 N 
ATOM      4  H   UNL     1       3.903   6.958  19.849  0.00  0.00    +0.000 HD
ENDROOT
BRANCH   3   5
ATOM      5  C   UNL     1       3.273   5.013  19.804  0.00  0.00    +0.000 A 
ATOM      6  C   UNL     1       2.463   4.430  20.787  0.00  0.00    +0.000 A 
ATOM      7  C   UNL     1       2.660   3.107  21.170  0.00  0.00    +0.000 A 
ATOM      8  C   UNL     1       3.643   2.351  20.544  0.00  0.00    +0.000 A 
ATOM      9  C   UNL     1       4.452   2.928  19.559  0.00  0.00    +0.000 A 
ATOM     10  C   UNL     1       4.312   4.275  19.175  0.00  0.00    +0.000 A 
BRANCH  10  11
ATOM     11  N   UNL     1       5.173   4.867  18.255  0.00  0.00    +0.000 N 
ATOM     12  C   UNL     1       6.612   5.017  18.553  0.00  0.00    +0.000 C 
ATOM     13  C   UNL     1       7.121   6.252  17.786  0.00  0.00    +0.000 C 
ATOM     14  O   UNL     1       6.866   6.159  16.372  0.00  0.00    +0.000 OA
ATOM     15  C   UNL     1       5.468   5.936  16.105  0.00  0.00    +0.000 C 
ATOM     16  C   UNL     1       4.970   4.658  16.806  0.00  0.00    +0.000 C 
ENDBRANCH  10  11
ENDBRANCH   3   5
BRANCH   2  17
ATOM     17  C   UNL     1       2.474   8.375  18.248  0.00  0.00    +0.000 C 
BRANCH  17  18
ATOM     18  C   UNL     1       1.344   9.169  18.880  0.00  0.00    +0.000 A 
ATOM     19  C   UNL     1       0.467   9.937  18.100  0.00  0.00    +0.000 A 
ATOM     20  C   UNL     1      -0.634  10.582  18.674  0.00  0.00    +0.000 A 
ATOM     21  C   UNL     1      -0.880  10.462  20.041  0.00  0.00    +0.000 A 
ATOM     22  C   UNL     1      -0.018   9.706  20.830  0.00  0.00    +0.000 A 
ATOM     23 CL   UNL     1      -0.329   9.535  22.514  0.00  0.00    +0.000 Cl
ATOM     24  C   UNL     1       1.090   9.062  20.258  0.00  0.00    +0.000 A 
ENDBRANCH  17  18
ENDBRANCH   2  17
TORSDOF 4
ENDMDL
MODEL 7
REMARK VINA RESULT:      -7.6      1.365      1.909
REMARK  Name = 
REMARK  4 active torsions:
REMARK  status: ('A' for Active; 'I' for Inactive)
REMARK    1  A    between atoms: C_2  and  C_3
REMARK    2  A    between atoms: C_3  and  C_4
REMARK    3  A    between atoms: N_11  and  C_12
REMARK    4  A    between atoms: C_17  and  N_18
REMARK                            x       y       z     vdW  Elec       q    Type
REMARK                         _______ _______ _______ _____ _____    ______ ____
ROOT
ATOM      1  O   UNL     1       2.646   6.549  19.899  0.00  0.00    +0.000 OA
ATOM      2  C   UNL     1       2.618   6.882  18.715  0.00  0.00    +0.000 C 
ATOM      3  N   UNL     1       2.637   5.997  17.644  0.00  0.00    +0.000 N 
ATOM      4  H   UNL     1       2.238   6.307  16.768  0.00  0.00    +0.000 HD
ENDROOT
BRANCH   3   5
ATOM      5  C   UNL     1       2.610   4.590  17.814  0.00  0.00    +0.000 A 
ATOM      6  C   UNL     1       1.420   3.971  18.218  0.00  0.00    +0.000 A 
ATOM      7  C   UNL     1       1.396   2.609  18.505  0.00  0.00    +0.000 A 
ATOM      8  C   UNL     1       2.553   1.855  18.352  0.00  0.00    +0.000 A 
ATOM      9  C   UNL     1       3.742   2.469  17.945  0.00  0.00    +0.000 A 
ATOM     10  C   UNL     1       3.817   3.851  17.687  0.00  0.00    +0.000 A 
BRANCH  10  11
ATOM     11  N   UNL     1       5.021   4.471  17.364  0.00  0.00    +0.000 N 
ATOM     12  C   UNL     1       5.169   5.230  16.106  0.00  0.00    +0.000 C 
ATOM     13  C   UNL     1       6.650   5.161  15.690  0.00  0.00    +0.000 C 
ATOM     14  O   UNL     1       7.530   5.645  16.723  0.00  0.00    +0.000 OA
ATOM     15  C   UNL     1       7.317   4.944  17.963  0.00  0.00    +0.000 C 
ATOM     16  C   UNL     1       5.855   5.074  18.426  0.00  0.00    +0.000 C 
ENDBRANCH  10  11
ENDBRANCH   3   5
BRANCH   2  17
ATOM     17  C   UNL     1       2.544   8.348  18.303  0.00  0.00    +0.000 C 
BRANCH  17  18
ATOM     18  C   UNL     1       1.276   9.084  18.700  0.00  0.00    +0.000 A 
ATOM     19  C   UNL     1       1.112   9.610  19.990  0.00  0.00    +0.000 A 
ATOM     20  C   UNL     1      -0.011  10.376  20.320  0.00  0.00    +0.000 A 
ATOM     21  C   UNL     1      -0.987  10.637  19.358  0.00  0.00    +0.000 A 
ATOM     22  C   UNL     1      -0.839  10.121  18.074  0.00  0.00    +0.000 A 
ATOM     23 CL   UNL     1      -2.028  10.457  16.876  0.00  0.00    +0.000 Cl
ATOM     24  C   UNL     1       0.283   9.348  17.742  0.00  0.00    +0.000 A 
ENDBRANCH  17  18
ENDBRANCH   2  17
TORSDOF 4
ENDMDL
MODEL 8
REMARK VINA RESULT:      -7.6      1.888      2.139
REMARK  Name = 
REMARK  4 active torsions:
REMARK  status: ('A' for Active; 'I' for Inactive)
REMARK    1  A    between atoms: C_2  and  C_3
REMARK    2  A    between atoms: C_3  and  C_4
REMARK    3  A    between atoms: N_11  and  C_12
REMARK    4  A    between atoms: C_17  and  N_18
REMARK                            x       y       z     vdW  Elec       q    Type
REMARK                         _______ _______ _______ _____ _____    ______ ____
ROOT
ATOM      1  O   UNL     1       1.824   6.175  17.644  0.00  0.00    +0.000 OA
ATOM      2  C   UNL     1       2.395   6.883  18.472  0.00  0.00    +0.000 C 
ATOM      3  N   UNL     1       3.067   6.407  19.590  0.00  0.00    +0.000 N 
ATOM      4  H   UNL     1       3.800   6.983  19.983  0.00  0.00    +0.000 HD
ENDROOT
BRANCH   3   5
ATOM      5  C   UNL     1       3.233   5.022  19.851  0.00  0.00    +0.000 A 
ATOM      6  C   UNL     1       2.421   4.404  20.811  0.00  0.00    +0.000 A 
ATOM      7  C   UNL     1       2.641   3.077  21.170  0.00  0.00    +0.000 A 
ATOM      8  C   UNL     1       3.647   2.354  20.541  0.00  0.00    +0.000 A 
ATOM      9  C   UNL     1       4.456   2.967  19.579  0.00  0.00    +0.000 A 
ATOM     10  C   UNL     1       4.294   4.318  19.220  0.00  0.00    +0.000 A 
BRANCH  10  11
ATOM     11  N   UNL     1       5.155   4.947  18.324  0.00  0.00    +0.000 N 
ATOM     12  C   UNL     1       6.557   5.228  18.692  0.00  0.00    +0.000 C 
ATOM     13  C   UNL     1       7.007   6.471  17.903  0.00  0.00    +0.000 C 
ATOM     14  O   UNL     1       6.840   6.306  16.482  0.00  0.00    +0.000 OA
ATOM     15  C   UNL     1       5.483   5.957  16.151  0.00  0.00    +0.000 C 
ATOM     16  C   UNL     1       5.051   4.669  16.876  0.00  0.00    +0.000 C 
ENDBRANCH  10  11
ENDBRANCH   3   5
BRANCH   2  17
ATOM     17  C   UNL     1       2.428   8.401  18.333  0.00  0.00    +0.000 C 
BRANCH  17  18
ATOM     18  C   UNL     1       1.274   9.150  18.977  0.00  0.00    +0.000 A 
ATOM     19  C   UNL     1       1.079   9.135  20.366  0.00  0.00    +0.000 A 
ATOM     20  C   UNL     1       0.078   9.909  20.964  0.00  0.00    +0.000 A 
ATOM     21  C   UNL     1      -0.741  10.720  20.178  0.00  0.00    +0.000 A 
ATOM     22  C   UNL     1      -0.561  10.745  18.798  0.00  0.00    +0.000 A 
ATOM     23 CL   UNL     1      -1.553  11.761  17.826  0.00  0.00    +0.000 Cl
ATOM     24  C   UNL     1       0.438   9.966  18.196  0.00  0.00    +0.000 A 
ENDBRANCH  17  18
ENDBRANCH   2  17
TORSDOF 4
ENDMDL
MODEL 9
REMARK VINA RESULT:      -7.5      1.701      1.720
REMARK  Name = 
REMARK  4 active torsions:
REMARK  status: ('A' for Active; 'I' for Inactive)
REMARK    1  A    between atoms: C_2  and  C_3
REMARK    2  A    between atoms: C_3  and  C_4
REMARK    3  A    between atoms: N_11  and  C_12
REMARK    4  A    between atoms: C_17  and  N_18
REMARK                            x       y       z     vdW  Elec       q    Type
REMARK                         _______ _______ _______ _____ _____    ______ ____
ROOT
ATOM      1  O   UNL     1       2.185   7.698  19.868  0.00  0.00    +0.000 OA
ATOM      2  C   UNL     1       2.393   7.580  18.661  0.00  0.00    +0.000 C 
ATOM      3  N   UNL     1       2.803   6.407  18.039  0.00  0.00    +0.000 N 
ATOM      4  H   UNL     1       2.584   6.290  17.059  0.00  0.00    +0.000 HD
ENDROOT
BRANCH   3   5
ATOM      5  C   UNL     1       2.951   5.182  18.738  0.00  0.00    +0.000 A 
ATOM      6  C   UNL     1       1.900   4.722  19.544  0.00  0.00    +0.000 A 
ATOM      7  C   UNL     1       2.063   3.586  20.331  0.00  0.00    +0.000 A 
ATOM      8  C   UNL     1       3.261   2.885  20.286  0.00  0.00    +0.000 A 
ATOM      9  C   UNL     1       4.310   3.339  19.479  0.00  0.00    +0.000 A 
ATOM     10  C   UNL     1       4.200   4.508  18.702  0.00  0.00    +0.000 A 
BRANCH  10  11
ATOM     11  N   UNL     1       5.275   5.002  17.968  0.00  0.00    +0.000 N 
ATOM     12  C   UNL     1       6.447   5.593  18.644  0.00  0.00    +0.000 C 
ATOM     13  C   UNL     1       7.061   6.635  17.691  0.00  0.00    +0.000 C 
ATOM     14  O   UNL     1       7.401   6.069  16.410  0.00  0.00    +0.000 OA
ATOM     15  C   UNL     1       6.263   5.431  15.801  0.00  0.00    +0.000 C 
ATOM     16  C   UNL     1       5.691   4.333  16.717  0.00  0.00    +0.000 C 
ENDBRANCH  10  11
ENDBRANCH   3   5
BRANCH   2  17
ATOM     17  C   UNL     1       2.198   8.750  17.703  0.00  0.00    +0.000 C 
BRANCH  17  18
ATOM     18  C   UNL     1       1.143   9.766  18.105  0.00  0.00    +0.000 A 
ATOM     19  C   UNL     1      -0.221   9.528  17.885  0.00  0.00    +0.000 A 
ATOM     20  C   UNL     1      -1.195  10.418  18.350  0.00  0.00    +0.000 A 
ATOM     21  C   UNL     1      -0.817  11.562  19.053  0.00  0.00    +0.000 A 
ATOM     22  C   UNL     1       0.533  11.814  19.279  0.00  0.00    +0.000 A 
ATOM     23 CL   UNL     1       1.005  13.212  20.165  0.00  0.00    +0.000 Cl
ATOM     24  C   UNL     1       1.512  10.925  18.808  0.00  0.00    +0.000 A 
ENDBRANCH  17  18
ENDBRANCH   2  17
TORSDOF 4
ENDMDL
