MODEL 1
REMARK VINA RESULT:      -9.1      0.000      0.000
REMARK  Name = 
REMARK  10 active torsions:
REMARK  status: ('A' for Active; 'I' for Inactive)
REMARK    1  A    between atoms: N_4  and  C_5
REMARK    2  A    between atoms: C_7  and  O_8
REMARK    3  A    between atoms: O_8  and  C_9
REMARK    4  A    between atoms: C_9  and  C_10
REMARK    5  A    between atoms: C_10  and  C_11
REMARK    6  A    between atoms: N_25  and  C1*_26
REMARK    7  A    between atoms: C4*_28  and  C5*_29
REMARK    8  A    between atoms: C5*_29  and  O5*_30
REMARK    9  A    between atoms: C3*_31  and  O3*_32
REMARK   10  A    between atoms: C2*_33  and  O2*_34
REMARK                            x       y       z     vdW  Elec       q    Type
REMARK                         _______ _______ _______ _____ _____    ______ ____
ROOT
ATOM      1  C   UNL     1       6.473   5.134  15.372  0.00  0.00    +0.000 A 
ATOM      2  N   UNL     1       7.327   6.028  15.960  0.00  0.00    +0.000 NA
ATOM      3  C   UNL     1       7.147   6.361  17.253  0.00  0.00    +0.000 A 
ATOM      4  N   UNL     1       6.196   5.906  18.082  0.00  0.00    +0.000 NA
ATOM      5  C   UNL     1       5.350   5.077  17.466  0.00  0.00    +0.000 A 
ATOM      6  C   UNL     1       5.402   4.653  16.147  0.00  0.00    +0.000 A 
ATOM      7  N   UNL     1       4.359   3.795  15.871  0.00  0.00    +0.000 NA
ATOM      8  C   UNL     1       3.704   3.679  17.011  0.00  0.00    +0.000 A 
ATOM      9  N   UNL     1       4.277   4.424  18.008  0.00  0.00    +0.000 N 
ENDROOT
BRANCH   1  13
ATOM     10  N   UNL     1       7.596   4.609  11.959  0.00  0.00    +0.000 NA
ATOM     11  C   UNL     1       7.617   5.059  13.168  0.00  0.00    +0.000 C 
ATOM     12  N   UNL     1       8.610   5.869  13.591  0.00  0.00    +0.000 N 
ATOM     13  N   UNL     1       6.660   4.710  14.053  0.00  0.00    +0.000 N 
ATOM     14  H   UNL     1       8.420   4.960  11.469  0.00  0.00    +0.000 HD
ATOM     15  H   UNL     1       9.139   6.385  12.906  0.00  0.00    +0.000 HD
ATOM     16  H   UNL     1       8.363   6.413  14.417  0.00  0.00    +0.000 HD
ATOM     17  H   UNL     1       5.991   4.022  13.729  0.00  0.00    +0.000 HD
ENDBRANCH   1  13
BRANCH   9  18
ATOM     18  C1* UNL     1       3.869   4.427  19.400  0.00  0.00    +0.000 C 
ATOM     19  O4* UNL     1       3.694   3.070  19.856  0.00  0.00    +0.000 OA
ATOM     20  C4* UNL     1       2.482   3.000  20.653  0.00  0.00    +0.000 C 
ATOM     21  C3* UNL     1       2.015   4.438  20.872  0.00  0.00    +0.000 C 
ATOM     22  C2* UNL     1       2.572   5.188  19.674  0.00  0.00    +0.000 C 
BRANCH  21  23
ATOM     23  O3* UNL     1       2.595   5.017  22.057  0.00  0.00    +0.000 OA
ATOM     24  H3* UNL     1       2.569   5.991  21.982  0.00  0.00    +0.000 HD
ENDBRANCH  21  23
BRANCH  22  25
ATOM     25  O2* UNL     1       2.814   6.563  19.981  0.00  0.00    +0.000 OA
ATOM     26  H2* UNL     1       1.956   6.931  20.282  0.00  0.00    +0.000 HD
ENDBRANCH  22  25
BRANCH  20  27
ATOM     27  C5* UNL     1       1.446   2.132  19.933  0.00  0.00    +0.000 C 
BRANCH  27  28
ATOM     28  O5* UNL     1       0.242   2.872  19.735  0.00  0.00    +0.000 OA
ATOM     29  H5* UNL     1      -0.423   2.469  20.323  0.00  0.00    +0.000 HD
ENDBRANCH  27  28
ENDBRANCH  20  27
ENDBRANCH   9  18
BRANCH   3  30
ATOM     30  O   UNL     1       8.064   7.189  17.858  0.00  0.00    +0.000 OA
BRANCH  30  31
ATOM     31  C   UNL     1       7.848   8.576  17.583  0.00  0.00    +0.000 C 
BRANCH  31  32
ATOM     32  C   UNL     1       8.661   9.374  18.598  0.00  0.00    +0.000 C 
BRANCH  32  33
ATOM     33  C   UNL     1       8.927  10.785  18.186  0.00  0.00    +0.000 A 
ATOM     34  C   UNL     1       8.056  11.614  17.506  0.00  0.00    +0.000 A 
ATOM     35  N   UNL     1       8.653  12.838  17.357  0.00  0.00    +0.000 N 
ATOM     36  C   UNL     1       9.903  12.830  17.927  0.00  0.00    +0.000 A 
ATOM     37  C   UNL     1      10.854  13.853  18.027  0.00  0.00    +0.000 A 
ATOM     38  C   UNL     1      12.055  13.561  18.679  0.00  0.00    +0.000 A 
ATOM     39  C   UNL     1      12.295  12.294  19.206  0.00  0.00    +0.000 A 
ATOM     40  C   UNL     1      11.332  11.282  19.098  0.00  0.00    +0.000 A 
ATOM     41  C   UNL     1      10.109  11.552  18.448  0.00  0.00    +0.000 A 
ATOM     42  H   UNL     1       8.233  13.640  16.909  0.00  0.00    +0.000 HD
ENDBRANCH  32  33
ENDBRANCH  31  32
ENDBRANCH  30  31
ENDBRANCH   3  30
TORSDOF 10
ENDMDL
MODEL 2
REMARK VINA RESULT:      -9.0      1.038      1.219
REMARK  Name = 
REMARK  10 active torsions:
REMARK  status: ('A' for Active; 'I' for Inactive)
REMARK    1  A    between atoms: N_4  and  C_5
REMARK    2  A    between atoms: C_7  and  O_8
REMARK    3  A    between atoms: O_8  and  C_9
REMARK    4  A    between atoms: C_9  and  C_10
REMARK    5  A    between atoms: C_10  and  C_11
REMARK    6  A    between atoms: N_25  and  C1*_26
REMARK    7  A    between atoms: C4*_28  and  C5*_29
REMARK    8  A    between atoms: C5*_29  and  O5*_30
REMARK    9  A    between atoms: C3*_31  and  O3*_32
REMARK   10  A    between atoms: C2*_33  and  O2*_34
REMARK                            x       y       z     vdW  Elec       q    Type
REMARK                         _______ _______ _______ _____ _____    ______ ____
ROOT
ATOM      1  C   UNL     1       6.327   4.804  15.439  0.00  0.00    +0.000 A 
ATOM      2  N   UNL     1       7.242   5.789  15.695  0.00  0.00    +0.000 NA
ATOM      3  C   UNL     1       7.040   6.625  16.732  0.00  0.00    +0.000 A 
ATOM      4  N   UNL     1       6.010   6.616  17.591  0.00  0.00    +0.000 NA
ATOM      5  C   UNL     1       5.111   5.678  17.285  0.00  0.00    +0.000 A 
ATOM      6  C   UNL     1       5.178   4.758  16.250  0.00  0.00    +0.000 A 
ATOM      7  N   UNL     1       4.064   3.945  16.249  0.00  0.00    +0.000 NA
ATOM      8  C   UNL     1       3.350   4.347  17.283  0.00  0.00    +0.000 A 
ATOM      9  N   UNL     1       3.953   5.382  17.949  0.00  0.00    +0.000 N 
ENDROOT
BRANCH   1  13
ATOM     10  N   UNL     1       7.052   3.087  12.323  0.00  0.00    +0.000 NA
ATOM     11  C   UNL     1       6.990   4.065  13.161  0.00  0.00    +0.000 C 
ATOM     12  N   UNL     1       7.411   5.301  12.821  0.00  0.00    +0.000 N 
ATOM     13  N   UNL     1       6.528   3.873  14.415  0.00  0.00    +0.000 N 
ATOM     14  H   UNL     1       7.460   3.432  11.453  0.00  0.00    +0.000 HD
ATOM     15  H   UNL     1       7.458   5.544  11.844  0.00  0.00    +0.000 HD
ATOM     16  H   UNL     1       7.023   6.036  13.411  0.00  0.00    +0.000 HD
ATOM     17  H   UNL     1       6.318   2.914  14.665  0.00  0.00    +0.000 HD
ENDBRANCH   1  13
BRANCH   9  18
ATOM     18  C1* UNL     1       3.485   5.975  19.188  0.00  0.00    +0.000 C 
ATOM     19  O4* UNL     1       3.337   4.948  20.190  0.00  0.00    +0.000 OA
ATOM     20  C4* UNL     1       2.095   5.174  20.907  0.00  0.00    +0.000 C 
ATOM     21  C3* UNL     1       1.570   6.538  20.461  0.00  0.00    +0.000 C 
ATOM     22  C2* UNL     1       2.152   6.713  19.069  0.00  0.00    +0.000 C 
BRANCH  21  23
ATOM     23  O3* UNL     1       2.078   7.605  21.284  0.00  0.00    +0.000 OA
ATOM     24  H3* UNL     1       2.990   7.818  21.003  0.00  0.00    +0.000 HD
ENDBRANCH  21  23
BRANCH  22  25
ATOM     25  O2* UNL     1       2.333   8.093  18.746  0.00  0.00    +0.000 OA
ATOM     26  H2* UNL     1       2.722   8.115  17.845  0.00  0.00    +0.000 HD
ENDBRANCH  22  25
BRANCH  20  27
ATOM     27  C5* UNL     1       1.122   4.028  20.619  0.00  0.00    +0.000 C 
BRANCH  27  28
ATOM     28  O5* UNL     1       1.831   2.903  20.102  0.00  0.00    +0.000 OA
ATOM     29  H5* UNL     1       1.260   2.514  19.414  0.00  0.00    +0.000 HD
ENDBRANCH  27  28
ENDBRANCH  20  27
ENDBRANCH   9  18
BRANCH   3  30
ATOM     30  O   UNL     1       8.009   7.553  17.034  0.00  0.00    +0.000 OA
BRANCH  30  31
ATOM     31  C   UNL     1       7.502   8.712  17.702  0.00  0.00    +0.000 C 
BRANCH  31  32
ATOM     32  C   UNL     1       8.650   9.314  18.506  0.00  0.00    +0.000 C 
BRANCH  32  33
ATOM     33  C   UNL     1       8.919  10.750  18.195  0.00  0.00    +0.000 A 
ATOM     34  C   UNL     1       8.108  11.591  17.459  0.00  0.00    +0.000 A 
ATOM     35  N   UNL     1       8.680  12.835  17.439  0.00  0.00    +0.000 N 
ATOM     36  C   UNL     1       9.857  12.829  18.150  0.00  0.00    +0.000 A 
ATOM     37  C   UNL     1      10.758  13.869  18.409  0.00  0.00    +0.000 A 
ATOM     38  C   UNL     1      11.885  13.573  19.181  0.00  0.00    +0.000 A 
ATOM     39  C   UNL     1      12.100  12.288  19.671  0.00  0.00    +0.000 A 
ATOM     40  C   UNL     1      11.187  11.259  19.404  0.00  0.00    +0.000 A 
ATOM     41  C   UNL     1      10.039  11.531  18.629  0.00  0.00    +0.000 A 
ATOM     42  H   UNL     1       8.291  13.649  16.984  0.00  0.00    +0.000 HD
ENDBRANCH  32  33
ENDBRANCH  31  32
ENDBRANCH  30  31
ENDBRANCH   3  30
TORSDOF 10
ENDMDL
MODEL 3
REMARK VINA RESULT:      -8.9      5.277      8.954
REMARK  Name = 
REMARK  10 active torsions:
REMARK  status: ('A' for Active; 'I' for Inactive)
REMARK    1  A    between atoms: N_4  and  C_5
REMARK    2  A    between atoms: C_7  and  O_8
REMARK    3  A    between atoms: O_8  and  C_9
REMARK    4  A    between atoms: C_9  and  C_10
REMARK    5  A    between atoms: C_10  and  C_11
REMARK    6  A    between atoms: N_25  and  C1*_26
REMARK    7  A    between atoms: C4*_28  and  C5*_29
REMARK    8  A    between atoms: C5*_29  and  O5*_30
REMARK    9  A    between atoms: C3*_31  and  O3*_32
REMARK   10  A    between atoms: C2*_33  and  O2*_34
REMARK                            x       y       z     vdW  Elec       q    Type
REMARK                         _______ _______ _______ _____ _____    ______ ____
ROOT
ATOM      1  C   UNL     1       2.197   6.440  20.279  0.00  0.00    +0.000 A 
ATOM      2  N   UNL     1       2.650   6.440  18.987  0.00  0.00    +0.000 NA
ATOM      3  C   UNL     1       2.525   7.556  18.243  0.00  0.00    +0.000 A 
ATOM      4  N   UNL     1       1.992   8.727  18.622  0.00  0.00    +0.000 NA
ATOM      5  C   UNL     1       1.514   8.679  19.868  0.00  0.00    +0.000 A 
ATOM      6  C   UNL     1       1.561   7.606  20.744  0.00  0.00    +0.000 A 
ATOM      7  N   UNL     1       0.967   7.932  21.945  0.00  0.00    +0.000 NA
ATOM      8  C   UNL     1       0.593   9.190  21.807  0.00  0.00    +0.000 A 
ATOM      9  N   UNL     1       0.919   9.688  20.573  0.00  0.00    +0.000 N 
ENDROOT
BRANCH   1  13
ATOM     10  N   UNL     1       1.928   3.267  22.023  0.00  0.00    +0.000 NA
ATOM     11  C   UNL     1       1.670   4.169  21.138  0.00  0.00    +0.000 C 
ATOM     12  N   UNL     1       0.721   3.972  20.200  0.00  0.00    +0.000 N 
ATOM     13  N   UNL     1       2.364   5.327  21.108  0.00  0.00    +0.000 N 
ATOM     14  H   UNL     1       1.323   2.462  21.851  0.00  0.00    +0.000 HD
ATOM     15  H   UNL     1      -0.002   3.292  20.378  0.00  0.00    +0.000 HD
ATOM     16  H   UNL     1       0.379   4.837  19.783  0.00  0.00    +0.000 HD
ATOM     17  H   UNL     1       3.135   5.395  21.761  0.00  0.00    +0.000 HD
ENDBRANCH   1  13
BRANCH   9  18
ATOM     18  C1* UNL     1       0.748  11.065  20.147  0.00  0.00    +0.000 C 
ATOM     19  O4* UNL     1       0.688  11.926  21.303  0.00  0.00    +0.000 OA
ATOM     20  C4* UNL     1      -0.371  12.898  21.104  0.00  0.00    +0.000 C 
ATOM     21  C3* UNL     1      -0.834  12.756  19.655  0.00  0.00    +0.000 C 
ATOM     22  C2* UNL     1      -0.505  11.313  19.308  0.00  0.00    +0.000 C 
BRANCH  21  23
ATOM     23  O3* UNL     1      -0.081  13.601  18.765  0.00  0.00    +0.000 OA
ATOM     24  H3* UNL     1       0.271  14.362  19.269  0.00  0.00    +0.000 HD
ENDBRANCH  21  23
BRANCH  22  25
ATOM     25  O2* UNL     1      -0.253  11.154  17.911  0.00  0.00    +0.000 OA
ATOM     26  H2* UNL     1      -0.728  10.340  17.638  0.00  0.00    +0.000 HD
ENDBRANCH  22  25
BRANCH  20  27
ATOM     27  C5* UNL     1      -1.488  12.652  22.122  0.00  0.00    +0.000 C 
BRANCH  27  28
ATOM     28  O5* UNL     1      -0.975  11.944  23.250  0.00  0.00    +0.000 OA
ATOM     29  H5* UNL     1      -1.101  10.997  23.056  0.00  0.00    +0.000 HD
ENDBRANCH  27  28
ENDBRANCH  20  27
ENDBRANCH   9  18
BRANCH   3  30
ATOM     30  O   UNL     1       3.065   7.574  16.978  0.00  0.00    +0.000 OA
BRANCH  30  31
ATOM     31  C   UNL     1       4.492   7.490  16.965  0.00  0.00    +0.000 C 
BRANCH  31  32
ATOM     32  C   UNL     1       4.863   6.121  16.401  0.00  0.00    +0.000 C 
BRANCH  32  33
ATOM     33  C   UNL     1       5.049   5.068  17.445  0.00  0.00    +0.000 A 
ATOM     34  C   UNL     1       6.056   5.024  18.389  0.00  0.00    +0.000 A 
ATOM     35  N   UNL     1       5.852   3.930  19.187  0.00  0.00    +0.000 N 
ATOM     36  C   UNL     1       4.726   3.252  18.785  0.00  0.00    +0.000 A 
ATOM     37  C   UNL     1       4.132   2.099  19.314  0.00  0.00    +0.000 A 
ATOM     38  C   UNL     1       2.968   1.629  18.700  0.00  0.00    +0.000 A 
ATOM     39  C   UNL     1       2.424   2.285  17.599  0.00  0.00    +0.000 A 
ATOM     40  C   UNL     1       3.030   3.438  17.084  0.00  0.00    +0.000 A 
ATOM     41  C   UNL     1       4.205   3.936  17.687  0.00  0.00    +0.000 A 
ATOM     42  H   UNL     1       6.430   3.664  19.971  0.00  0.00    +0.000 HD
ENDBRANCH  32  33
ENDBRANCH  31  32
ENDBRANCH  30  31
ENDBRANCH   3  30
TORSDOF 10
ENDMDL
MODEL 4
REMARK VINA RESULT:      -8.7      1.344      1.597
REMARK  Name = 
REMARK  10 active torsions:
REMARK  status: ('A' for Active; 'I' for Inactive)
REMARK    1  A    between atoms: N_4  and  C_5
REMARK    2  A    between atoms: C_7  and  O_8
REMARK    3  A    between atoms: O_8  and  C_9
REMARK    4  A    between atoms: C_9  and  C_10
REMARK    5  A    between atoms: C_10  and  C_11
REMARK    6  A    between atoms: N_25  and  C1*_26
REMARK    7  A    between atoms: C4*_28  and  C5*_29
REMARK    8  A    between atoms: C5*_29  and  O5*_30
REMARK    9  A    between atoms: C3*_31  and  O3*_32
REMARK   10  A    between atoms: C2*_33  and  O2*_34
REMARK                            x       y       z     vdW  Elec       q    Type
REMARK                         _______ _______ _______ _____ _____    ______ ____
ROOT
ATOM      1  C   UNL     1       6.358   4.645  15.220  0.00  0.00    +0.000 A 
ATOM      2  N   UNL     1       7.266   5.629  15.505  0.00  0.00    +0.000 NA
ATOM      3  C   UNL     1       7.079   6.407  16.589  0.00  0.00    +0.000 A 
ATOM      4  N   UNL     1       6.071   6.337  17.472  0.00  0.00    +0.000 NA
ATOM      5  C   UNL     1       5.177   5.402  17.138  0.00  0.00    +0.000 A 
ATOM      6  C   UNL     1       5.230   4.540  16.055  0.00  0.00    +0.000 A 
ATOM      7  N   UNL     1       4.129   3.711  16.039  0.00  0.00    +0.000 NA
ATOM      8  C   UNL     1       3.436   4.048  17.110  0.00  0.00    +0.000 A 
ATOM      9  N   UNL     1       4.041   5.055  17.815  0.00  0.00    +0.000 N 
ENDROOT
BRANCH   1  13
ATOM     10  N   UNL     1       7.081   3.098  12.015  0.00  0.00    +0.000 NA
ATOM     11  C   UNL     1       7.038   4.025  12.912  0.00  0.00    +0.000 C 
ATOM     12  N   UNL     1       7.509   5.263  12.656  0.00  0.00    +0.000 N 
ATOM     13  N   UNL     1       6.546   3.773  14.143  0.00  0.00    +0.000 N 
ATOM     14  H   UNL     1       7.518   3.482  11.176  0.00  0.00    +0.000 HD
ATOM     15  H   UNL     1       7.584   5.564  11.698  0.00  0.00    +0.000 HD
ATOM     16  H   UNL     1       7.136   5.974  13.284  0.00  0.00    +0.000 HD
ATOM     17  H   UNL     1       6.297   2.809  14.330  0.00  0.00    +0.000 HD
ENDBRANCH   1  13
BRANCH   9  18
ATOM     18  C1* UNL     1       3.596   5.575  19.095  0.00  0.00    +0.000 C 
ATOM     19  O4* UNL     1       3.606   4.517  20.076  0.00  0.00    +0.000 OA
ATOM     20  C4* UNL     1       2.395   4.611  20.871  0.00  0.00    +0.000 C 
ATOM     21  C3* UNL     1       1.719   5.928  20.493  0.00  0.00    +0.000 C 
ATOM     22  C2* UNL     1       2.196   6.187  19.074  0.00  0.00    +0.000 C 
BRANCH  21  23
ATOM     23  O3* UNL     1       2.175   7.020  21.312  0.00  0.00    +0.000 OA
ATOM     24  H3* UNL     1       1.619   7.805  21.137  0.00  0.00    +0.000 HD
ENDBRANCH  21  23
BRANCH  22  25
ATOM     25  O2* UNL     1       2.229   7.584  18.777  0.00  0.00    +0.000 OA
ATOM     26  H2* UNL     1       1.348   7.805  18.404  0.00  0.00    +0.000 HD
ENDBRANCH  22  25
BRANCH  20  27
ATOM     27  C5* UNL     1       1.516   3.384  20.609  0.00  0.00    +0.000 C 
BRANCH  27  28
ATOM     28  O5* UNL     1       0.950   2.918  21.834  0.00  0.00    +0.000 OA
ATOM     29  H5* UNL     1       1.557   2.232  22.168  0.00  0.00    +0.000 HD
ENDBRANCH  27  28
ENDBRANCH  20  27
ENDBRANCH   9  18
BRANCH   3  30
ATOM     30  O   UNL     1       8.043   7.332  16.916  0.00  0.00    +0.000 OA
BRANCH  30  31
ATOM     31  C   UNL     1       7.682   8.165  18.021  0.00  0.00    +0.000 C 
BRANCH  31  32
ATOM     32  C   UNL     1       8.161   9.578  17.701  0.00  0.00    +0.000 C 
BRANCH  32  33
ATOM     33  C   UNL     1       8.983  10.198  18.784  0.00  0.00    +0.000 A 
ATOM     34  C   UNL     1       8.834   9.991  20.141  0.00  0.00    +0.000 A 
ATOM     35  N   UNL     1       9.805  10.701  20.795  0.00  0.00    +0.000 N 
ATOM     36  C   UNL     1      10.593  11.374  19.892  0.00  0.00    +0.000 A 
ATOM     37  C   UNL     1      11.703  12.202  20.105  0.00  0.00    +0.000 A 
ATOM     38  C   UNL     1      12.324  12.754  18.982  0.00  0.00    +0.000 A 
ATOM     39  C   UNL     1      11.851  12.492  17.699  0.00  0.00    +0.000 A 
ATOM     40  C   UNL     1      10.740  11.661  17.504  0.00  0.00    +0.000 A 
ATOM     41  C   UNL     1      10.095  11.087  18.620  0.00  0.00    +0.000 A 
ATOM     42  H   UNL     1       9.941  10.718  21.796  0.00  0.00    +0.000 HD
ENDBRANCH  32  33
ENDBRANCH  31  32
ENDBRANCH  30  31
ENDBRANCH   3  30
TORSDOF 10
ENDMDL
MODEL 5
REMARK VINA RESULT:      -8.6      1.004      1.220
REMARK  Name = 
REMARK  10 active torsions:
REMARK  status: ('A' for Active; 'I' for Inactive)
REMARK    1  A    between atoms: N_4  and  C_5
REMARK    2  A    between atoms: C_7  and  O_8
REMARK    3  A    between atoms: O_8  and  C_9
REMARK    4  A    between atoms: C_9  and  C_10
REMARK    5  A    between atoms: C_10  and  C_11
REMARK    6  A    between atoms: N_25  and  C1*_26
REMARK    7  A    between atoms: C4*_28  and  C5*_29
REMARK    8  A    between atoms: C5*_29  and  O5*_30
REMARK    9  A    between atoms: C3*_31  and  O3*_32
REMARK   10  A    between atoms: C2*_33  and  O2*_34
REMARK                            x       y       z     vdW  Elec       q    Type
REMARK                         _______ _______ _______ _____ _____    ______ ____
ROOT
ATOM      1  C   UNL     1       6.458   5.163  15.310  0.00  0.00    +0.000 A 
ATOM      2  N   UNL     1       7.298   6.070  15.898  0.00  0.00    +0.000 NA
ATOM      3  C   UNL     1       7.095   6.422  17.183  0.00  0.00    +0.000 A 
ATOM      4  N   UNL     1       6.132   5.975  18.002  0.00  0.00    +0.000 NA
ATOM      5  C   UNL     1       5.300   5.132  17.385  0.00  0.00    +0.000 A 
ATOM      6  C   UNL     1       5.376   4.688  16.074  0.00  0.00    +0.000 A 
ATOM      7  N   UNL     1       4.342   3.821  15.794  0.00  0.00    +0.000 NA
ATOM      8  C   UNL     1       3.669   3.719  16.924  0.00  0.00    +0.000 A 
ATOM      9  N   UNL     1       4.222   4.482  17.919  0.00  0.00    +0.000 N 
ENDROOT
BRANCH   1  13
ATOM     10  N   UNL     1       7.643   4.588  11.926  0.00  0.00    +0.000 NA
ATOM     11  C   UNL     1       7.642   5.056  13.128  0.00  0.00    +0.000 C 
ATOM     12  N   UNL     1       8.627   5.872  13.557  0.00  0.00    +0.000 N 
ATOM     13  N   UNL     1       6.669   4.720  14.001  0.00  0.00    +0.000 N 
ATOM     14  H   UNL     1       8.476   4.932  11.446  0.00  0.00    +0.000 HD
ATOM     15  H   UNL     1       9.169   6.378  12.874  0.00  0.00    +0.000 HD
ATOM     16  H   UNL     1       8.365   6.428  14.370  0.00  0.00    +0.000 HD
ATOM     17  H   UNL     1       6.006   4.027  13.675  0.00  0.00    +0.000 HD
ENDBRANCH   1  13
BRANCH   9  18
ATOM     18  C1* UNL     1       3.791   4.504  19.304  0.00  0.00    +0.000 C 
ATOM     19  O4* UNL     1       3.560   3.156  19.761  0.00  0.00    +0.000 OA
ATOM     20  C4* UNL     1       2.333   3.132  20.537  0.00  0.00    +0.000 C 
ATOM     21  C3* UNL     1       1.914   4.587  20.745  0.00  0.00    +0.000 C 
ATOM     22  C2* UNL     1       2.518   5.312  19.554  0.00  0.00    +0.000 C 
BRANCH  21  23
ATOM     23  O3* UNL     1       2.494   5.148  21.937  0.00  0.00    +0.000 OA
ATOM     24  H3* UNL     1       3.373   4.744  22.086  0.00  0.00    +0.000 HD
ENDBRANCH  21  23
BRANCH  22  25
ATOM     25  O2* UNL     1       2.804   6.678  19.862  0.00  0.00    +0.000 OA
ATOM     26  H2* UNL     1       2.622   6.787  20.820  0.00  0.00    +0.000 HD
ENDBRANCH  22  25
BRANCH  20  27
ATOM     27  C5* UNL     1       1.279   2.299  19.803  0.00  0.00    +0.000 C 
BRANCH  27  28
ATOM     28  O5* UNL     1       1.905   1.478  18.818  0.00  0.00    +0.000 OA
ATOM     29  H5* UNL     1       1.241   0.813  18.558  0.00  0.00    +0.000 HD
ENDBRANCH  27  28
ENDBRANCH  20  27
ENDBRANCH   9  18
BRANCH   3  30
ATOM     30  O   UNL     1       7.997   7.264  17.790  0.00  0.00    +0.000 OA
BRANCH  30  31
ATOM     31  C   UNL     1       7.558   8.624  17.848  0.00  0.00    +0.000 C 
BRANCH  31  32
ATOM     32  C   UNL     1       8.754   9.504  17.496  0.00  0.00    +0.000 C 
BRANCH  32  33
ATOM     33  C   UNL     1       9.264  10.317  18.641  0.00  0.00    +0.000 A 
ATOM     34  C   UNL     1       9.003  10.096  19.979  0.00  0.00    +0.000 A 
ATOM     35  N   UNL     1       9.688  11.028  20.713  0.00  0.00    +0.000 N 
ATOM     36  C   UNL     1      10.399  11.859  19.880  0.00  0.00    +0.000 A 
ATOM     37  C   UNL     1      11.245  12.932  20.188  0.00  0.00    +0.000 A 
ATOM     38  C   UNL     1      11.852  13.604  19.123  0.00  0.00    +0.000 A 
ATOM     39  C   UNL     1      11.618  13.220  17.806  0.00  0.00    +0.000 A 
ATOM     40  C   UNL     1      10.769  12.143  17.516  0.00  0.00    +0.000 A 
ATOM     41  C   UNL     1      10.146  11.445  18.572  0.00  0.00    +0.000 A 
ATOM     42  H   UNL     1       9.691  11.089  21.721  0.00  0.00    +0.000 HD
ENDBRANCH  32  33
ENDBRANCH  31  32
ENDBRANCH  30  31
ENDBRANCH   3  30
TORSDOF 10
ENDMDL
MODEL 6
REMARK VINA RESULT:      -8.5      4.673      6.180
REMARK  Name = 
REMARK  10 active torsions:
REMARK  status: ('A' for Active; 'I' for Inactive)
REMARK    1  A    between atoms: N_4  and  C_5
REMARK    2  A    between atoms: C_7  and  O_8
REMARK    3  A    between atoms: O_8  and  C_9
REMARK    4  A    between atoms: C_9  and  C_10
REMARK    5  A    between atoms: C_10  and  C_11
REMARK    6  A    between atoms: N_25  and  C1*_26
REMARK    7  A    between atoms: C4*_28  and  C5*_29
REMARK    8  A    between atoms: C5*_29  and  O5*_30
REMARK    9  A    between atoms: C3*_31  and  O3*_32
REMARK   10  A    between atoms: C2*_33  and  O2*_34
REMARK                            x       y       z     vdW  Elec       q    Type
REMARK                         _______ _______ _______ _____ _____    ______ ____
ROOT
ATOM      1  C   UNL     1       5.033   5.733  16.235  0.00  0.00    +0.000 A 
ATOM      2  N   UNL     1       4.527   6.885  16.775  0.00  0.00    +0.000 NA
ATOM      3  C   UNL     1       3.670   6.807  17.812  0.00  0.00    +0.000 A 
ATOM      4  N   UNL     1       3.228   5.694  18.416  0.00  0.00    +0.000 NA
ATOM      5  C   UNL     1       3.699   4.588  17.835  0.00  0.00    +0.000 A 
ATOM      6  C   UNL     1       4.574   4.511  16.762  0.00  0.00    +0.000 A 
ATOM      7  N   UNL     1       4.836   3.197  16.442  0.00  0.00    +0.000 NA
ATOM      8  C   UNL     1       4.154   2.490  17.323  0.00  0.00    +0.000 A 
ATOM      9  N   UNL     1       3.465   3.290  18.196  0.00  0.00    +0.000 N 
ENDROOT
BRANCH   1  13
ATOM     10  N   UNL     1       7.991   5.470  14.145  0.00  0.00    +0.000 NA
ATOM     11  C   UNL     1       7.238   5.293  15.178  0.00  0.00    +0.000 C 
ATOM     12  N   UNL     1       7.681   4.606  16.251  0.00  0.00    +0.000 N 
ATOM     13  N   UNL     1       5.974   5.767  15.202  0.00  0.00    +0.000 N 
ATOM     14  H   UNL     1       8.885   5.008  14.314  0.00  0.00    +0.000 HD
ATOM     15  H   UNL     1       8.674   4.519  16.395  0.00  0.00    +0.000 HD
ATOM     16  H   UNL     1       7.156   4.805  17.102  0.00  0.00    +0.000 HD
ATOM     17  H   UNL     1       5.645   6.186  14.341  0.00  0.00    +0.000 HD
ENDBRANCH   1  13
BRANCH   9  18
ATOM     18  C1* UNL     1       2.712   2.830  19.348  0.00  0.00    +0.000 C 
ATOM     19  O4* UNL     1       1.402   3.433  19.343  0.00  0.00    +0.000 OA
ATOM     20  C4* UNL     1       1.080   3.855  20.694  0.00  0.00    +0.000 C 
ATOM     21  C3* UNL     1       2.162   3.281  21.606  0.00  0.00    +0.000 C 
ATOM     22  C2* UNL     1       3.369   3.138  20.694  0.00  0.00    +0.000 C 
BRANCH  21  23
ATOM     23  O3* UNL     1       1.819   1.966  22.084  0.00  0.00    +0.000 OA
ATOM     24  H3* UNL     1       0.967   2.012  22.561  0.00  0.00    +0.000 HD
ENDBRANCH  21  23
BRANCH  22  25
ATOM     25  O2* UNL     1       4.230   2.081  21.122  0.00  0.00    +0.000 OA
ATOM     26  H2* UNL     1       3.714   1.252  21.026  0.00  0.00    +0.000 HD
ENDBRANCH  22  25
BRANCH  20  27
ATOM     27  C5* UNL     1       0.996   5.384  20.745  0.00  0.00    +0.000 C 
BRANCH  27  28
ATOM     28  O5* UNL     1       2.252   5.929  21.147  0.00  0.00    +0.000 OA
ATOM     29  H5* UNL     1       2.096   6.363  22.006  0.00  0.00    +0.000 HD
ENDBRANCH  27  28
ENDBRANCH  20  27
ENDBRANCH   9  18
BRANCH   3  30
ATOM     30  O   UNL     1       3.239   7.971  18.404  0.00  0.00    +0.000 OA
BRANCH  30  31
ATOM     31  C   UNL     1       2.552   8.847  17.507  0.00  0.00    +0.000 C 
BRANCH  31  32
ATOM     32  C   UNL     1       1.110   8.958  17.993  0.00  0.00    +0.000 C 
BRANCH  32  33
ATOM     33  C   UNL     1       0.882  10.075  18.959  0.00  0.00    +0.000 A 
ATOM     34  C   UNL     1       1.080  11.420  18.713  0.00  0.00    +0.000 A 
ATOM     35  N   UNL     1       0.715  12.122  19.831  0.00  0.00    +0.000 N 
ATOM     36  C   UNL     1       0.280  11.262  20.811  0.00  0.00    +0.000 A 
ATOM     37  C   UNL     1      -0.200  11.534  22.099  0.00  0.00    +0.000 A 
ATOM     38  C   UNL     1      -0.587  10.448  22.888  0.00  0.00    +0.000 A 
ATOM     39  C   UNL     1      -0.495   9.144  22.408  0.00  0.00    +0.000 A 
ATOM     40  C   UNL     1      -0.014   8.890  21.117  0.00  0.00    +0.000 A 
ATOM     41  C   UNL     1       0.381   9.969  20.298  0.00  0.00    +0.000 A 
ATOM     42  H   UNL     1       0.743  13.127  19.922  0.00  0.00    +0.000 HD
ENDBRANCH  32  33
ENDBRANCH  31  32
ENDBRANCH  30  31
ENDBRANCH   3  30
TORSDOF 10
ENDMDL
MODEL 7
REMARK VINA RESULT:      -8.4      1.542      1.720
REMARK  Name = 
REMARK  10 active torsions:
REMARK  status: ('A' for Active; 'I' for Inactive)
REMARK    1  A    between atoms: N_4  and  C_5
REMARK    2  A    between atoms: C_7  and  O_8
REMARK    3  A    between atoms: O_8  and  C_9
REMARK    4  A    between atoms: C_9  and  C_10
REMARK    5  A    between atoms: C_10  and  C_11
REMARK    6  A    between atoms: N_25  and  C1*_26
REMARK    7  A    between atoms: C4*_28  and  C5*_29
REMARK    8  A    between atoms: C5*_29  and  O5*_30
REMARK    9  A    between atoms: C3*_31  and  O3*_32
REMARK   10  A    between atoms: C2*_33  and  O2*_34
REMARK                            x       y       z     vdW  Elec       q    Type
REMARK                         _______ _______ _______ _____ _____    ______ ____
ROOT
ATOM      1  C   UNL     1       6.373   4.849  15.495  0.00  0.00    +0.000 A 
ATOM      2  N   UNL     1       7.359   5.730  15.850  0.00  0.00    +0.000 NA
ATOM      3  C   UNL     1       7.189   6.509  16.936  0.00  0.00    +0.000 A 
ATOM      4  N   UNL     1       6.129   6.534  17.757  0.00  0.00    +0.000 NA
ATOM      5  C   UNL     1       5.165   5.702  17.356  0.00  0.00    +0.000 A 
ATOM      6  C   UNL     1       5.193   4.851  16.262  0.00  0.00    +0.000 A 
ATOM      7  N   UNL     1       4.015   4.142  16.167  0.00  0.00    +0.000 NA
ATOM      8  C   UNL     1       3.298   4.536  17.203  0.00  0.00    +0.000 A 
ATOM      9  N   UNL     1       3.961   5.466  17.960  0.00  0.00    +0.000 N 
ENDROOT
BRANCH   1  13
ATOM     10  N   UNL     1       7.086   3.284  12.297  0.00  0.00    +0.000 NA
ATOM     11  C   UNL     1       7.079   4.203  13.202  0.00  0.00    +0.000 C 
ATOM     12  N   UNL     1       7.642   5.408  12.974  0.00  0.00    +0.000 N 
ATOM     13  N   UNL     1       6.533   3.975  14.415  0.00  0.00    +0.000 N 
ATOM     14  H   UNL     1       7.574   3.643  11.475  0.00  0.00    +0.000 HD
ATOM     15  H   UNL     1       7.767   5.711  12.021  0.00  0.00    +0.000 HD
ATOM     16  H   UNL     1       7.301   6.138  13.598  0.00  0.00    +0.000 HD
ATOM     17  H   UNL     1       6.213   3.029  14.583  0.00  0.00    +0.000 HD
ENDBRANCH   1  13
BRANCH   9  18
ATOM     18  C1* UNL     1       3.497   6.013  19.221  0.00  0.00    +0.000 C 
ATOM     19  O4* UNL     1       3.364   4.952  20.189  0.00  0.00    +0.000 OA
ATOM     20  C4* UNL     1       2.126   5.145  20.922  0.00  0.00    +0.000 C 
ATOM     21  C3* UNL     1       1.588   6.519  20.525  0.00  0.00    +0.000 C 
ATOM     22  C2* UNL     1       2.159   6.745  19.136  0.00  0.00    +0.000 C 
BRANCH  21  23
ATOM     23  O3* UNL     1       2.094   7.562  21.380  0.00  0.00    +0.000 OA
ATOM     24  H3* UNL     1       2.930   7.904  21.005  0.00  0.00    +0.000 HD
ENDBRANCH  21  23
BRANCH  22  25
ATOM     25  O2* UNL     1       2.327   8.137  18.858  0.00  0.00    +0.000 OA
ATOM     26  H2* UNL     1       1.450   8.552  18.999  0.00  0.00    +0.000 HD
ENDBRANCH  22  25
BRANCH  20  27
ATOM     27  C5* UNL     1       1.159   4.002  20.602  0.00  0.00    +0.000 C 
BRANCH  27  28
ATOM     28  O5* UNL     1       1.762   3.096  19.679  0.00  0.00    +0.000 OA
ATOM     29  H5* UNL     1       2.724   3.242  19.745  0.00  0.00    +0.000 HD
ENDBRANCH  27  28
ENDBRANCH  20  27
ENDBRANCH   9  18
BRANCH   3  30
ATOM     30  O   UNL     1       8.223   7.325  17.335  0.00  0.00    +0.000 OA
BRANCH  30  31
ATOM     31  C   UNL     1       7.800   8.639  17.710  0.00  0.00    +0.000 C 
BRANCH  31  32
ATOM     32  C   UNL     1       8.616   9.048  18.933  0.00  0.00    +0.000 C 
BRANCH  32  33
ATOM     33  C   UNL     1       9.216  10.412  18.831  0.00  0.00    +0.000 A 
ATOM     34  C   UNL     1       9.681  11.015  17.679  0.00  0.00    +0.000 A 
ATOM     35  N   UNL     1      10.110  12.277  17.995  0.00  0.00    +0.000 N 
ATOM     36  C   UNL     1       9.935  12.517  19.337  0.00  0.00    +0.000 A 
ATOM     37  C   UNL     1      10.214  13.664  20.090  0.00  0.00    +0.000 A 
ATOM     38  C   UNL     1       9.921  13.629  21.456  0.00  0.00    +0.000 A 
ATOM     39  C   UNL     1       9.375  12.490  22.043  0.00  0.00    +0.000 A 
ATOM     40  C   UNL     1       9.101  11.352  21.274  0.00  0.00    +0.000 A 
ATOM     41  C   UNL     1       9.384  11.361  19.892  0.00  0.00    +0.000 A 
ATOM     42  H   UNL     1      10.486  12.946  17.338  0.00  0.00    +0.000 HD
ENDBRANCH  32  33
ENDBRANCH  31  32
ENDBRANCH  30  31
ENDBRANCH   3  30
TORSDOF 10
ENDMDL
MODEL 8
REMARK VINA RESULT:      -8.4      6.428      9.136
REMARK  Name = 
REMARK  10 active torsions:
REMARK  status: ('A' for Active; 'I' for Inactive)
REMARK    1  A    between atoms: N_4  and  C_5
REMARK    2  A    between atoms: C_7  and  O_8
REMARK    3  A    between atoms: O_8  and  C_9
REMARK    4  A    between atoms: C_9  and  C_10
REMARK    5  A    between atoms: C_10  and  C_11
REMARK    6  A    between atoms: N_25  and  C1*_26
REMARK    7  A    between atoms: C4*_28  and  C5*_29
REMARK    8  A    between atoms: C5*_29  and  O5*_30
REMARK    9  A    between atoms: C3*_31  and  O3*_32
REMARK   10  A    between atoms: C2*_33  and  O2*_34
REMARK                            x       y       z     vdW  Elec       q    Type
REMARK                         _______ _______ _______ _____ _____    ______ ____
ROOT
ATOM      1  C   UNL     1       1.720   9.617  18.738  0.00  0.00    +0.000 A 
ATOM      2  N   UNL     1       0.836   9.700  19.780  0.00  0.00    +0.000 NA
ATOM      3  C   UNL     1       0.687   8.646  20.605  0.00  0.00    +0.000 A 
ATOM      4  N   UNL     1       1.324   7.468  20.538  0.00  0.00    +0.000 NA
ATOM      5  C   UNL     1       2.140   7.399  19.483  0.00  0.00    +0.000 A 
ATOM      6  C   UNL     1       2.387   8.392  18.548  0.00  0.00    +0.000 A 
ATOM      7  N   UNL     1       3.292   7.956  17.603  0.00  0.00    +0.000 NA
ATOM      8  C   UNL     1       3.607   6.730  17.976  0.00  0.00    +0.000 A 
ATOM      9  N   UNL     1       2.947   6.358  19.118  0.00  0.00    +0.000 N 
ENDROOT
BRANCH   1  13
ATOM     10  N   UNL     1       2.236  12.900  17.275  0.00  0.00    +0.000 NA
ATOM     11  C   UNL     1       2.080  12.016  18.202  0.00  0.00    +0.000 C 
ATOM     12  N   UNL     1       2.065  12.369  19.504  0.00  0.00    +0.000 N 
ATOM     13  N   UNL     1       1.956  10.707  17.895  0.00  0.00    +0.000 N 
ATOM     14  H   UNL     1       2.347  13.814  17.716  0.00  0.00    +0.000 HD
ATOM     15  H   UNL     1       1.843  13.322  19.744  0.00  0.00    +0.000 HD
ATOM     16  H   UNL     1       1.619  11.676  20.104  0.00  0.00    +0.000 HD
ATOM     17  H   UNL     1       2.074  10.471  16.917  0.00  0.00    +0.000 HD
ENDBRANCH   1  13
BRANCH   9  18
ATOM     18  C1* UNL     1       3.156   5.121  19.847  0.00  0.00    +0.000 C 
ATOM     19  O4* UNL     1       4.335   4.457  19.348  0.00  0.00    +0.000 OA
ATOM     20  C4* UNL     1       4.052   3.039  19.223  0.00  0.00    +0.000 C 
ATOM     21  C3* UNL     1       2.699   2.799  19.890  0.00  0.00    +0.000 C 
ATOM     22  C2* UNL     1       1.990   4.137  19.765  0.00  0.00    +0.000 C 
BRANCH  21  23
ATOM     23  O3* UNL     1       2.836   2.507  21.293  0.00  0.00    +0.000 OA
ATOM     24  H3* UNL     1       3.283   1.643  21.398  0.00  0.00    +0.000 HD
ENDBRANCH  21  23
BRANCH  22  25
ATOM     25  O2* UNL     1       1.050   4.333  20.824  0.00  0.00    +0.000 OA
ATOM     26  H2* UNL     1       1.385   5.090  21.350  0.00  0.00    +0.000 HD
ENDBRANCH  22  25
BRANCH  20  27
ATOM     27  C5* UNL     1       4.076   2.641  17.745  0.00  0.00    +0.000 C 
BRANCH  27  28
ATOM     28  O5* UNL     1       5.054   3.412  17.047  0.00  0.00    +0.000 OA
ATOM     29  H5* UNL     1       4.772   4.342  17.126  0.00  0.00    +0.000 HD
ENDBRANCH  27  28
ENDBRANCH  20  27
ENDBRANCH   9  18
BRANCH   3  30
ATOM     30  O   UNL     1      -0.136   8.772  21.700  0.00  0.00    +0.000 OA
BRANCH  30  31
ATOM     31  C   UNL     1       0.294   9.776  22.624  0.00  0.00    +0.000 C 
BRANCH  31  32
ATOM     32  C   UNL     1      -0.956  10.371  23.265  0.00  0.00    +0.000 C 
BRANCH  32  33
ATOM     33  C   UNL     1      -1.259  11.765  22.821  0.00  0.00    +0.000 A 
ATOM     34  C   UNL     1      -0.478  12.545  21.991  0.00  0.00    +0.000 A 
ATOM     35  N   UNL     1      -1.121  13.737  21.788  0.00  0.00    +0.000 N 
ATOM     36  C   UNL     1      -2.314  13.756  22.470  0.00  0.00    +0.000 A 
ATOM     37  C   UNL     1      -3.296  14.752  22.537  0.00  0.00    +0.000 A 
ATOM     38  C   UNL     1      -4.429  14.493  23.313  0.00  0.00    +0.000 A 
ATOM     39  C   UNL     1      -4.570  13.288  23.995  0.00  0.00    +0.000 A 
ATOM     40  C   UNL     1      -3.578  12.302  23.915  0.00  0.00    +0.000 A 
ATOM     41  C   UNL     1      -2.425  12.536  23.137  0.00  0.00    +0.000 A 
ATOM     42  H   UNL     1      -0.781  14.490  21.207  0.00  0.00    +0.000 HD
ENDBRANCH  32  33
ENDBRANCH  31  32
ENDBRANCH  30  31
ENDBRANCH   3  30
TORSDOF 10
ENDMDL
MODEL 9
REMARK VINA RESULT:      -8.3      5.369      8.809
REMARK  Name = 
REMARK  10 active torsions:
REMARK  status: ('A' for Active; 'I' for Inactive)
REMARK    1  A    between atoms: N_4  and  C_5
REMARK    2  A    between atoms: C_7  and  O_8
REMARK    3  A    between atoms: O_8  and  C_9
REMARK    4  A    between atoms: C_9  and  C_10
REMARK    5  A    between atoms: C_10  and  C_11
REMARK    6  A    between atoms: N_25  and  C1*_26
REMARK    7  A    between atoms: C4*_28  and  C5*_29
REMARK    8  A    between atoms: C5*_29  and  O5*_30
REMARK    9  A    between atoms: C3*_31  and  O3*_32
REMARK   10  A    between atoms: C2*_33  and  O2*_34
REMARK                            x       y       z     vdW  Elec       q    Type
REMARK                         _______ _______ _______ _____ _____    ______ ____
ROOT
ATOM      1  C   UNL     1       2.152   5.111  19.136  0.00  0.00    +0.000 A 
ATOM      2  N   UNL     1       2.026   6.474  19.164  0.00  0.00    +0.000 NA
ATOM      3  C   UNL     1       2.846   7.229  18.408  0.00  0.00    +0.000 A 
ATOM      4  N   UNL     1       3.815   6.800  17.587  0.00  0.00    +0.000 NA
ATOM      5  C   UNL     1       3.947   5.471  17.620  0.00  0.00    +0.000 A 
ATOM      6  C   UNL     1       3.188   4.571  18.352  0.00  0.00    +0.000 A 
ATOM      7  N   UNL     1       3.616   3.280  18.128  0.00  0.00    +0.000 NA
ATOM      8  C   UNL     1       4.598   3.395  17.254  0.00  0.00    +0.000 A 
ATOM      9  N   UNL     1       4.822   4.701  16.905  0.00  0.00    +0.000 N 
ENDROOT
BRANCH   1  13
ATOM     10  N   UNL     1       0.621   2.669  21.344  0.00  0.00    +0.000 NA
ATOM     11  C   UNL     1       1.555   3.397  20.832  0.00  0.00    +0.000 C 
ATOM     12  N   UNL     1       2.825   3.313  21.278  0.00  0.00    +0.000 N 
ATOM     13  N   UNL     1       1.281   4.286  19.853  0.00  0.00    +0.000 N 
ATOM     14  H   UNL     1       1.027   2.097  22.086  0.00  0.00    +0.000 HD
ATOM     15  H   UNL     1       3.115   2.476  21.758  0.00  0.00    +0.000 HD
ATOM     16  H   UNL     1       3.512   3.664  20.611  0.00  0.00    +0.000 HD
ATOM     17  H   UNL     1       0.302   4.393  19.617  0.00  0.00    +0.000 HD
ENDBRANCH   1  13
BRANCH   9  18
ATOM     18  C1* UNL     1       5.751   5.155  15.887  0.00  0.00    +0.000 C 
ATOM     19  O4* UNL     1       5.068   5.262  14.621  0.00  0.00    +0.000 OA
ATOM     20  C4* UNL     1       5.924   4.716  13.584  0.00  0.00    +0.000 C 
ATOM     21  C3* UNL     1       7.288   4.465  14.225  0.00  0.00    +0.000 C 
ATOM     22  C2* UNL     1       6.965   4.248  15.694  0.00  0.00    +0.000 C 
BRANCH  21  23
ATOM     23  O3* UNL     1       8.145   5.619  14.133  0.00  0.00    +0.000 OA
ATOM     24  H3* UNL     1       8.552   5.645  13.244  0.00  0.00    +0.000 HD
ENDBRANCH  21  23
BRANCH  22  25
ATOM     25  O2* UNL     1       8.057   4.630  16.533  0.00  0.00    +0.000 OA
ATOM     26  H2* UNL     1       8.270   5.558  16.298  0.00  0.00    +0.000 HD
ENDBRANCH  22  25
BRANCH  20  27
ATOM     27  C5* UNL     1       5.286   3.450  13.007  0.00  0.00    +0.000 C 
BRANCH  27  28
ATOM     28  O5* UNL     1       6.266   2.684  12.308  0.00  0.00    +0.000 OA
ATOM     29  H5* UNL     1       6.870   2.332  12.988  0.00  0.00    +0.000 HD
ENDBRANCH  27  28
ENDBRANCH  20  27
ENDBRANCH   9  18
BRANCH   3  30
ATOM     30  O   UNL     1       2.651   8.591  18.375  0.00  0.00    +0.000 OA
BRANCH  30  31
ATOM     31  C   UNL     1       1.384   8.999  18.899  0.00  0.00    +0.000 C 
BRANCH  31  32
ATOM     32  C   UNL     1       1.219  10.483  18.586  0.00  0.00    +0.000 C 
BRANCH  32  33
ATOM     33  C   UNL     1      -0.137  11.021  18.908  0.00  0.00    +0.000 A 
ATOM     34  C   UNL     1      -0.443  11.916  19.915  0.00  0.00    +0.000 A 
ATOM     35  N   UNL     1      -1.782  12.195  19.854  0.00  0.00    +0.000 N 
ATOM     36  C   UNL     1      -2.366  11.498  18.823  0.00  0.00    +0.000 A 
ATOM     37  C   UNL     1      -3.696  11.486  18.383  0.00  0.00    +0.000 A 
ATOM     38  C   UNL     1      -4.009  10.677  17.287  0.00  0.00    +0.000 A 
ATOM     39  C   UNL     1      -3.031   9.909  16.661  0.00  0.00    +0.000 A 
ATOM     40  C   UNL     1      -1.706   9.933  17.113  0.00  0.00    +0.000 A 
ATOM     41  C   UNL     1      -1.361  10.744  18.216  0.00  0.00    +0.000 A 
ATOM     42  H   UNL     1      -2.273  12.832  20.463  0.00  0.00    +0.000 HD
ENDBRANCH  32  33
ENDBRANCH  31  32
ENDBRANCH  30  31
ENDBRANCH   3  30
TORSDOF 10
ENDMDL
