MODEL 1
REMARK VINA RESULT:      -9.4      0.000      0.000
REMARK  Name = 
REMARK  8 active torsions:
REMARK  status: ('A' for Active; 'I' for Inactive)
REMARK    1  A    between atoms: C_1  and  C_2
REMARK    2  A    between atoms: C_10  and  C_11
REMARK    3  A    between atoms: C_11  and  C_12
REMARK    4  A    between atoms: N_14  and  C_15
REMARK    5  A    between atoms: C_15  and  C_16
REMARK    6  A    between atoms: C_15  and  C_23
REMARK    7  A    between atoms: C_16  and  C_17
REMARK    8  A    between atoms: N_25  and  C_26
REMARK                            x       y       z     vdW  Elec       q    Type
REMARK                         _______ _______ _______ _____ _____    ______ ____
ROOT
ATOM      1  C   UNL     1       0.214  10.398  18.755  0.00  0.00    +0.000 C 
ENDROOT
BRANCH   1   4
ATOM      2  C   UNL     1       1.916   8.530  18.602  0.00  0.00    +0.000 C 
ATOM      3  O   UNL     1       2.088   8.700  17.405  0.00  0.00    +0.000 OA
ATOM      4  N   UNL     1       1.036   9.308  19.328  0.00  0.00    +0.000 N 
ATOM      5  H   UNL     1       1.085   9.289  20.341  0.00  0.00    +0.000 HD
BRANCH   2   6
ATOM      6  C   UNL     1       2.580   7.380  19.389  0.00  0.00    +0.000 C 
BRANCH   6  16
ATOM      7  C   UNL     1       4.871   6.676  17.001  0.00  0.00    +0.000 C 
ATOM      8  C   UNL     1       3.766   5.877  17.596  0.00  0.00    +0.000 A 
ATOM      9  N   UNL     1       3.565   4.597  17.132  0.00  0.00    +0.000 N 
ATOM     10  C   UNL     1       2.667   3.929  17.915  0.00  0.00    +0.000 A 
ATOM     11  C   UNL     1       2.268   2.587  17.867  0.00  0.00    +0.000 A 
ATOM     12  C   UNL     1       1.349   2.152  18.821  0.00  0.00    +0.000 A 
ATOM     13  C   UNL     1       0.835   3.037  19.765  0.00  0.00    +0.000 A 
ATOM     14  C   UNL     1       1.230   4.383  19.780  0.00  0.00    +0.000 A 
ATOM     15  C   UNL     1       2.174   4.845  18.839  0.00  0.00    +0.000 A 
ATOM     16  C   UNL     1       2.818   6.114  18.594  0.00  0.00    +0.000 A 
ATOM     17  H   UNL     1       4.066   4.175  16.364  0.00  0.00    +0.000 HD
ENDBRANCH   6  16
ENDBRANCH   2   6
ENDBRANCH   1   4
BRANCH   1  18
ATOM     18  C   UNL     1       0.773  11.745  19.273  0.00  0.00    +0.000 C 
ATOM     19  O   UNL     1       0.376  12.216  20.343  0.00  0.00    +0.000 OA
ATOM     20  N   UNL     1       1.728  12.371  18.484  0.00  0.00    +0.000 N 
ATOM     21  H   UNL     1       1.946  11.971  17.579  0.00  0.00    +0.000 HD
BRANCH  20  22
ATOM     22  C   UNL     1       2.308  13.692  18.790  0.00  0.00    +0.000 C 
ATOM     23  C   UNL     1       1.231  14.801  18.674  0.00  0.00    +0.000 C 
ATOM     24  C   UNL     1       1.825  16.182  18.975  0.00  0.00    +0.000 C 
ATOM     25  C   UNL     1       2.357  16.195  20.415  0.00  0.00    +0.000 C 
ATOM     26  C   UNL     1       3.449  15.125  20.576  0.00  0.00    +0.000 C 
ATOM     27  C   UNL     1       4.596  15.443  19.602  0.00  0.00    +0.000 C 
ATOM     28  C   UNL     1       4.080  15.404  18.156  0.00  0.00    +0.000 C 
ATOM     29  C   UNL     1       2.971  16.456  17.988  0.00  0.00    +0.000 C 
ATOM     30  C   UNL     1       3.504  14.009  17.854  0.00  0.00    +0.000 C 
ATOM     31  C   UNL     1       2.861  13.732  20.247  0.00  0.00    +0.000 C 
ENDBRANCH  20  22
ENDBRANCH   1  18
BRANCH   1  32
ATOM     32  C   UNL     1      -1.291  10.292  19.100  0.00  0.00    +0.000 C 
BRANCH  32  33
ATOM     33  C   UNL     1      -2.230  10.425  17.915  0.00  0.00    +0.000 A 
ATOM     34  C   UNL     1      -1.950   9.786  16.698  0.00  0.00    +0.000 A 
ATOM     35  C   UNL     1      -2.762  10.000  15.580  0.00  0.00    +0.000 A 
ATOM     36  C   UNL     1      -3.866  10.845  15.668  0.00  0.00    +0.000 A 
ATOM     37  C   UNL     1      -4.184  11.442  16.884  0.00  0.00    +0.000 A 
ATOM     38  C   UNL     1      -3.379  11.222  18.000  0.00  0.00    +0.000 A 
ENDBRANCH  32  33
ENDBRANCH   1  32
TORSDOF 7
ENDMDL
MODEL 2
REMARK VINA RESULT:      -9.4      0.136      1.223
REMARK  Name = 
REMARK  8 active torsions:
REMARK  status: ('A' for Active; 'I' for Inactive)
REMARK    1  A    between atoms: C_1  and  C_2
REMARK    2  A    between atoms: C_10  and  C_11
REMARK    3  A    between atoms: C_11  and  C_12
REMARK    4  A    between atoms: N_14  and  C_15
REMARK    5  A    between atoms: C_15  and  C_16
REMARK    6  A    between atoms: C_15  and  C_23
REMARK    7  A    between atoms: C_16  and  C_17
REMARK    8  A    between atoms: N_25  and  C_26
REMARK                            x       y       z     vdW  Elec       q    Type
REMARK                         _______ _______ _______ _____ _____    ______ ____
ROOT
ATOM      1  C   UNL     1       0.236  10.426  18.790  0.00  0.00    +0.000 C 
ENDROOT
BRANCH   1   4
ATOM      2  C   UNL     1       1.900   8.524  18.623  0.00  0.00    +0.000 C 
ATOM      3  O   UNL     1       2.044   8.674  17.419  0.00  0.00    +0.000 OA
ATOM      4  N   UNL     1       1.053   9.329  19.359  0.00  0.00    +0.000 N 
ATOM      5  H   UNL     1       1.128   9.325  20.370  0.00  0.00    +0.000 HD
BRANCH   2   6
ATOM      6  C   UNL     1       2.564   7.375  19.410  0.00  0.00    +0.000 C 
BRANCH   6  16
ATOM      7  C   UNL     1       4.884   6.698  17.042  0.00  0.00    +0.000 C 
ATOM      8  C   UNL     1       3.777   5.889  17.622  0.00  0.00    +0.000 A 
ATOM      9  N   UNL     1       3.590   4.610  17.149  0.00  0.00    +0.000 N 
ATOM     10  C   UNL     1       2.688   3.932  17.918  0.00  0.00    +0.000 A 
ATOM     11  C   UNL     1       2.299   2.588  17.859  0.00  0.00    +0.000 A 
ATOM     12  C   UNL     1       1.373   2.142  18.802  0.00  0.00    +0.000 A 
ATOM     13  C   UNL     1       0.844   3.018  19.745  0.00  0.00    +0.000 A 
ATOM     14  C   UNL     1       1.229   4.367  19.771  0.00  0.00    +0.000 A 
ATOM     15  C   UNL     1       2.180   4.840  18.843  0.00  0.00    +0.000 A 
ATOM     16  C   UNL     1       2.818   6.114  18.611  0.00  0.00    +0.000 A 
ATOM     17  H   UNL     1       4.101   4.196  16.383  0.00  0.00    +0.000 HD
ENDBRANCH   6  16
ENDBRANCH   2   6
ENDBRANCH   1   4
BRANCH   1  18
ATOM     18  C   UNL     1       0.804  11.768  19.311  0.00  0.00    +0.000 C 
ATOM     19  O   UNL     1       0.498  12.181  20.434  0.00  0.00    +0.000 OA
ATOM     20  N   UNL     1       1.659  12.457  18.463  0.00  0.00    +0.000 N 
ATOM     21  H   UNL     1       1.800  12.103  17.524  0.00  0.00    +0.000 HD
BRANCH  20  22
ATOM     22  C   UNL     1       2.227  13.783  18.771  0.00  0.00    +0.000 C 
ATOM     23  C   UNL     1       3.235  14.212  17.673  0.00  0.00    +0.000 C 
ATOM     24  C   UNL     1       3.845  15.583  17.989  0.00  0.00    +0.000 C 
ATOM     25  C   UNL     1       2.724  16.631  18.032  0.00  0.00    +0.000 C 
ATOM     26  C   UNL     1       1.708  16.263  19.124  0.00  0.00    +0.000 C 
ATOM     27  C   UNL     1       2.433  16.232  20.479  0.00  0.00    +0.000 C 
ATOM     28  C   UNL     1       3.538  15.165  20.457  0.00  0.00    +0.000 C 
ATOM     29  C   UNL     1       4.550  15.511  19.353  0.00  0.00    +0.000 C 
ATOM     30  C   UNL     1       2.917  13.789  20.161  0.00  0.00    +0.000 C 
ATOM     31  C   UNL     1       1.110  14.868  18.825  0.00  0.00    +0.000 C 
ENDBRANCH  20  22
ENDBRANCH   1  18
BRANCH   1  32
ATOM     32  C   UNL     1      -1.269  10.327  19.137  0.00  0.00    +0.000 C 
BRANCH  32  33
ATOM     33  C   UNL     1      -2.207  10.442  17.949  0.00  0.00    +0.000 A 
ATOM     34  C   UNL     1      -1.924   9.790  16.740  0.00  0.00    +0.000 A 
ATOM     35  C   UNL     1      -2.736   9.987  15.619  0.00  0.00    +0.000 A 
ATOM     36  C   UNL     1      -3.844  10.828  15.697  0.00  0.00    +0.000 A 
ATOM     37  C   UNL     1      -4.165  11.438  16.906  0.00  0.00    +0.000 A 
ATOM     38  C   UNL     1      -3.360  11.234  18.024  0.00  0.00    +0.000 A 
ENDBRANCH  32  33
ENDBRANCH   1  32
TORSDOF 7
ENDMDL
MODEL 3
REMARK VINA RESULT:      -9.3      0.193      1.258
REMARK  Name = 
REMARK  8 active torsions:
REMARK  status: ('A' for Active; 'I' for Inactive)
REMARK    1  A    between atoms: C_1  and  C_2
REMARK    2  A    between atoms: C_10  and  C_11
REMARK    3  A    between atoms: C_11  and  C_12
REMARK    4  A    between atoms: N_14  and  C_15
REMARK    5  A    between atoms: C_15  and  C_16
REMARK    6  A    between atoms: C_15  and  C_23
REMARK    7  A    between atoms: C_16  and  C_17
REMARK    8  A    between atoms: N_25  and  C_26
REMARK                            x       y       z     vdW  Elec       q    Type
REMARK                         _______ _______ _______ _____ _____    ______ ____
ROOT
ATOM      1  C   UNL     1       0.201  10.479  18.798  0.00  0.00    +0.000 C 
ENDROOT
BRANCH   1   4
ATOM      2  C   UNL     1       1.855   8.569  18.621  0.00  0.00    +0.000 C 
ATOM      3  O   UNL     1       1.936   8.671  17.406  0.00  0.00    +0.000 OA
ATOM      4  N   UNL     1       1.046   9.404  19.367  0.00  0.00    +0.000 N 
ATOM      5  H   UNL     1       1.173   9.440  20.372  0.00  0.00    +0.000 HD
BRANCH   2   6
ATOM      6  C   UNL     1       2.559   7.451  19.417  0.00  0.00    +0.000 C 
BRANCH   6  16
ATOM      7  C   UNL     1       4.870   6.729  17.054  0.00  0.00    +0.000 C 
ATOM      8  C   UNL     1       3.767   5.930  17.655  0.00  0.00    +0.000 A 
ATOM      9  N   UNL     1       3.580   4.642  17.209  0.00  0.00    +0.000 N 
ATOM     10  C   UNL     1       2.682   3.978  17.997  0.00  0.00    +0.000 A 
ATOM     11  C   UNL     1       2.295   2.633  17.967  0.00  0.00    +0.000 A 
ATOM     12  C   UNL     1       1.373   2.205  18.923  0.00  0.00    +0.000 A 
ATOM     13  C   UNL     1       0.846   3.100  19.850  0.00  0.00    +0.000 A 
ATOM     14  C   UNL     1       1.230   4.450  19.846  0.00  0.00    +0.000 A 
ATOM     15  C   UNL     1       2.176   4.904  18.905  0.00  0.00    +0.000 A 
ATOM     16  C   UNL     1       2.811   6.175  18.644  0.00  0.00    +0.000 A 
ATOM     17  H   UNL     1       4.088   4.213  16.451  0.00  0.00    +0.000 HD
ENDBRANCH   6  16
ENDBRANCH   2   6
ENDBRANCH   1   4
BRANCH   1  18
ATOM     18  C   UNL     1       0.726  11.835  19.326  0.00  0.00    +0.000 C 
ATOM     19  O   UNL     1       0.161  12.398  20.270  0.00  0.00    +0.000 OA
ATOM     20  N   UNL     1       1.844  12.362  18.696  0.00  0.00    +0.000 N 
ATOM     21  H   UNL     1       2.206  11.890  17.876  0.00  0.00    +0.000 HD
BRANCH  20  22
ATOM     22  C   UNL     1       2.427  13.677  19.024  0.00  0.00    +0.000 C 
ATOM     23  C   UNL     1       2.890  13.715  20.503  0.00  0.00    +0.000 C 
ATOM     24  C   UNL     1       3.485  15.082  20.860  0.00  0.00    +0.000 C 
ATOM     25  C   UNL     1       4.715  15.339  19.977  0.00  0.00    +0.000 C 
ATOM     26  C   UNL     1       4.303  15.335  18.497  0.00  0.00    +0.000 C 
ATOM     27  C   UNL     1       3.268  16.450  18.272  0.00  0.00    +0.000 C 
ATOM     28  C   UNL     1       2.021  16.186  19.128  0.00  0.00    +0.000 C 
ATOM     29  C   UNL     1       2.424  16.166  20.612  0.00  0.00    +0.000 C 
ATOM     30  C   UNL     1       1.417  14.822  18.750  0.00  0.00    +0.000 C 
ATOM     31  C   UNL     1       3.677  13.966  18.138  0.00  0.00    +0.000 C 
ENDBRANCH  20  22
ENDBRANCH   1  18
BRANCH   1  32
ATOM     32  C   UNL     1      -1.302  10.334  19.136  0.00  0.00    +0.000 C 
BRANCH  32  33
ATOM     33  C   UNL     1      -2.240  10.453  17.947  0.00  0.00    +0.000 A 
ATOM     34  C   UNL     1      -1.965   9.788  16.743  0.00  0.00    +0.000 A 
ATOM     35  C   UNL     1      -2.774   9.988  15.621  0.00  0.00    +0.000 A 
ATOM     36  C   UNL     1      -3.871  10.844  15.692  0.00  0.00    +0.000 A 
ATOM     37  C   UNL     1      -4.184  11.468  16.896  0.00  0.00    +0.000 A 
ATOM     38  C   UNL     1      -3.382  11.261  18.017  0.00  0.00    +0.000 A 
ENDBRANCH  32  33
ENDBRANCH   1  32
TORSDOF 7
ENDMDL
MODEL 4
REMARK VINA RESULT:      -9.3      3.304      9.000
REMARK  Name = 
REMARK  8 active torsions:
REMARK  status: ('A' for Active; 'I' for Inactive)
REMARK    1  A    between atoms: C_1  and  C_2
REMARK    2  A    between atoms: C_10  and  C_11
REMARK    3  A    between atoms: C_11  and  C_12
REMARK    4  A    between atoms: N_14  and  C_15
REMARK    5  A    between atoms: C_15  and  C_16
REMARK    6  A    between atoms: C_15  and  C_23
REMARK    7  A    between atoms: C_16  and  C_17
REMARK    8  A    between atoms: N_25  and  C_26
REMARK                            x       y       z     vdW  Elec       q    Type
REMARK                         _______ _______ _______ _____ _____    ______ ____
ROOT
ATOM      1  C   UNL     1       1.783   5.702  20.669  0.00  0.00    +0.000 C 
ENDROOT
BRANCH   1   4
ATOM      2  C   UNL     1       1.003   8.025  21.309  0.00  0.00    +0.000 C 
ATOM      3  O   UNL     1       2.016   8.256  21.952  0.00  0.00    +0.000 OA
ATOM      4  N   UNL     1       0.814   6.822  20.657  0.00  0.00    +0.000 N 
ATOM      5  H   UNL     1       0.079   6.751  19.963  0.00  0.00    +0.000 HD
BRANCH   2   6
ATOM      6  C   UNL     1      -0.192   9.000  21.249  0.00  0.00    +0.000 C 
BRANCH   6  16
ATOM      7  C   UNL     1       1.341  10.284  18.520  0.00  0.00    +0.000 C 
ATOM      8  C   UNL     1       0.823  10.911  19.767  0.00  0.00    +0.000 A 
ATOM      9  N   UNL     1       0.966  12.271  19.918  0.00  0.00    +0.000 N 
ATOM     10  C   UNL     1       0.260  12.718  20.999  0.00  0.00    +0.000 A 
ATOM     11  C   UNL     1       0.041  14.030  21.439  0.00  0.00    +0.000 A 
ATOM     12  C   UNL     1      -0.760  14.207  22.567  0.00  0.00    +0.000 A 
ATOM     13  C   UNL     1      -1.294  13.109  23.236  0.00  0.00    +0.000 A 
ATOM     14  C   UNL     1      -1.042  11.802  22.792  0.00  0.00    +0.000 A 
ATOM     15  C   UNL     1      -0.253  11.596  21.642  0.00  0.00    +0.000 A 
ATOM     16  C   UNL     1       0.165  10.429  20.901  0.00  0.00    +0.000 A 
ATOM     17  H   UNL     1       1.461  12.875  19.280  0.00  0.00    +0.000 HD
ENDBRANCH   6  16
ENDBRANCH   2   6
ENDBRANCH   1   4
BRANCH   1  18
ATOM     18  C   UNL     1       2.731   5.874  19.458  0.00  0.00    +0.000 C 
ATOM     19  O   UNL     1       2.281   6.198  18.354  0.00  0.00    +0.000 OA
ATOM     20  N   UNL     1       4.082   5.654  19.684  0.00  0.00    +0.000 N 
ATOM     21  H   UNL     1       4.372   5.309  20.592  0.00  0.00    +0.000 HD
BRANCH  20  22
ATOM     22  C   UNL     1       5.110   5.700  18.626  0.00  0.00    +0.000 C 
ATOM     23  C   UNL     1       6.529   5.607  19.242  0.00  0.00    +0.000 C 
ATOM     24  C   UNL     1       7.608   5.669  18.155  0.00  0.00    +0.000 C 
ATOM     25  C   UNL     1       7.430   4.477  17.203  0.00  0.00    +0.000 C 
ATOM     26  C   UNL     1       6.042   4.538  16.547  0.00  0.00    +0.000 C 
ATOM     27  C   UNL     1       5.931   5.849  15.752  0.00  0.00    +0.000 C 
ATOM     28  C   UNL     1       6.078   7.049  16.699  0.00  0.00    +0.000 C 
ATOM     29  C   UNL     1       7.456   6.988  17.379  0.00  0.00    +0.000 C 
ATOM     30  C   UNL     1       4.980   6.992  17.776  0.00  0.00    +0.000 C 
ATOM     31  C   UNL     1       4.950   4.502  17.643  0.00  0.00    +0.000 C 
ENDBRANCH  20  22
ENDBRANCH   1  18
BRANCH   1  32
ATOM     32  C   UNL     1       1.122   4.305  20.619  0.00  0.00    +0.000 C 
BRANCH  32  33
ATOM     33  C   UNL     1       1.934   3.238  19.907  0.00  0.00    +0.000 A 
ATOM     34  C   UNL     1       3.073   2.679  20.505  0.00  0.00    +0.000 A 
ATOM     35  C   UNL     1       3.876   1.777  19.800  0.00  0.00    +0.000 A 
ATOM     36  C   UNL     1       3.544   1.415  18.496  0.00  0.00    +0.000 A 
ATOM     37  C   UNL     1       2.386   1.922  17.912  0.00  0.00    +0.000 A 
ATOM     38  C   UNL     1       1.583   2.814  18.619  0.00  0.00    +0.000 A 
ENDBRANCH  32  33
ENDBRANCH   1  32
TORSDOF 7
ENDMDL
MODEL 5
REMARK VINA RESULT:      -9.2      3.335      8.950
REMARK  Name = 
REMARK  8 active torsions:
REMARK  status: ('A' for Active; 'I' for Inactive)
REMARK    1  A    between atoms: C_1  and  C_2
REMARK    2  A    between atoms: C_10  and  C_11
REMARK    3  A    between atoms: C_11  and  C_12
REMARK    4  A    between atoms: N_14  and  C_15
REMARK    5  A    between atoms: C_15  and  C_16
REMARK    6  A    between atoms: C_15  and  C_23
REMARK    7  A    between atoms: C_16  and  C_17
REMARK    8  A    between atoms: N_25  and  C_26
REMARK                            x       y       z     vdW  Elec       q    Type
REMARK                         _______ _______ _______ _____ _____    ______ ____
ROOT
ATOM      1  C   UNL     1       1.727   5.748  20.626  0.00  0.00    +0.000 C 
ENDROOT
BRANCH   1   4
ATOM      2  C   UNL     1       0.962   8.079  21.253  0.00  0.00    +0.000 C 
ATOM      3  O   UNL     1       1.973   8.303  21.902  0.00  0.00    +0.000 OA
ATOM      4  N   UNL     1       0.768   6.876  20.603  0.00  0.00    +0.000 N 
ATOM      5  H   UNL     1       0.038   6.810  19.903  0.00  0.00    +0.000 HD
BRANCH   2   6
ATOM      6  C   UNL     1      -0.222   9.065  21.180  0.00  0.00    +0.000 C 
BRANCH   6  16
ATOM      7  C   UNL     1       1.426  10.463  18.577  0.00  0.00    +0.000 C 
ATOM      8  C   UNL     1       0.864  11.034  19.831  0.00  0.00    +0.000 A 
ATOM      9  N   UNL     1       1.011  12.384  20.053  0.00  0.00    +0.000 N 
ATOM     10  C   UNL     1       0.266  12.787  21.126  0.00  0.00    +0.000 A 
ATOM     11  C   UNL     1       0.040  14.078  21.619  0.00  0.00    +0.000 A 
ATOM     12  C   UNL     1      -0.803  14.208  22.722  0.00  0.00    +0.000 A 
ATOM     13  C   UNL     1      -1.372  13.086  23.317  0.00  0.00    +0.000 A 
ATOM     14  C   UNL     1      -1.112  11.799  22.821  0.00  0.00    +0.000 A 
ATOM     15  C   UNL     1      -0.280  11.640  21.693  0.00  0.00    +0.000 A 
ATOM     16  C   UNL     1       0.159  10.506  20.915  0.00  0.00    +0.000 A 
ATOM     17  H   UNL     1       1.535  13.014  19.464  0.00  0.00    +0.000 HD
ENDBRANCH   6  16
ENDBRANCH   2   6
ENDBRANCH   1   4
BRANCH   1  18
ATOM     18  C   UNL     1       2.693   5.913  19.428  0.00  0.00    +0.000 C 
ATOM     19  O   UNL     1       2.269   6.288  18.330  0.00  0.00    +0.000 OA
ATOM     20  N   UNL     1       4.031   5.629  19.660  0.00  0.00    +0.000 N 
ATOM     21  H   UNL     1       4.297   5.246  20.560  0.00  0.00    +0.000 HD
BRANCH  20  22
ATOM     22  C   UNL     1       5.071   5.662  18.613  0.00  0.00    +0.000 C 
ATOM     23  C   UNL     1       4.981   6.978  17.798  0.00  0.00    +0.000 C 
ATOM     24  C   UNL     1       6.047   7.018  16.697  0.00  0.00    +0.000 C 
ATOM     25  C   UNL     1       7.438   6.962  17.344  0.00  0.00    +0.000 C 
ATOM     26  C   UNL     1       7.586   5.660  18.147  0.00  0.00    +0.000 C 
ATOM     27  C   UNL     1       7.418   4.469  17.189  0.00  0.00    +0.000 C 
ATOM     28  C   UNL     1       6.018   4.500  16.558  0.00  0.00    +0.000 C 
ATOM     29  C   UNL     1       5.850   5.809  15.769  0.00  0.00    +0.000 C 
ATOM     30  C   UNL     1       4.952   4.438  17.667  0.00  0.00    +0.000 C 
ATOM     31  C   UNL     1       6.495   5.602  19.243  0.00  0.00    +0.000 C 
ENDBRANCH  20  22
ENDBRANCH   1  18
BRANCH   1  32
ATOM     32  C   UNL     1       1.053   4.356  20.563  0.00  0.00    +0.000 C 
BRANCH  32  33
ATOM     33  C   UNL     1       1.869   3.281  19.866  0.00  0.00    +0.000 A 
ATOM     34  C   UNL     1       2.985   2.705  20.490  0.00  0.00    +0.000 A 
ATOM     35  C   UNL     1       3.793   1.796  19.801  0.00  0.00    +0.000 A 
ATOM     36  C   UNL     1       3.489   1.444  18.487  0.00  0.00    +0.000 A 
ATOM     37  C   UNL     1       2.354   1.969  17.877  0.00  0.00    +0.000 A 
ATOM     38  C   UNL     1       1.545   2.869  18.567  0.00  0.00    +0.000 A 
ENDBRANCH  32  33
ENDBRANCH   1  32
TORSDOF 7
ENDMDL
MODEL 6
REMARK VINA RESULT:      -9.1      0.853      1.761
REMARK  Name = 
REMARK  8 active torsions:
REMARK  status: ('A' for Active; 'I' for Inactive)
REMARK    1  A    between atoms: C_1  and  C_2
REMARK    2  A    between atoms: C_10  and  C_11
REMARK    3  A    between atoms: C_11  and  C_12
REMARK    4  A    between atoms: N_14  and  C_15
REMARK    5  A    between atoms: C_15  and  C_16
REMARK    6  A    between atoms: C_15  and  C_23
REMARK    7  A    between atoms: C_16  and  C_17
REMARK    8  A    between atoms: N_25  and  C_26
REMARK                            x       y       z     vdW  Elec       q    Type
REMARK                         _______ _______ _______ _____ _____    ______ ____
ROOT
ATOM      1  C   UNL     1       0.211  10.518  18.810  0.00  0.00    +0.000 C 
ENDROOT
BRANCH   1   4
ATOM      2  C   UNL     1       1.842   8.587  18.666  0.00  0.00    +0.000 C 
ATOM      3  O   UNL     1       1.997   8.726  17.462  0.00  0.00    +0.000 OA
ATOM      4  N   UNL     1       1.004   9.412  19.391  0.00  0.00    +0.000 N 
ATOM      5  H   UNL     1       1.072   9.412  20.402  0.00  0.00    +0.000 HD
BRANCH   2   6
ATOM      6  C   UNL     1       2.480   7.431  19.465  0.00  0.00    +0.000 C 
BRANCH   6  16
ATOM      7  C   UNL     1       4.813   6.788  17.100  0.00  0.00    +0.000 C 
ATOM      8  C   UNL     1       3.717   5.963  17.678  0.00  0.00    +0.000 A 
ATOM      9  N   UNL     1       3.549   4.682  17.205  0.00  0.00    +0.000 N 
ATOM     10  C   UNL     1       2.656   3.991  17.974  0.00  0.00    +0.000 A 
ATOM     11  C   UNL     1       2.287   2.641  17.914  0.00  0.00    +0.000 A 
ATOM     12  C   UNL     1       1.367   2.182  18.856  0.00  0.00    +0.000 A 
ATOM     13  C   UNL     1       0.823   3.050  19.798  0.00  0.00    +0.000 A 
ATOM     14  C   UNL     1       1.189   4.404  19.825  0.00  0.00    +0.000 A 
ATOM     15  C   UNL     1       2.134   4.891  18.898  0.00  0.00    +0.000 A 
ATOM     16  C   UNL     1       2.753   6.174  18.667  0.00  0.00    +0.000 A 
ATOM     17  H   UNL     1       4.067   4.275  16.440  0.00  0.00    +0.000 HD
ENDBRANCH   6  16
ENDBRANCH   2   6
ENDBRANCH   1   4
BRANCH   1  18
ATOM     18  C   UNL     1       0.802  11.854  19.320  0.00  0.00    +0.000 C 
ATOM     19  O   UNL     1       1.650  11.859  20.219  0.00  0.00    +0.000 OA
ATOM     20  N   UNL     1       0.339  13.015  18.718  0.00  0.00    +0.000 N 
ATOM     21  H   UNL     1      -0.417  12.944  18.047  0.00  0.00    +0.000 HD
BRANCH  20  22
ATOM     22  C   UNL     1       0.740  14.372  19.135  0.00  0.00    +0.000 C 
ATOM     23  C   UNL     1       2.150  14.715  18.589  0.00  0.00    +0.000 C 
ATOM     24  C   UNL     1       2.586  16.118  19.027  0.00  0.00    +0.000 C 
ATOM     25  C   UNL     1       1.600  17.149  18.459  0.00  0.00    +0.000 C 
ATOM     26  C   UNL     1       0.187  16.866  18.990  0.00  0.00    +0.000 C 
ATOM     27  C   UNL     1       0.208  16.969  20.524  0.00  0.00    +0.000 C 
ATOM     28  C   UNL     1       1.169  15.922  21.105  0.00  0.00    +0.000 C 
ATOM     29  C   UNL     1       2.585  16.182  20.563  0.00  0.00    +0.000 C 
ATOM     30  C   UNL     1       0.715  14.515  20.679  0.00  0.00    +0.000 C 
ATOM     31  C   UNL     1      -0.247  15.440  18.574  0.00  0.00    +0.000 C 
ENDBRANCH  20  22
ENDBRANCH   1  18
BRANCH   1  32
ATOM     32  C   UNL     1      -1.297  10.451  19.151  0.00  0.00    +0.000 C 
BRANCH  32  33
ATOM     33  C   UNL     1      -2.228  10.534  17.954  0.00  0.00    +0.000 A 
ATOM     34  C   UNL     1      -1.932   9.856  16.763  0.00  0.00    +0.000 A 
ATOM     35  C   UNL     1      -2.738  10.022  15.632  0.00  0.00    +0.000 A 
ATOM     36  C   UNL     1      -3.851  10.858  15.683  0.00  0.00    +0.000 A 
ATOM     37  C   UNL     1      -4.184  11.494  16.875  0.00  0.00    +0.000 A 
ATOM     38  C   UNL     1      -3.386  11.321  18.004  0.00  0.00    +0.000 A 
ENDBRANCH  32  33
ENDBRANCH   1  32
TORSDOF 7
ENDMDL
MODEL 7
REMARK VINA RESULT:      -9.0      3.141      8.913
REMARK  Name = 
REMARK  8 active torsions:
REMARK  status: ('A' for Active; 'I' for Inactive)
REMARK    1  A    between atoms: C_1  and  C_2
REMARK    2  A    between atoms: C_10  and  C_11
REMARK    3  A    between atoms: C_11  and  C_12
REMARK    4  A    between atoms: N_14  and  C_15
REMARK    5  A    between atoms: C_15  and  C_16
REMARK    6  A    between atoms: C_15  and  C_23
REMARK    7  A    between atoms: C_16  and  C_17
REMARK    8  A    between atoms: N_25  and  C_26
REMARK                            x       y       z     vdW  Elec       q    Type
REMARK                         _______ _______ _______ _____ _____    ______ ____
ROOT
ATOM      1  C   UNL     1       1.769   5.641  20.690  0.00  0.00    +0.000 C 
ENDROOT
BRANCH   1   4
ATOM      2  C   UNL     1       1.000   8.003  21.184  0.00  0.00    +0.000 C 
ATOM      3  O   UNL     1       2.076   8.317  21.670  0.00  0.00    +0.000 OA
ATOM      4  N   UNL     1       0.772   6.736  20.684  0.00  0.00    +0.000 N 
ATOM      5  H   UNL     1      -0.038   6.580  20.095  0.00  0.00    +0.000 HD
BRANCH   2   6
ATOM      6  C   UNL     1      -0.222   8.945  21.172  0.00  0.00    +0.000 C 
BRANCH   6  16
ATOM      7  C   UNL     1       1.050   9.484  18.083  0.00  0.00    +0.000 C 
ATOM      8  C   UNL     1       0.522  10.406  19.125  0.00  0.00    +0.000 A 
ATOM      9  N   UNL     1       0.527  11.756  18.861  0.00  0.00    +0.000 N 
ATOM     10  C   UNL     1      -0.176  12.443  19.810  0.00  0.00    +0.000 A 
ATOM     11  C   UNL     1      -0.513  13.801  19.861  0.00  0.00    +0.000 A 
ATOM     12  C   UNL     1      -1.280  14.236  20.942  0.00  0.00    +0.000 A 
ATOM     13  C   UNL     1      -1.667  13.346  21.940  0.00  0.00    +0.000 A 
ATOM     14  C   UNL     1      -1.297  11.994  21.882  0.00  0.00    +0.000 A 
ATOM     15  C   UNL     1      -0.541  11.523  20.789  0.00  0.00    +0.000 A 
ATOM     16  C   UNL     1      -0.033  10.230  20.395  0.00  0.00    +0.000 A 
ATOM     17  H   UNL     1       0.928  12.183  18.039  0.00  0.00    +0.000 HD
ENDBRANCH   6  16
ENDBRANCH   2   6
ENDBRANCH   1   4
BRANCH   1  18
ATOM     18  C   UNL     1       2.692   5.824  19.460  0.00  0.00    +0.000 C 
ATOM     19  O   UNL     1       2.218   6.155  18.368  0.00  0.00    +0.000 OA
ATOM     20  N   UNL     1       4.047   5.607  19.657  0.00  0.00    +0.000 N 
ATOM     21  H   UNL     1       4.357   5.257  20.556  0.00  0.00    +0.000 HD
BRANCH  20  22
ATOM     22  C   UNL     1       5.053   5.664  18.579  0.00  0.00    +0.000 C 
ATOM     23  C   UNL     1       4.864   4.483  17.593  0.00  0.00    +0.000 C 
ATOM     24  C   UNL     1       5.913   4.522  16.476  0.00  0.00    +0.000 C 
ATOM     25  C   UNL     1       5.750   5.826  15.682  0.00  0.00    +0.000 C 
ATOM     26  C   UNL     1       5.953   7.032  16.613  0.00  0.00    +0.000 C 
ATOM     27  C   UNL     1       7.372   6.964  17.203  0.00  0.00    +0.000 C 
ATOM     28  C   UNL     1       7.536   5.677  18.024  0.00  0.00    +0.000 C 
ATOM     29  C   UNL     1       7.314   4.463  17.107  0.00  0.00    +0.000 C 
ATOM     30  C   UNL     1       6.494   5.653  19.156  0.00  0.00    +0.000 C 
ATOM     31  C   UNL     1       4.913   6.982  17.758  0.00  0.00    +0.000 C 
ENDBRANCH  20  22
ENDBRANCH   1  18
BRANCH   1  32
ATOM     32  C   UNL     1       1.143   4.226  20.665  0.00  0.00    +0.000 C 
BRANCH  32  33
ATOM     33  C   UNL     1       1.960   3.178  19.931  0.00  0.00    +0.000 A 
ATOM     34  C   UNL     1       3.135   2.657  20.491  0.00  0.00    +0.000 A 
ATOM     35  C   UNL     1       3.938   1.773  19.764  0.00  0.00    +0.000 A 
ATOM     36  C   UNL     1       3.570   1.392  18.475  0.00  0.00    +0.000 A 
ATOM     37  C   UNL     1       2.379   1.861  17.929  0.00  0.00    +0.000 A 
ATOM     38  C   UNL     1       1.575   2.736  18.658  0.00  0.00    +0.000 A 
ENDBRANCH  32  33
ENDBRANCH   1  32
TORSDOF 7
ENDMDL
MODEL 8
REMARK VINA RESULT:      -9.0      0.965      1.505
REMARK  Name = 
REMARK  8 active torsions:
REMARK  status: ('A' for Active; 'I' for Inactive)
REMARK    1  A    between atoms: C_1  and  C_2
REMARK    2  A    between atoms: C_10  and  C_11
REMARK    3  A    between atoms: C_11  and  C_12
REMARK    4  A    between atoms: N_14  and  C_15
REMARK    5  A    between atoms: C_15  and  C_16
REMARK    6  A    between atoms: C_15  and  C_23
REMARK    7  A    between atoms: C_16  and  C_17
REMARK    8  A    between atoms: N_25  and  C_26
REMARK                            x       y       z     vdW  Elec       q    Type
REMARK                         _______ _______ _______ _____ _____    ______ ____
ROOT
ATOM      1  C   UNL     1       0.459  10.341  18.534  0.00  0.00    +0.000 C 
ENDROOT
BRANCH   1   4
ATOM      2  C   UNL     1       2.093   8.408  18.476  0.00  0.00    +0.000 C 
ATOM      3  O   UNL     1       2.307   8.543  17.281  0.00  0.00    +0.000 OA
ATOM      4  N   UNL     1       1.221   9.235  19.157  0.00  0.00    +0.000 N 
ATOM      5  H   UNL     1       1.239   9.238  20.170  0.00  0.00    +0.000 HD
BRANCH   2   6
ATOM      6  C   UNL     1       2.690   7.253  19.309  0.00  0.00    +0.000 C 
BRANCH   6  16
ATOM      7  C   UNL     1       5.038   6.452  17.008  0.00  0.00    +0.000 C 
ATOM      8  C   UNL     1       3.896   5.689  17.583  0.00  0.00    +0.000 A 
ATOM      9  N   UNL     1       3.681   4.406  17.137  0.00  0.00    +0.000 N 
ATOM     10  C   UNL     1       2.743   3.773  17.903  0.00  0.00    +0.000 A 
ATOM     11  C   UNL     1       2.316   2.440  17.867  0.00  0.00    +0.000 A 
ATOM     12  C   UNL     1       1.357   2.044  18.800  0.00  0.00    +0.000 A 
ATOM     13  C   UNL     1       0.834   2.958  19.710  0.00  0.00    +0.000 A 
ATOM     14  C   UNL     1       1.259   4.296  19.712  0.00  0.00    +0.000 A 
ATOM     15  C   UNL     1       2.243   4.718  18.794  0.00  0.00    +0.000 A 
ATOM     16  C   UNL     1       2.923   5.967  18.546  0.00  0.00    +0.000 A 
ATOM     17  H   UNL     1       4.195   3.958  16.393  0.00  0.00    +0.000 HD
ENDBRANCH   6  16
ENDBRANCH   2   6
ENDBRANCH   1   4
BRANCH   1  18
ATOM     18  C   UNL     1       1.232  11.659  18.784  0.00  0.00    +0.000 C 
ATOM     19  O   UNL     1       2.298  11.877  18.199  0.00  0.00    +0.000 OA
ATOM     20  N   UNL     1       0.665  12.557  19.675  0.00  0.00    +0.000 N 
ATOM     21  H   UNL     1      -0.168  12.279  20.181  0.00  0.00    +0.000 HD
BRANCH  20  22
ATOM     22  C   UNL     1       1.304  13.823  20.083  0.00  0.00    +0.000 C 
ATOM     23  C   UNL     1       0.476  14.517  21.195  0.00  0.00    +0.000 C 
ATOM     24  C   UNL     1       1.122  15.842  21.618  0.00  0.00    +0.000 C 
ATOM     25  C   UNL     1       2.521  15.559  22.183  0.00  0.00    +0.000 C 
ATOM     26  C   UNL     1       3.391  14.890  21.107  0.00  0.00    +0.000 C 
ATOM     27  C   UNL     1       3.506  15.842  19.905  0.00  0.00    +0.000 C 
ATOM     28  C   UNL     1       2.114  16.108  19.314  0.00  0.00    +0.000 C 
ATOM     29  C   UNL     1       1.227  16.759  20.389  0.00  0.00    +0.000 C 
ATOM     30  C   UNL     1       1.480  14.778  18.873  0.00  0.00    +0.000 C 
ATOM     31  C   UNL     1       2.729  13.566  20.657  0.00  0.00    +0.000 C 
ENDBRANCH  20  22
ENDBRANCH   1  18
BRANCH   1  32
ATOM     32  C   UNL     1      -0.988  10.477  19.064  0.00  0.00    +0.000 C 
BRANCH  32  33
ATOM     33  C   UNL     1      -2.049  10.645  17.991  0.00  0.00    +0.000 A 
ATOM     34  C   UNL     1      -3.145  11.498  18.188  0.00  0.00    +0.000 A 
ATOM     35  C   UNL     1      -4.172  11.566  17.242  0.00  0.00    +0.000 A 
ATOM     36  C   UNL     1      -4.110  10.792  16.085  0.00  0.00    +0.000 A 
ATOM     37  C   UNL     1      -3.002   9.982  15.854  0.00  0.00    +0.000 A 
ATOM     38  C   UNL     1      -1.975   9.922  16.794  0.00  0.00    +0.000 A 
ENDBRANCH  32  33
ENDBRANCH   1  32
TORSDOF 7
ENDMDL
MODEL 9
REMARK VINA RESULT:      -9.0      2.689      8.872
REMARK  Name = 
REMARK  8 active torsions:
REMARK  status: ('A' for Active; 'I' for Inactive)
REMARK    1  A    between atoms: C_1  and  C_2
REMARK    2  A    between atoms: C_10  and  C_11
REMARK    3  A    between atoms: C_11  and  C_12
REMARK    4  A    between atoms: N_14  and  C_15
REMARK    5  A    between atoms: C_15  and  C_16
REMARK    6  A    between atoms: C_15  and  C_23
REMARK    7  A    between atoms: C_16  and  C_17
REMARK    8  A    between atoms: N_25  and  C_26
REMARK                            x       y       z     vdW  Elec       q    Type
REMARK                         _______ _______ _______ _____ _____    ______ ____
ROOT
ATOM      1  C   UNL     1       1.669   8.761  19.893  0.00  0.00    +0.000 C 
ENDROOT
BRANCH   1   4
ATOM      2  C   UNL     1       0.484   9.824  17.923  0.00  0.00    +0.000 C 
ATOM      3  O   UNL     1       1.523  10.263  17.455  0.00  0.00    +0.000 OA
ATOM      4  N   UNL     1       0.467   9.086  19.091  0.00  0.00    +0.000 N 
ATOM      5  H   UNL     1      -0.366   8.558  19.325  0.00  0.00    +0.000 HD
BRANCH   2   6
ATOM      6  C   UNL     1      -0.903  10.132  17.320  0.00  0.00    +0.000 C 
BRANCH   6  16
ATOM      7  C   UNL     1      -0.043  13.198  18.465  0.00  0.00    +0.000 C 
ATOM      8  C   UNL     1      -1.306  12.414  18.548  0.00  0.00    +0.000 A 
ATOM      9  N   UNL     1      -2.374  12.973  19.211  0.00  0.00    +0.000 N 
ATOM     10  C   UNL     1      -3.508  12.235  19.018  0.00  0.00    +0.000 A 
ATOM     11  C   UNL     1      -4.824  12.505  19.414  0.00  0.00    +0.000 A 
ATOM     12  C   UNL     1      -5.808  11.587  19.049  0.00  0.00    +0.000 A 
ATOM     13  C   UNL     1      -5.477  10.435  18.340  0.00  0.00    +0.000 A 
ATOM     14  C   UNL     1      -4.147  10.173  17.975  0.00  0.00    +0.000 A 
ATOM     15  C   UNL     1      -3.135  11.095  18.313  0.00  0.00    +0.000 A 
ATOM     16  C   UNL     1      -1.713  11.166  18.073  0.00  0.00    +0.000 A 
ATOM     17  H   UNL     1      -2.351  13.848  19.712  0.00  0.00    +0.000 HD
ENDBRANCH   6  16
ENDBRANCH   2   6
ENDBRANCH   1   4
BRANCH   1  18
ATOM     18  C   UNL     1       2.225   7.404  19.397  0.00  0.00    +0.000 C 
ATOM     19  O   UNL     1       2.836   7.334  18.325  0.00  0.00    +0.000 OA
ATOM     20  N   UNL     1       2.007   6.303  20.211  0.00  0.00    +0.000 N 
ATOM     21  H   UNL     1       1.426   6.416  21.034  0.00  0.00    +0.000 HD
BRANCH  20  22
ATOM     22  C   UNL     1       2.403   4.927  19.855  0.00  0.00    +0.000 C 
ATOM     23  C   UNL     1       3.941   4.828  19.688  0.00  0.00    +0.000 C 
ATOM     24  C   UNL     1       4.365   3.406  19.303  0.00  0.00    +0.000 C 
ATOM     25  C   UNL     1       3.952   2.440  20.422  0.00  0.00    +0.000 C 
ATOM     26  C   UNL     1       2.428   2.483  20.611  0.00  0.00    +0.000 C 
ATOM     27  C   UNL     1       1.756   2.059  19.295  0.00  0.00    +0.000 C 
ATOM     28  C   UNL     1       2.139   3.036  18.174  0.00  0.00    +0.000 C 
ATOM     29  C   UNL     1       3.666   3.018  17.989  0.00  0.00    +0.000 C 
ATOM     30  C   UNL     1       1.693   4.458  18.557  0.00  0.00    +0.000 C 
ATOM     31  C   UNL     1       1.992   3.923  20.974  0.00  0.00    +0.000 C 
ENDBRANCH  20  22
ENDBRANCH   1  18
BRANCH   1  32
ATOM     32  C   UNL     1       1.402   8.690  21.415  0.00  0.00    +0.000 C 
BRANCH  32  33
ATOM     33  C   UNL     1       0.535   9.808  21.966  0.00  0.00    +0.000 A 
ATOM     34  C   UNL     1      -0.478   9.542  22.898  0.00  0.00    +0.000 A 
ATOM     35  C   UNL     1      -1.342  10.558  23.319  0.00  0.00    +0.000 A 
ATOM     36  C   UNL     1      -1.196  11.851  22.821  0.00  0.00    +0.000 A 
ATOM     37  C   UNL     1      -0.161  12.138  21.936  0.00  0.00    +0.000 A 
ATOM     38  C   UNL     1       0.704  11.126  21.524  0.00  0.00    +0.000 A 
ENDBRANCH  32  33
ENDBRANCH   1  32
TORSDOF 7
ENDMDL
