MODEL 1
REMARK VINA RESULT:      -6.7      0.000      0.000
REMARK  Name = 
REMARK  1 active torsions:
REMARK  status: ('A' for Active; 'I' for Inactive)
REMARK    1  A    between atoms: C_1  and  N_2
REMARK                            x       y       z     vdW  Elec       q    Type
REMARK                         _______ _______ _______ _____ _____    ______ ____
ROOT
ATOM      1  C   UNL     1       2.867   4.533  20.910  0.00  0.00    +0.000 C 
ATOM      2  N   UNL     1       3.503   4.985  19.691  0.00  0.00    +0.000 N 
ATOM      3  C   UNL     1       4.604   4.291  19.202  0.00  0.00    +0.000 C 
ATOM      4  O   UNL     1       4.837   3.109  19.455  0.00  0.00    +0.000 OA
ATOM      5  C   UNL     1       5.627   5.234  18.570  0.00  0.00    +0.000 C 
ATOM      6  C   UNL     1       6.988   4.618  18.326  0.00  0.00    +0.000 C 
ATOM      7  C   UNL     1       7.434   4.489  16.897  0.00  0.00    +0.000 C 
ATOM      8  C   UNL     1       6.763   5.395  15.891  0.00  0.00    +0.000 C 
ATOM      9  C   UNL     1       5.558   6.231  16.283  0.00  0.00    +0.000 C 
ATOM     10  O   UNL     1       5.110   6.995  15.423  0.00  0.00    +0.000 OA
ATOM     11  N   UNL     1       5.006   6.054  17.534  0.00  0.00    +0.000 N 
ATOM     12  C   UNL     1       3.812   6.732  17.997  0.00  0.00    +0.000 A 
ATOM     13  C   UNL     1       3.307   7.901  17.423  0.00  0.00    +0.000 A 
ATOM     14  C   UNL     1       2.221   8.557  18.008  0.00  0.00    +0.000 A 
ATOM     15  C   UNL     1       1.653   8.009  19.150  0.00  0.00    +0.000 A 
ATOM     16  N   UNL     1       2.083   6.877  19.726  0.00  0.00    +0.000 NA
ATOM     17  C   UNL     1       3.129   6.241  19.139  0.00  0.00    +0.000 A 
ENDROOT
TORSDOF 0
ENDMDL
MODEL 2
REMARK VINA RESULT:      -6.6      2.142      4.833
REMARK  Name = 
REMARK  1 active torsions:
REMARK  status: ('A' for Active; 'I' for Inactive)
REMARK    1  A    between atoms: C_1  and  N_2
REMARK                            x       y       z     vdW  Elec       q    Type
REMARK                         _______ _______ _______ _____ _____    ______ ____
ROOT
ATOM      1  C   UNL     1       3.390   8.149  17.915  0.00  0.00    +0.000 C 
ATOM      2  N   UNL     1       3.219   6.723  18.093  0.00  0.00    +0.000 N 
ATOM      3  C   UNL     1       2.424   6.259  19.134  0.00  0.00    +0.000 C 
ATOM      4  O   UNL     1       1.527   6.920  19.658  0.00  0.00    +0.000 OA
ATOM      5  C   UNL     1       2.983   4.972  19.737  0.00  0.00    +0.000 C 
ATOM      6  C   UNL     1       2.386   4.590  21.075  0.00  0.00    +0.000 C 
ATOM      7  C   UNL     1       1.597   3.313  21.133  0.00  0.00    +0.000 C 
ATOM      8  C   UNL     1       1.868   2.297  20.047  0.00  0.00    +0.000 C 
ATOM      9  C   UNL     1       2.735   2.651  18.852  0.00  0.00    +0.000 C 
ATOM     10  O   UNL     1       2.962   1.747  18.044  0.00  0.00    +0.000 OA
ATOM     11  N   UNL     1       3.166   3.954  18.708  0.00  0.00    +0.000 N 
ATOM     12  C   UNL     1       3.930   4.434  17.574  0.00  0.00    +0.000 A 
ATOM     13  C   UNL     1       4.648   3.604  16.710  0.00  0.00    +0.000 A 
ATOM     14  C   UNL     1       5.458   4.159  15.716  0.00  0.00    +0.000 A 
ATOM     15  C   UNL     1       5.511   5.541  15.600  0.00  0.00    +0.000 A 
ATOM     16  N   UNL     1       4.824   6.382  16.388  0.00  0.00    +0.000 NA
ATOM     17  C   UNL     1       4.029   5.829  17.339  0.00  0.00    +0.000 A 
ENDROOT
TORSDOF 0
ENDMDL
MODEL 3
REMARK VINA RESULT:      -6.2      3.040      4.798
REMARK  Name = 
REMARK  1 active torsions:
REMARK  status: ('A' for Active; 'I' for Inactive)
REMARK    1  A    between atoms: C_1  and  N_2
REMARK                            x       y       z     vdW  Elec       q    Type
REMARK                         _______ _______ _______ _____ _____    ______ ____
ROOT
ATOM      1  C   UNL     1       7.789   5.886  18.361  0.00  0.00    +0.000 C 
ATOM      2  N   UNL     1       6.535   5.251  18.016  0.00  0.00    +0.000 N 
ATOM      3  C   UNL     1       5.649   4.903  19.029  0.00  0.00    +0.000 C 
ATOM      4  O   UNL     1       5.625   5.445  20.134  0.00  0.00    +0.000 OA
ATOM      5  C   UNL     1       4.924   3.595  18.717  0.00  0.00    +0.000 C 
ATOM      6  C   UNL     1       4.210   2.971  19.897  0.00  0.00    +0.000 C 
ATOM      7  C   UNL     1       2.713   2.873  19.817  0.00  0.00    +0.000 C 
ATOM      8  C   UNL     1       2.102   2.926  18.436  0.00  0.00    +0.000 C 
ATOM      9  C   UNL     1       2.949   3.275  17.226  0.00  0.00    +0.000 C 
ATOM     10  O   UNL     1       2.390   3.231  16.126  0.00  0.00    +0.000 OA
ATOM     11  N   UNL     1       4.257   3.668  17.421  0.00  0.00    +0.000 N 
ATOM     12  C   UNL     1       5.141   4.100  16.358  0.00  0.00    +0.000 A 
ATOM     13  C   UNL     1       4.936   3.811  15.007  0.00  0.00    +0.000 A 
ATOM     14  C   UNL     1       5.903   4.160  14.061  0.00  0.00    +0.000 A 
ATOM     15  C   UNL     1       7.048   4.813  14.494  0.00  0.00    +0.000 A 
ATOM     16  N   UNL     1       7.283   5.135  15.774  0.00  0.00    +0.000 NA
ATOM     17  C   UNL     1       6.329   4.805  16.682  0.00  0.00    +0.000 A 
ENDROOT
TORSDOF 0
ENDMDL
MODEL 4
REMARK VINA RESULT:      -6.2      1.788      3.879
REMARK  Name = 
REMARK  1 active torsions:
REMARK  status: ('A' for Active; 'I' for Inactive)
REMARK    1  A    between atoms: C_1  and  N_2
REMARK                            x       y       z     vdW  Elec       q    Type
REMARK                         _______ _______ _______ _____ _____    ______ ____
ROOT
ATOM      1  C   UNL     1       5.072   6.631  15.837  0.00  0.00    +0.000 C 
ATOM      2  N   UNL     1       4.498   6.026  17.020  0.00  0.00    +0.000 N 
ATOM      3  C   UNL     1       4.747   4.685  17.286  0.00  0.00    +0.000 C 
ATOM      4  O   UNL     1       5.728   4.073  16.860  0.00  0.00    +0.000 OA
ATOM      5  C   UNL     1       3.531   3.999  17.907  0.00  0.00    +0.000 C 
ATOM      6  C   UNL     1       3.592   2.486  17.910  0.00  0.00    +0.000 C 
ATOM      7  C   UNL     1       3.641   1.806  19.249  0.00  0.00    +0.000 C 
ATOM      8  C   UNL     1       3.137   2.599  20.432  0.00  0.00    +0.000 C 
ATOM      9  C   UNL     1       2.804   4.074  20.293  0.00  0.00    +0.000 C 
ATOM     10  O   UNL     1       2.335   4.633  21.288  0.00  0.00    +0.000 OA
ATOM     11  N   UNL     1       3.090   4.710  19.103  0.00  0.00    +0.000 N 
ATOM     12  C   UNL     1       2.893   6.127  18.872  0.00  0.00    +0.000 A 
ATOM     13  C   UNL     1       2.052   6.932  19.644  0.00  0.00    +0.000 A 
ATOM     14  C   UNL     1       1.824   8.261  19.277  0.00  0.00    +0.000 A 
ATOM     15  C   UNL     1       2.466   8.757  18.150  0.00  0.00    +0.000 A 
ATOM     16  N   UNL     1       3.301   8.033  17.390  0.00  0.00    +0.000 NA
ATOM     17  C   UNL     1       3.526   6.748  17.766  0.00  0.00    +0.000 A 
ENDROOT
TORSDOF 0
ENDMDL
MODEL 5
REMARK VINA RESULT:      -6.2      2.391      4.535
REMARK  Name = 
REMARK  1 active torsions:
REMARK  status: ('A' for Active; 'I' for Inactive)
REMARK    1  A    between atoms: C_1  and  N_2
REMARK                            x       y       z     vdW  Elec       q    Type
REMARK                         _______ _______ _______ _____ _____    ______ ____
ROOT
ATOM      1  C   UNL     1       5.328   3.216  15.961  0.00  0.00    +0.000 C 
ATOM      2  N   UNL     1       4.456   3.695  17.012  0.00  0.00    +0.000 N 
ATOM      3  C   UNL     1       3.722   2.778  17.756  0.00  0.00    +0.000 C 
ATOM      4  O   UNL     1       4.042   1.598  17.897  0.00  0.00    +0.000 OA
ATOM      5  C   UNL     1       2.344   3.327  18.121  0.00  0.00    +0.000 C 
ATOM      6  C   UNL     1       1.363   2.288  18.622  0.00  0.00    +0.000 C 
ATOM      7  C   UNL     1       0.894   2.421  20.043  0.00  0.00    +0.000 C 
ATOM      8  C   UNL     1       1.021   3.786  20.677  0.00  0.00    +0.000 C 
ATOM      9  C   UNL     1       1.780   4.899  19.975  0.00  0.00    +0.000 C 
ATOM     10  O   UNL     1       1.781   6.003  20.527  0.00  0.00    +0.000 OA
ATOM     11  N   UNL     1       2.461   4.607  18.811  0.00  0.00    +0.000 N 
ATOM     12  C   UNL     1       3.284   5.559  18.093  0.00  0.00    +0.000 A 
ATOM     13  C   UNL     1       3.186   6.944  18.244  0.00  0.00    +0.000 A 
ATOM     14  C   UNL     1       3.932   7.793  17.422  0.00  0.00    +0.000 A 
ATOM     15  C   UNL     1       4.776   7.227  16.477  0.00  0.00    +0.000 A 
ATOM     16  N   UNL     1       4.925   5.905  16.308  0.00  0.00    +0.000 NA
ATOM     17  C   UNL     1       4.207   5.091  17.123  0.00  0.00    +0.000 A 
ENDROOT
TORSDOF 0
ENDMDL
MODEL 6
REMARK VINA RESULT:      -6.0      1.894      4.243
REMARK  Name = 
REMARK  1 active torsions:
REMARK  status: ('A' for Active; 'I' for Inactive)
REMARK    1  A    between atoms: C_1  and  N_2
REMARK                            x       y       z     vdW  Elec       q    Type
REMARK                         _______ _______ _______ _____ _____    ______ ____
ROOT
ATOM      1  C   UNL     1       6.277   4.463  17.374  0.00  0.00    +0.000 C 
ATOM      2  N   UNL     1       5.101   4.636  18.200  0.00  0.00    +0.000 N 
ATOM      3  C   UNL     1       4.672   3.582  18.999  0.00  0.00    +0.000 C 
ATOM      4  O   UNL     1       5.409   2.678  19.394  0.00  0.00    +0.000 OA
ATOM      5  C   UNL     1       3.148   3.522  19.078  0.00  0.00    +0.000 C 
ATOM      6  C   UNL     1       2.595   2.226  19.633  0.00  0.00    +0.000 C 
ATOM      7  C   UNL     1       1.847   2.302  20.934  0.00  0.00    +0.000 C 
ATOM      8  C   UNL     1       1.287   3.652  21.317  0.00  0.00    +0.000 C 
ATOM      9  C   UNL     1       1.650   4.896  20.526  0.00  0.00    +0.000 C 
ATOM     10  O   UNL     1       1.097   5.947  20.861  0.00  0.00    +0.000 OA
ATOM     11  N   UNL     1       2.601   4.797  19.532  0.00  0.00    +0.000 N 
ATOM     12  C   UNL     1       3.090   5.922  18.762  0.00  0.00    +0.000 A 
ATOM     13  C   UNL     1       2.413   7.138  18.643  0.00  0.00    +0.000 A 
ATOM     14  C   UNL     1       2.894   8.127  17.781  0.00  0.00    +0.000 A 
ATOM     15  C   UNL     1       4.061   7.877  17.071  0.00  0.00    +0.000 A 
ATOM     16  N   UNL     1       4.761   6.737  17.168  0.00  0.00    +0.000 NA
ATOM     17  C   UNL     1       4.292   5.791  18.020  0.00  0.00    +0.000 A 
ENDROOT
TORSDOF 0
ENDMDL
MODEL 7
REMARK VINA RESULT:      -6.0      1.785      4.904
REMARK  Name = 
REMARK  1 active torsions:
REMARK  status: ('A' for Active; 'I' for Inactive)
REMARK    1  A    between atoms: C_1  and  N_2
REMARK                            x       y       z     vdW  Elec       q    Type
REMARK                         _______ _______ _______ _____ _____    ______ ____
ROOT
ATOM      1  C   UNL     1       3.502   7.829  17.055  0.00  0.00    +0.000 C 
ATOM      2  N   UNL     1       3.703   6.596  17.786  0.00  0.00    +0.000 N 
ATOM      3  C   UNL     1       2.627   6.016  18.447  0.00  0.00    +0.000 C 
ATOM      4  O   UNL     1       1.450   6.205  18.139  0.00  0.00    +0.000 OA
ATOM      5  C   UNL     1       3.059   5.366  19.761  0.00  0.00    +0.000 C 
ATOM      6  C   UNL     1       1.921   5.019  20.698  0.00  0.00    +0.000 C 
ATOM      7  C   UNL     1       1.699   3.563  20.993  0.00  0.00    +0.000 C 
ATOM      8  C   UNL     1       2.870   2.636  20.762  0.00  0.00    +0.000 C 
ATOM      9  C   UNL     1       4.126   3.131  20.068  0.00  0.00    +0.000 C 
ATOM     10  O   UNL     1       5.062   2.332  19.978  0.00  0.00    +0.000 OA
ATOM     11  N   UNL     1       4.132   4.404  19.536  0.00  0.00    +0.000 N 
ATOM     12  C   UNL     1       5.237   4.963  18.783  0.00  0.00    +0.000 A 
ATOM     13  C   UNL     1       6.543   4.468  18.832  0.00  0.00    +0.000 A 
ATOM     14  C   UNL     1       7.573   5.142  18.170  0.00  0.00    +0.000 A 
ATOM     15  C   UNL     1       7.261   6.290  17.455  0.00  0.00    +0.000 A 
ATOM     16  N   UNL     1       6.022   6.793  17.357  0.00  0.00    +0.000 NA
ATOM     17  C   UNL     1       5.027   6.120  17.991  0.00  0.00    +0.000 A 
ENDROOT
TORSDOF 0
ENDMDL
MODEL 8
REMARK VINA RESULT:      -5.9      2.254      3.537
REMARK  Name = 
REMARK  1 active torsions:
REMARK  status: ('A' for Active; 'I' for Inactive)
REMARK    1  A    between atoms: C_1  and  N_2
REMARK                            x       y       z     vdW  Elec       q    Type
REMARK                         _______ _______ _______ _____ _____    ______ ____
ROOT
ATOM      1  C   UNL     1       3.961   1.243  18.058  0.00  0.00    +0.000 C 
ATOM      2  N   UNL     1       3.717   2.669  18.073  0.00  0.00    +0.000 N 
ATOM      3  C   UNL     1       4.501   3.501  17.283  0.00  0.00    +0.000 C 
ATOM      4  O   UNL     1       5.094   3.126  16.271  0.00  0.00    +0.000 OA
ATOM      5  C   UNL     1       4.775   4.836  17.973  0.00  0.00    +0.000 C 
ATOM      6  C   UNL     1       5.887   5.654  17.349  0.00  0.00    +0.000 C 
ATOM      7  C   UNL     1       5.506   6.974  16.741  0.00  0.00    +0.000 C 
ATOM      8  C   UNL     1       4.214   7.595  17.219  0.00  0.00    +0.000 C 
ATOM      9  C   UNL     1       3.259   6.814  18.105  0.00  0.00    +0.000 C 
ATOM     10  O   UNL     1       2.259   7.415  18.506  0.00  0.00    +0.000 OA
ATOM     11  N   UNL     1       3.527   5.486  18.361  0.00  0.00    +0.000 N 
ATOM     12  C   UNL     1       2.656   4.615  19.124  0.00  0.00    +0.000 A 
ATOM     13  C   UNL     1       1.672   5.073  20.004  0.00  0.00    +0.000 A 
ATOM     14  C   UNL     1       0.960   4.166  20.792  0.00  0.00    +0.000 A 
ATOM     15  C   UNL     1       1.240   2.813  20.662  0.00  0.00    +0.000 A 
ATOM     16  N   UNL     1       2.156   2.320  19.817  0.00  0.00    +0.000 NA
ATOM     17  C   UNL     1       2.830   3.210  19.045  0.00  0.00    +0.000 A 
ENDROOT
TORSDOF 0
ENDMDL
MODEL 9
REMARK VINA RESULT:      -5.9      4.381      7.036
REMARK  Name = 
REMARK  1 active torsions:
REMARK  status: ('A' for Active; 'I' for Inactive)
REMARK    1  A    between atoms: C_1  and  N_2
REMARK                            x       y       z     vdW  Elec       q    Type
REMARK                         _______ _______ _______ _____ _____    ______ ____
ROOT
ATOM      1  C   UNL     1       0.671  13.722  19.488  0.00  0.00    +0.000 C 
ATOM      2  N   UNL     1       0.879  12.326  19.808  0.00  0.00    +0.000 N 
ATOM      3  C   UNL     1       1.605  11.529  18.931  0.00  0.00    +0.000 C 
ATOM      4  O   UNL     1       2.432  11.967  18.132  0.00  0.00    +0.000 OA
ATOM      5  C   UNL     1       1.047  10.108  18.871  0.00  0.00    +0.000 C 
ATOM      6  C   UNL     1       1.548   9.281  17.705  0.00  0.00    +0.000 C 
ATOM      7  C   UNL     1       2.376   8.070  18.031  0.00  0.00    +0.000 C 
ATOM      8  C   UNL     1       2.231   7.503  19.424  0.00  0.00    +0.000 C 
ATOM      9  C   UNL     1       1.450   8.251  20.489  0.00  0.00    +0.000 C 
ATOM     10  O   UNL     1       1.321   7.689  21.580  0.00  0.00    +0.000 OA
ATOM     11  N   UNL     1       0.984   9.518  20.204  0.00  0.00    +0.000 N 
ATOM     12  C   UNL     1       0.297  10.363  21.159  0.00  0.00    +0.000 A 
ATOM     13  C   UNL     1      -0.319   9.888  22.320  0.00  0.00    +0.000 A 
ATOM     14  C   UNL     1      -1.066  10.754  23.122  0.00  0.00    +0.000 A 
ATOM     15  C   UNL     1      -1.160  12.087  22.748  0.00  0.00    +0.000 A 
ATOM     16  N   UNL     1      -0.570  12.599  21.659  0.00  0.00    +0.000 NA
ATOM     17  C   UNL     1       0.166  11.751  20.896  0.00  0.00    +0.000 A 
ENDROOT
TORSDOF 0
ENDMDL
