MODEL 1
REMARK VINA RESULT:      -7.4      0.000      0.000
REMARK  Name = 
REMARK  4 active torsions:
REMARK  status: ('A' for Active; 'I' for Inactive)
REMARK    1  A    between atoms: C_2  and  C_3
REMARK    2  A    between atoms: C_3  and  O_4
REMARK    3  A    between atoms: O_4  and  C_5
REMARK    4  A    between atoms: N_14  and  C_15
REMARK                            x       y       z     vdW  Elec       q    Type
REMARK                         _______ _______ _______ _____ _____    ______ ____
ROOT
ATOM      1  O   UNL     1       8.203   4.132  17.489  0.00  0.00    +0.000 OA
ATOM      2  C   UNL     1       7.440   5.095  17.521  0.00  0.00    +0.000 C 
ATOM      3  N   UNL     1       6.749   5.605  16.434  0.00  0.00    +0.000 N 
ATOM      4  H   UNL     1       6.343   6.532  16.527  0.00  0.00    +0.000 HD
ENDROOT
BRANCH   3   5
ATOM      5  C   UNL     1       6.683   5.040  15.139  0.00  0.00    +0.000 A 
ATOM      6  C   UNL     1       7.635   5.268  14.141  0.00  0.00    +0.000 A 
ATOM      7  C   UNL     1       7.482   4.689  12.876  0.00  0.00    +0.000 A 
ATOM      8  C   UNL     1       6.382   3.880  12.613  0.00  0.00    +0.000 A 
ATOM      9  F   UNL     1       6.232   3.350  11.392  0.00  0.00    +0.000 F 
ATOM     10  C   UNL     1       5.440   3.616  13.595  0.00  0.00    +0.000 A 
ATOM     11  C   UNL     1       5.605   4.188  14.852  0.00  0.00    +0.000 A 
ATOM     12  F   UNL     1       4.696   3.930  15.806  0.00  0.00    +0.000 F 
ENDBRANCH   3   5
BRANCH   2  13
ATOM     13  C   UNL     1       7.164   5.836  18.825  0.00  0.00    +0.000 C 
BRANCH  13  14
ATOM     14  O   UNL     1       6.227   5.142  19.642  0.00  0.00    +0.000 OA
BRANCH  14  15
ATOM     15  C   UNL     1       4.955   5.160  19.089  0.00  0.00    +0.000 A 
ATOM     16  N   UNL     1       4.468   6.318  18.591  0.00  0.00    +0.000 NA
ATOM     17  C   UNL     1       3.235   6.309  18.063  0.00  0.00    +0.000 A 
ATOM     18  N   UNL     1       2.392   5.277  17.984  0.00  0.00    +0.000 NA
ATOM     19  C   UNL     1       2.908   4.150  18.501  0.00  0.00    +0.000 A 
ATOM     20  S   UNL     1       2.003   2.707  18.515  0.00  0.00    +0.000 S 
ATOM     21  C   UNL     1       3.273   1.847  19.269  0.00  0.00    +0.000 A 
ATOM     22  C   UNL     1       4.370   2.649  19.503  0.00  0.00    +0.000 A 
ATOM     23  C   UNL     1       4.167   4.000  19.065  0.00  0.00    +0.000 A 
ENDBRANCH  14  15
ENDBRANCH  13  14
ENDBRANCH   2  13
TORSDOF 4
ENDMDL
MODEL 2
REMARK VINA RESULT:      -7.2      3.839      6.488
REMARK  Name = 
REMARK  4 active torsions:
REMARK  status: ('A' for Active; 'I' for Inactive)
REMARK    1  A    between atoms: C_2  and  C_3
REMARK    2  A    between atoms: C_3  and  O_4
REMARK    3  A    between atoms: O_4  and  C_5
REMARK    4  A    between atoms: N_14  and  C_15
REMARK                            x       y       z     vdW  Elec       q    Type
REMARK                         _______ _______ _______ _____ _____    ______ ____
ROOT
ATOM      1  O   UNL     1       1.622   4.809  18.784  0.00  0.00    +0.000 OA
ATOM      2  C   UNL     1       2.591   5.144  19.463  0.00  0.00    +0.000 C 
ATOM      3  N   UNL     1       2.985   6.449  19.708  0.00  0.00    +0.000 N 
ATOM      4  H   UNL     1       3.920   6.597  20.075  0.00  0.00    +0.000 HD
ENDROOT
BRANCH   3   5
ATOM      5  C   UNL     1       2.281   7.622  19.346  0.00  0.00    +0.000 A 
ATOM      6  C   UNL     1       2.325   8.194  18.072  0.00  0.00    +0.000 A 
ATOM      7  C   UNL     1       1.617   9.371  17.804  0.00  0.00    +0.000 A 
ATOM      8  C   UNL     1       0.863   9.970  18.807  0.00  0.00    +0.000 A 
ATOM      9  F   UNL     1       0.208  11.110  18.548  0.00  0.00    +0.000 F 
ATOM     10  C   UNL     1       0.781   9.405  20.071  0.00  0.00    +0.000 A 
ATOM     11  C   UNL     1       1.481   8.230  20.326  0.00  0.00    +0.000 A 
ATOM     12  F   UNL     1       1.399   7.680  21.547  0.00  0.00    +0.000 F 
ENDBRANCH   3   5
BRANCH   2  13
ATOM     13  C   UNL     1       3.475   4.099  20.139  0.00  0.00    +0.000 C 
BRANCH  13  14
ATOM     14  O   UNL     1       4.284   3.401  19.198  0.00  0.00    +0.000 OA
BRANCH  14  15
ATOM     15  C   UNL     1       5.336   4.185  18.747  0.00  0.00    +0.000 A 
ATOM     16  N   UNL     1       6.082   4.868  19.643  0.00  0.00    +0.000 NA
ATOM     17  C   UNL     1       7.092   5.619  19.181  0.00  0.00    +0.000 A 
ATOM     18  N   UNL     1       7.454   5.803  17.910  0.00  0.00    +0.000 NA
ATOM     19  C   UNL     1       6.681   5.118  17.050  0.00  0.00    +0.000 A 
ATOM     20  S   UNL     1       6.955   5.211  15.372  0.00  0.00    +0.000 S 
ATOM     21  C   UNL     1       5.660   4.144  15.041  0.00  0.00    +0.000 A 
ATOM     22  C   UNL     1       5.032   3.724  16.195  0.00  0.00    +0.000 A 
ATOM     23  C   UNL     1       5.614   4.292  17.376  0.00  0.00    +0.000 A 
ENDBRANCH  14  15
ENDBRANCH  13  14
ENDBRANCH   2  13
TORSDOF 4
ENDMDL
MODEL 3
REMARK VINA RESULT:      -7.1      3.439      6.390
REMARK  Name = 
REMARK  4 active torsions:
REMARK  status: ('A' for Active; 'I' for Inactive)
REMARK    1  A    between atoms: C_2  and  C_3
REMARK    2  A    between atoms: C_3  and  O_4
REMARK    3  A    between atoms: O_4  and  C_5
REMARK    4  A    between atoms: N_14  and  C_15
REMARK                            x       y       z     vdW  Elec       q    Type
REMARK                         _______ _______ _______ _____ _____    ______ ____
ROOT
ATOM      1  O   UNL     1       1.841   4.898  18.476  0.00  0.00    +0.000 OA
ATOM      2  C   UNL     1       2.662   5.158  19.353  0.00  0.00    +0.000 C 
ATOM      3  N   UNL     1       2.938   6.424  19.841  0.00  0.00    +0.000 N 
ATOM      4  H   UNL     1       3.790   6.545  20.383  0.00  0.00    +0.000 HD
ENDROOT
BRANCH   3   5
ATOM      5  C   UNL     1       2.243   7.616  19.530  0.00  0.00    +0.000 A 
ATOM      6  C   UNL     1       1.375   8.264  20.413  0.00  0.00    +0.000 A 
ATOM      7  C   UNL     1       0.707   9.428  20.017  0.00  0.00    +0.000 A 
ATOM      8  C   UNL     1       0.912   9.945  18.742  0.00  0.00    +0.000 A 
ATOM      9  F   UNL     1       0.250  11.047  18.363  0.00  0.00    +0.000 F 
ATOM     10  C   UNL     1       1.791   9.336  17.859  0.00  0.00    +0.000 A 
ATOM     11  C   UNL     1       2.457   8.185  18.264  0.00  0.00    +0.000 A 
ATOM     12  F   UNL     1       3.311   7.596  17.413  0.00  0.00    +0.000 F 
ENDBRANCH   3   5
BRANCH   2  13
ATOM     13  C   UNL     1       3.476   4.053  20.020  0.00  0.00    +0.000 C 
BRANCH  13  14
ATOM     14  O   UNL     1       4.312   3.374  19.088  0.00  0.00    +0.000 OA
BRANCH  14  15
ATOM     15  C   UNL     1       5.359   4.178  18.660  0.00  0.00    +0.000 A 
ATOM     16  N   UNL     1       6.077   4.869  19.573  0.00  0.00    +0.000 NA
ATOM     17  C   UNL     1       7.082   5.639  19.134  0.00  0.00    +0.000 A 
ATOM     18  N   UNL     1       7.464   5.835  17.870  0.00  0.00    +0.000 NA
ATOM     19  C   UNL     1       6.719   5.141  16.993  0.00  0.00    +0.000 A 
ATOM     20  S   UNL     1       7.022   5.247  15.320  0.00  0.00    +0.000 S 
ATOM     21  C   UNL     1       5.752   4.160  14.961  0.00  0.00    +0.000 A 
ATOM     22  C   UNL     1       5.110   3.724  16.101  0.00  0.00    +0.000 A 
ATOM     23  C   UNL     1       5.660   4.296  17.296  0.00  0.00    +0.000 A 
ENDBRANCH  14  15
ENDBRANCH  13  14
ENDBRANCH   2  13
TORSDOF 4
ENDMDL
MODEL 4
REMARK VINA RESULT:      -7.1      5.630      7.587
REMARK  Name = 
REMARK  4 active torsions:
REMARK  status: ('A' for Active; 'I' for Inactive)
REMARK    1  A    between atoms: C_2  and  C_3
REMARK    2  A    between atoms: C_3  and  O_4
REMARK    3  A    between atoms: O_4  and  C_5
REMARK    4  A    between atoms: N_14  and  C_15
REMARK                            x       y       z     vdW  Elec       q    Type
REMARK                         _______ _______ _______ _____ _____    ______ ____
ROOT
ATOM      1  O   UNL     1       7.848  10.293  17.496  0.00  0.00    +0.000 OA
ATOM      2  C   UNL     1       8.339   9.376  18.151  0.00  0.00    +0.000 C 
ATOM      3  N   UNL     1       9.237   9.529  19.194  0.00  0.00    +0.000 N 
ATOM      4  H   UNL     1       9.751   8.706  19.497  0.00  0.00    +0.000 HD
ENDROOT
BRANCH   3   5
ATOM      5  C   UNL     1       9.643  10.749  19.783  0.00  0.00    +0.000 A 
ATOM      6  C   UNL     1       9.211  11.189  21.038  0.00  0.00    +0.000 A 
ATOM      7  C   UNL     1       9.642  12.423  21.538  0.00  0.00    +0.000 A 
ATOM      8  C   UNL     1      10.508  13.211  20.787  0.00  0.00    +0.000 A 
ATOM      9  F   UNL     1      10.896  14.401  21.264  0.00  0.00    +0.000 F 
ATOM     10  C   UNL     1      10.973  12.782  19.553  0.00  0.00    +0.000 A 
ATOM     11  C   UNL     1      10.546  11.551  19.068  0.00  0.00    +0.000 A 
ATOM     12  F   UNL     1      10.998  11.132  17.876  0.00  0.00    +0.000 F 
ENDBRANCH   3   5
BRANCH   2  13
ATOM     13  C   UNL     1       7.973   7.923  17.865  0.00  0.00    +0.000 C 
BRANCH  13  14
ATOM     14  O   UNL     1       6.728   7.814  17.181  0.00  0.00    +0.000 OA
BRANCH  14  15
ATOM     15  C   UNL     1       6.463   6.506  16.805  0.00  0.00    +0.000 A 
ATOM     16  N   UNL     1       7.365   5.840  16.050  0.00  0.00    +0.000 NA
ATOM     17  C   UNL     1       7.084   4.577  15.699  0.00  0.00    +0.000 A 
ATOM     18  N   UNL     1       5.986   3.877  15.990  0.00  0.00    +0.000 NA
ATOM     19  C   UNL     1       5.110   4.577  16.730  0.00  0.00    +0.000 A 
ATOM     20  S   UNL     1       3.630   3.884  17.211  0.00  0.00    +0.000 S 
ATOM     21  C   UNL     1       3.165   5.306  18.038  0.00  0.00    +0.000 A 
ATOM     22  C   UNL     1       4.126   6.292  17.949  0.00  0.00    +0.000 A 
ATOM     23  C   UNL     1       5.265   5.881  17.180  0.00  0.00    +0.000 A 
ENDBRANCH  14  15
ENDBRANCH  13  14
ENDBRANCH   2  13
TORSDOF 4
ENDMDL
MODEL 5
REMARK VINA RESULT:      -6.9      5.642      7.478
REMARK  Name = 
REMARK  4 active torsions:
REMARK  status: ('A' for Active; 'I' for Inactive)
REMARK    1  A    between atoms: C_2  and  C_3
REMARK    2  A    between atoms: C_3  and  O_4
REMARK    3  A    between atoms: O_4  and  C_5
REMARK    4  A    between atoms: N_14  and  C_15
REMARK                            x       y       z     vdW  Elec       q    Type
REMARK                         _______ _______ _______ _____ _____    ______ ____
ROOT
ATOM      1  O   UNL     1       8.147   6.918  18.647  0.00  0.00    +0.000 OA
ATOM      2  C   UNL     1       7.708   7.772  17.880  0.00  0.00    +0.000 C 
ATOM      3  N   UNL     1       6.614   7.612  17.046  0.00  0.00    +0.000 N 
ATOM      4  H   UNL     1       6.492   8.286  16.295  0.00  0.00    +0.000 HD
ENDROOT
BRANCH   3   5
ATOM      5  C   UNL     1       5.727   6.510  17.023  0.00  0.00    +0.000 A 
ATOM      6  C   UNL     1       4.499   6.486  17.689  0.00  0.00    +0.000 A 
ATOM      7  C   UNL     1       3.691   5.344  17.634  0.00  0.00    +0.000 A 
ATOM      8  C   UNL     1       4.109   4.233  16.911  0.00  0.00    +0.000 A 
ATOM      9  F   UNL     1       3.340   3.136  16.884  0.00  0.00    +0.000 F 
ATOM     10  C   UNL     1       5.310   4.244  16.218  0.00  0.00    +0.000 A 
ATOM     11  C   UNL     1       6.103   5.386  16.271  0.00  0.00    +0.000 A 
ATOM     12  F   UNL     1       7.264   5.401  15.597  0.00  0.00    +0.000 F 
ENDBRANCH   3   5
BRANCH   2  13
ATOM     13  C   UNL     1       8.355   9.151  17.785  0.00  0.00    +0.000 C 
BRANCH  13  14
ATOM     14  O   UNL     1       9.002   9.517  19.000  0.00  0.00    +0.000 OA
BRANCH  14  15
ATOM     15  C   UNL     1       9.564  10.783  18.919  0.00  0.00    +0.000 A 
ATOM     16  N   UNL     1      10.162  11.167  17.770  0.00  0.00    +0.000 NA
ATOM     17  C   UNL     1      10.699  12.395  17.718  0.00  0.00    +0.000 A 
ATOM     18  N   UNL     1      10.738  13.307  18.692  0.00  0.00    +0.000 NA
ATOM     19  C   UNL     1      10.143  12.882  19.819  0.00  0.00    +0.000 A 
ATOM     20  S   UNL     1      10.083  13.881  21.199  0.00  0.00    +0.000 S 
ATOM     21  C   UNL     1       9.237  12.695  22.093  0.00  0.00    +0.000 A 
ATOM     22  C   UNL     1       9.004  11.557  21.348  0.00  0.00    +0.000 A 
ATOM     23  C   UNL     1       9.535  11.651  20.020  0.00  0.00    +0.000 A 
ENDBRANCH  14  15
ENDBRANCH  13  14
ENDBRANCH   2  13
TORSDOF 4
ENDMDL
MODEL 6
REMARK VINA RESULT:      -6.9      3.654      6.688
REMARK  Name = 
REMARK  4 active torsions:
REMARK  status: ('A' for Active; 'I' for Inactive)
REMARK    1  A    between atoms: C_2  and  C_3
REMARK    2  A    between atoms: C_3  and  O_4
REMARK    3  A    between atoms: O_4  and  C_5
REMARK    4  A    between atoms: N_14  and  C_15
REMARK                            x       y       z     vdW  Elec       q    Type
REMARK                         _______ _______ _______ _____ _____    ______ ____
ROOT
ATOM      1  O   UNL     1       1.631   4.794  17.698  0.00  0.00    +0.000 OA
ATOM      2  C   UNL     1       2.768   4.995  18.119  0.00  0.00    +0.000 C 
ATOM      3  N   UNL     1       3.252   6.213  18.567  0.00  0.00    +0.000 N 
ATOM      4  H   UNL     1       4.259   6.313  18.663  0.00  0.00    +0.000 HD
ENDROOT
BRANCH   3   5
ATOM      5  C   UNL     1       2.504   7.399  18.752  0.00  0.00    +0.000 A 
ATOM      6  C   UNL     1       2.362   8.390  17.776  0.00  0.00    +0.000 A 
ATOM      7  C   UNL     1       1.623   9.546  18.050  0.00  0.00    +0.000 A 
ATOM      8  C   UNL     1       1.024   9.708  19.294  0.00  0.00    +0.000 A 
ATOM      9  F   UNL     1       0.338  10.829  19.555  0.00  0.00    +0.000 F 
ATOM     10  C   UNL     1       1.126   8.726  20.268  0.00  0.00    +0.000 A 
ATOM     11  C   UNL     1       1.856   7.576  19.984  0.00  0.00    +0.000 A 
ATOM     12  F   UNL     1       1.952   6.622  20.923  0.00  0.00    +0.000 F 
ENDBRANCH   3   5
BRANCH   2  13
ATOM     13  C   UNL     1       3.787   3.862  18.202  0.00  0.00    +0.000 C 
BRANCH  13  14
ATOM     14  O   UNL     1       4.275   3.494  16.916  0.00  0.00    +0.000 OA
BRANCH  14  15
ATOM     15  C   UNL     1       5.378   4.252  16.550  0.00  0.00    +0.000 A 
ATOM     16  N   UNL     1       5.968   5.045  17.472  0.00  0.00    +0.000 NA
ATOM     17  C   UNL     1       7.031   5.770  17.093  0.00  0.00    +0.000 A 
ATOM     18  N   UNL     1       7.586   5.827  15.880  0.00  0.00    +0.000 NA
ATOM     19  C   UNL     1       6.963   5.035  14.991  0.00  0.00    +0.000 A 
ATOM     20  S   UNL     1       7.495   4.956  13.375  0.00  0.00    +0.000 S 
ATOM     21  C   UNL     1       6.278   3.828  12.966  0.00  0.00    +0.000 A 
ATOM     22  C   UNL     1       5.481   3.516  14.048  0.00  0.00    +0.000 A 
ATOM     23  C   UNL     1       5.866   4.221  15.236  0.00  0.00    +0.000 A 
ENDBRANCH  14  15
ENDBRANCH  13  14
ENDBRANCH   2  13
TORSDOF 4
ENDMDL
MODEL 7
REMARK VINA RESULT:      -6.7      4.720      6.624
REMARK  Name = 
REMARK  4 active torsions:
REMARK  status: ('A' for Active; 'I' for Inactive)
REMARK    1  A    between atoms: C_2  and  C_3
REMARK    2  A    between atoms: C_3  and  O_4
REMARK    3  A    between atoms: O_4  and  C_5
REMARK    4  A    between atoms: N_14  and  C_15
REMARK                            x       y       z     vdW  Elec       q    Type
REMARK                         _______ _______ _______ _____ _____    ______ ____
ROOT
ATOM      1  O   UNL     1       3.927   6.969  17.111  0.00  0.00    +0.000 OA
ATOM      2  C   UNL     1       2.953   7.062  17.856  0.00  0.00    +0.000 C 
ATOM      3  N   UNL     1       2.282   5.997  18.433  0.00  0.00    +0.000 N 
ATOM      4  H   UNL     1       1.364   6.177  18.828  0.00  0.00    +0.000 HD
ENDROOT
BRANCH   3   5
ATOM      5  C   UNL     1       2.668   4.636  18.389  0.00  0.00    +0.000 A 
ATOM      6  C   UNL     1       2.043   3.676  17.590  0.00  0.00    +0.000 A 
ATOM      7  C   UNL     1       2.471   2.344  17.623  0.00  0.00    +0.000 A 
ATOM      8  C   UNL     1       3.527   1.976  18.451  0.00  0.00    +0.000 A 
ATOM      9  F   UNL     1       3.914   0.695  18.495  0.00  0.00    +0.000 F 
ATOM     10  C   UNL     1       4.182   2.917  19.232  0.00  0.00    +0.000 A 
ATOM     11  C   UNL     1       3.754   4.240  19.185  0.00  0.00    +0.000 A 
ATOM     12  F   UNL     1       4.389   5.153  19.936  0.00  0.00    +0.000 F 
ENDBRANCH   3   5
BRANCH   2  13
ATOM     13  C   UNL     1       2.383   8.425  18.237  0.00  0.00    +0.000 C 
BRANCH  13  14
ATOM     14  O   UNL     1       1.854   8.427  19.559  0.00  0.00    +0.000 OA
BRANCH  14  15
ATOM     15  C   UNL     1       1.019   9.514  19.774  0.00  0.00    +0.000 A 
ATOM     16  N   UNL     1       0.774  10.370  18.758  0.00  0.00    +0.000 NA
ATOM     17  C   UNL     1      -0.036  11.412  18.992  0.00  0.00    +0.000 A 
ATOM     18  N   UNL     1      -0.634  11.736  20.141  0.00  0.00    +0.000 NA
ATOM     19  C   UNL     1      -0.355  10.868  21.128  0.00  0.00    +0.000 A 
ATOM     20  S   UNL     1      -1.003  11.090  22.688  0.00  0.00    +0.000 S 
ATOM     21  C   UNL     1      -0.231   9.682  23.274  0.00  0.00    +0.000 A 
ATOM     22  C   UNL     1       0.507   9.054  22.293  0.00  0.00    +0.000 A 
ATOM     23  C   UNL     1       0.449   9.741  21.036  0.00  0.00    +0.000 A 
ENDBRANCH  14  15
ENDBRANCH  13  14
ENDBRANCH   2  13
TORSDOF 4
ENDMDL
MODEL 8
REMARK VINA RESULT:      -6.7      5.781      7.518
REMARK  Name = 
REMARK  4 active torsions:
REMARK  status: ('A' for Active; 'I' for Inactive)
REMARK    1  A    between atoms: C_2  and  C_3
REMARK    2  A    between atoms: C_3  and  O_4
REMARK    3  A    between atoms: O_4  and  C_5
REMARK    4  A    between atoms: N_14  and  C_15
REMARK                            x       y       z     vdW  Elec       q    Type
REMARK                         _______ _______ _______ _____ _____    ______ ____
ROOT
ATOM      1  O   UNL     1       8.276   7.075  18.703  0.00  0.00    +0.000 OA
ATOM      2  C   UNL     1       7.802   7.884  17.908  0.00  0.00    +0.000 C 
ATOM      3  N   UNL     1       6.797   7.612  16.994  0.00  0.00    +0.000 N 
ATOM      4  H   UNL     1       6.656   8.277  16.238  0.00  0.00    +0.000 HD
ENDROOT
BRANCH   3   5
ATOM      5  C   UNL     1       6.046   6.418  16.899  0.00  0.00    +0.000 A 
ATOM      6  C   UNL     1       6.549   5.221  16.380  0.00  0.00    +0.000 A 
ATOM      7  C   UNL     1       5.730   4.089  16.300  0.00  0.00    +0.000 A 
ATOM      8  C   UNL     1       4.413   4.153  16.743  0.00  0.00    +0.000 A 
ATOM      9  F   UNL     1       3.630   3.072  16.640  0.00  0.00    +0.000 F 
ATOM     10  C   UNL     1       3.901   5.321  17.290  0.00  0.00    +0.000 A 
ATOM     11  C   UNL     1       4.725   6.438  17.373  0.00  0.00    +0.000 A 
ATOM     12  F   UNL     1       4.233   7.568  17.905  0.00  0.00    +0.000 F 
ENDBRANCH   3   5
BRANCH   2  13
ATOM     13  C   UNL     1       8.292   9.328  17.869  0.00  0.00    +0.000 C 
BRANCH  13  14
ATOM     14  O   UNL     1       9.074   9.653  19.014  0.00  0.00    +0.000 OA
BRANCH  14  15
ATOM     15  C   UNL     1       9.624  10.923  18.915  0.00  0.00    +0.000 A 
ATOM     16  N   UNL     1      10.212  11.299  17.757  0.00  0.00    +0.000 NA
ATOM     17  C   UNL     1      10.737  12.531  17.687  0.00  0.00    +0.000 A 
ATOM     18  N   UNL     1      10.774  13.455  18.650  0.00  0.00    +0.000 NA
ATOM     19  C   UNL     1      10.191  13.039  19.786  0.00  0.00    +0.000 A 
ATOM     20  S   UNL     1      10.130  14.053  21.154  0.00  0.00    +0.000 S 
ATOM     21  C   UNL     1       9.300  12.870  22.068  0.00  0.00    +0.000 A 
ATOM     22  C   UNL     1       9.072  11.722  21.338  0.00  0.00    +0.000 A 
ATOM     23  C   UNL     1       9.595  11.804  20.005  0.00  0.00    +0.000 A 
ENDBRANCH  14  15
ENDBRANCH  13  14
ENDBRANCH   2  13
TORSDOF 4
ENDMDL
MODEL 9
REMARK VINA RESULT:      -6.7      5.210      7.264
REMARK  Name = 
REMARK  4 active torsions:
REMARK  status: ('A' for Active; 'I' for Inactive)
REMARK    1  A    between atoms: C_2  and  C_3
REMARK    2  A    between atoms: C_3  and  O_4
REMARK    3  A    between atoms: O_4  and  C_5
REMARK    4  A    between atoms: N_14  and  C_15
REMARK                            x       y       z     vdW  Elec       q    Type
REMARK                         _______ _______ _______ _____ _____    ______ ____
ROOT
ATOM      1  O   UNL     1       1.965   7.350  20.075  0.00  0.00    +0.000 OA
ATOM      2  C   UNL     1       2.243   7.675  18.923  0.00  0.00    +0.000 C 
ATOM      3  N   UNL     1       2.715   6.820  17.941  0.00  0.00    +0.000 N 
ATOM      4  H   UNL     1       3.132   7.237  17.114  0.00  0.00    +0.000 HD
ENDROOT
BRANCH   3   5
ATOM      5  C   UNL     1       2.830   5.413  18.035  0.00  0.00    +0.000 A 
ATOM      6  C   UNL     1       1.778   4.528  17.787  0.00  0.00    +0.000 A 
ATOM      7  C   UNL     1       1.970   3.149  17.926  0.00  0.00    +0.000 A 
ATOM      8  C   UNL     1       3.214   2.657  18.307  0.00  0.00    +0.000 A 
ATOM      9  F   UNL     1       3.382   1.337  18.460  0.00  0.00    +0.000 F 
ATOM     10  C   UNL     1       4.281   3.514  18.529  0.00  0.00    +0.000 A 
ATOM     11  C   UNL     1       4.083   4.883  18.381  0.00  0.00    +0.000 A 
ATOM     12  F   UNL     1       5.116   5.713  18.591  0.00  0.00    +0.000 F 
ENDBRANCH   3   5
BRANCH   2  13
ATOM     13  C   UNL     1       2.071   9.116  18.450  0.00  0.00    +0.000 C 
BRANCH  13  14
ATOM     14  O   UNL     1       0.850   9.298  17.740  0.00  0.00    +0.000 OA
BRANCH  14  15
ATOM     15  C   UNL     1      -0.008  10.158  18.410  0.00  0.00    +0.000 A 
ATOM     16  N   UNL     1       0.426  10.788  19.524  0.00  0.00    +0.000 NA
ATOM     17  C   UNL     1      -0.424  11.612  20.154  0.00  0.00    +0.000 A 
ATOM     18  N   UNL     1      -1.688  11.884  19.825  0.00  0.00    +0.000 NA
ATOM     19  C   UNL     1      -2.084  11.229  18.720  0.00  0.00    +0.000 A 
ATOM     20  S   UNL     1      -3.668  11.417  18.120  0.00  0.00    +0.000 S 
ATOM     21  C   UNL     1      -3.367  10.346  16.821  0.00  0.00    +0.000 A 
ATOM     22  C   UNL     1      -2.077   9.856  16.847  0.00  0.00    +0.000 A 
ATOM     23  C   UNL     1      -1.320  10.358  17.956  0.00  0.00    +0.000 A 
ENDBRANCH  14  15
ENDBRANCH  13  14
ENDBRANCH   2  13
TORSDOF 4
ENDMDL
