MODEL 1
REMARK VINA RESULT:      -8.1      0.000      0.000
REMARK  Name = 
REMARK  5 active torsions:
REMARK  status: ('A' for Active; 'I' for Inactive)
REMARK    1  A    between atoms: C_2  and  C_3
REMARK    2  A    between atoms: C_3  and  N_4
REMARK    3  A    between atoms: C_13  and  N_14
REMARK    4  A    between atoms: C_19  and  C_20
REMARK    5  A    between atoms: N_22  and  C_23
REMARK                            x       y       z     vdW  Elec       q    Type
REMARK                         _______ _______ _______ _____ _____    ______ ____
ROOT
ATOM      1  N   UNL     1       5.982   5.944  16.279  0.00  0.00    +0.000 N 
ATOM      2  C   UNL     1       6.689   4.952  15.614  0.00  0.00    +0.000 C 
ATOM      3  O   UNL     1       7.831   5.105  15.172  0.00  0.00    +0.000 OA
ATOM      4  C   UNL     1       5.938   3.654  15.369  0.00  0.00    +0.000 C 
ATOM      5  O   UNL     1       4.856   3.292  16.193  0.00  0.00    +0.000 OA
ATOM      6  C   UNL     1       4.219   4.334  16.801  0.00  0.00    +0.000 A 
ATOM      7  C   UNL     1       3.029   3.970  17.436  0.00  0.00    +0.000 A 
ATOM      8  C   UNL     1       2.335   4.907  18.181  0.00  0.00    +0.000 A 
ATOM      9  F   UNL     1       1.191   4.541  18.778  0.00  0.00    +0.000 F 
ATOM     10  C   UNL     1       2.790   6.222  18.269  0.00  0.00    +0.000 A 
ATOM     11  C   UNL     1       3.948   6.606  17.565  0.00  0.00    +0.000 A 
ATOM     12  C   UNL     1       4.709   5.651  16.862  0.00  0.00    +0.000 A 
ENDROOT
BRANCH  10  13
ATOM     13  N   UNL     1       2.123   7.137  19.119  0.00  0.00    +0.000 N 
ATOM     14  N   UNL     1       1.837   6.641  20.390  0.00  0.00    +0.000 NA
ATOM     15  N   UNL     1       1.352   7.402  21.276  0.00  0.00    +0.000 NA
ATOM     16  C   UNL     1       1.045   8.666  20.922  0.00  0.00    +0.000 A 
ATOM     17  C   UNL     1       1.215   9.238  19.694  0.00  0.00    +0.000 A 
ATOM     18  C   UNL     1       0.651  10.525  19.787  0.00  0.00    +0.000 A 
ATOM     19  C   UNL     1       0.474  11.550  18.730  0.00  0.00    +0.000 C 
ATOM     20  N   UNL     1       0.213  10.767  21.035  0.00  0.00    +0.000 NA
ATOM     21  N   UNL     1       0.486   9.628  21.709  0.00  0.00    +0.000 N 
ATOM     22  C   UNL     1       0.184   9.532  23.117  0.00  0.00    +0.000 C 
ATOM     23  C   UNL     1       1.833   8.443  18.677  0.00  0.00    +0.000 A 
ATOM     24  O   UNL     1       2.024   8.870  17.541  0.00  0.00    +0.000 OA
ENDBRANCH  10  13
BRANCH   1  25
ATOM     25  C   UNL     1       6.597   7.267  16.317  0.00  0.00    +0.000 C 
BRANCH  25  27
ATOM     26  C   UNL     1       8.249   7.474  18.599  0.00  0.00    +0.000 C 
ATOM     27  C   UNL     1       7.486   7.378  17.545  0.00  0.00    +0.000 C 
ENDBRANCH  25  27
ENDBRANCH   1  25
TORSDOF 3
ENDMDL
MODEL 2
REMARK VINA RESULT:      -8.0      2.519      4.220
REMARK  Name = 
REMARK  5 active torsions:
REMARK  status: ('A' for Active; 'I' for Inactive)
REMARK    1  A    between atoms: C_2  and  C_3
REMARK    2  A    between atoms: C_3  and  N_4
REMARK    3  A    between atoms: C_13  and  N_14
REMARK    4  A    between atoms: C_19  and  C_20
REMARK    5  A    between atoms: N_22  and  C_23
REMARK                            x       y       z     vdW  Elec       q    Type
REMARK                         _______ _______ _______ _____ _____    ______ ____
ROOT
ATOM      1  N   UNL     1       2.327   3.800  18.386  0.00  0.00    +0.000 N 
ATOM      2  C   UNL     1       3.102   2.835  17.758  0.00  0.00    +0.000 C 
ATOM      3  O   UNL     1       2.798   1.640  17.710  0.00  0.00    +0.000 OA
ATOM      4  C   UNL     1       4.426   3.316  17.190  0.00  0.00    +0.000 C 
ATOM      5  O   UNL     1       4.604   4.669  16.847  0.00  0.00    +0.000 OA
ATOM      6  C   UNL     1       3.803   5.545  17.520  0.00  0.00    +0.000 A 
ATOM      7  C   UNL     1       4.145   6.884  17.321  0.00  0.00    +0.000 A 
ATOM      8  C   UNL     1       3.351   7.882  17.859  0.00  0.00    +0.000 A 
ATOM      9  F   UNL     1       3.699   9.163  17.662  0.00  0.00    +0.000 F 
ATOM     10  C   UNL     1       2.237   7.562  18.633  0.00  0.00    +0.000 A 
ATOM     11  C   UNL     1       1.938   6.212  18.897  0.00  0.00    +0.000 A 
ATOM     12  C   UNL     1       2.689   5.181  18.299  0.00  0.00    +0.000 A 
ENDROOT
BRANCH  10  13
ATOM     13  N   UNL     1       1.382   8.596  19.086  0.00  0.00    +0.000 N 
ATOM     14  N   UNL     1       0.916   9.443  18.082  0.00  0.00    +0.000 NA
ATOM     15  N   UNL     1       0.052  10.328  18.345  0.00  0.00    +0.000 NA
ATOM     16  C   UNL     1      -0.327  10.475  19.630  0.00  0.00    +0.000 A 
ATOM     17  C   UNL     1       0.111   9.754  20.703  0.00  0.00    +0.000 A 
ATOM     18  C   UNL     1      -0.486  10.344  21.834  0.00  0.00    +0.000 A 
ATOM     19  C   UNL     1      -0.292  10.027  23.270  0.00  0.00    +0.000 C 
ATOM     20  N   UNL     1      -1.311  11.343  21.474  0.00  0.00    +0.000 NA
ATOM     21  N   UNL     1      -1.212  11.386  20.127  0.00  0.00    +0.000 N 
ATOM     22  C   UNL     1      -2.003  12.329  19.374  0.00  0.00    +0.000 C 
ATOM     23  C   UNL     1       1.030   8.688  20.448  0.00  0.00    +0.000 A 
ATOM     24  O   UNL     1       1.482   7.986  21.349  0.00  0.00    +0.000 OA
ENDBRANCH  10  13
BRANCH   1  25
ATOM     25  C   UNL     1       1.171   3.320  19.137  0.00  0.00    +0.000 C 
BRANCH  25  27
ATOM     26  C   UNL     1       1.936   2.778  21.801  0.00  0.00    +0.000 C 
ATOM     27  C   UNL     1       1.583   3.028  20.570  0.00  0.00    +0.000 C 
ENDBRANCH  25  27
ENDBRANCH   1  25
TORSDOF 3
ENDMDL
MODEL 3
REMARK VINA RESULT:      -7.8      1.004      1.123
REMARK  Name = 
REMARK  5 active torsions:
REMARK  status: ('A' for Active; 'I' for Inactive)
REMARK    1  A    between atoms: C_2  and  C_3
REMARK    2  A    between atoms: C_3  and  N_4
REMARK    3  A    between atoms: C_13  and  N_14
REMARK    4  A    between atoms: C_19  and  C_20
REMARK    5  A    between atoms: N_22  and  C_23
REMARK                            x       y       z     vdW  Elec       q    Type
REMARK                         _______ _______ _______ _____ _____    ______ ____
ROOT
ATOM      1  N   UNL     1       6.619   5.383  18.021  0.00  0.00    +0.000 N 
ATOM      2  C   UNL     1       7.323   4.393  17.349  0.00  0.00    +0.000 C 
ATOM      3  O   UNL     1       8.525   4.173  17.520  0.00  0.00    +0.000 OA
ATOM      4  C   UNL     1       6.542   3.624  16.297  0.00  0.00    +0.000 C 
ATOM      5  O   UNL     1       5.139   3.538  16.373  0.00  0.00    +0.000 OA
ATOM      6  C   UNL     1       4.534   4.558  17.047  0.00  0.00    +0.000 A 
ATOM      7  C   UNL     1       3.143   4.565  16.924  0.00  0.00    +0.000 A 
ATOM      8  C   UNL     1       2.396   5.481  17.642  0.00  0.00    +0.000 A 
ATOM      9  F   UNL     1       1.061   5.476  17.507  0.00  0.00    +0.000 F 
ATOM     10  C   UNL     1       3.021   6.426  18.455  0.00  0.00    +0.000 A 
ATOM     11  C   UNL     1       4.427   6.468  18.517  0.00  0.00    +0.000 A 
ATOM     12  C   UNL     1       5.204   5.499  17.852  0.00  0.00    +0.000 A 
ENDROOT
BRANCH  10  13
ATOM     13  N   UNL     1       2.234   7.286  19.259  0.00  0.00    +0.000 N 
ATOM     14  N   UNL     1       1.916   6.771  20.515  0.00  0.00    +0.000 NA
ATOM     15  N   UNL     1       1.322   7.493  21.366  0.00  0.00    +0.000 NA
ATOM     16  C   UNL     1       0.935   8.726  20.987  0.00  0.00    +0.000 A 
ATOM     17  C   UNL     1       1.128   9.307  19.767  0.00  0.00    +0.000 A 
ATOM     18  C   UNL     1       0.457  10.545  19.819  0.00  0.00    +0.000 A 
ATOM     19  C   UNL     1       0.258  11.550  18.746  0.00  0.00    +0.000 C 
ATOM     20  N   UNL     1      -0.070  10.754  21.038  0.00  0.00    +0.000 NA
ATOM     21  N   UNL     1       0.255   9.642  21.735  0.00  0.00    +0.000 N 
ATOM     22  C   UNL     1      -0.118   9.525  23.123  0.00  0.00    +0.000 C 
ATOM     23  C   UNL     1       1.865   8.563  18.793  0.00  0.00    +0.000 A 
ATOM     24  O   UNL     1       2.086   9.001  17.666  0.00  0.00    +0.000 OA
ENDBRANCH  10  13
BRANCH   1  25
ATOM     25  C   UNL     1       7.403   6.283  18.861  0.00  0.00    +0.000 C 
BRANCH  25  27
ATOM     26  C   UNL     1       7.973   8.651  17.432  0.00  0.00    +0.000 C 
ATOM     27  C   UNL     1       7.710   7.557  18.092  0.00  0.00    +0.000 C 
ENDBRANCH  25  27
ENDBRANCH   1  25
TORSDOF 3
ENDMDL
MODEL 4
REMARK VINA RESULT:      -7.7      2.434      3.853
REMARK  Name = 
REMARK  5 active torsions:
REMARK  status: ('A' for Active; 'I' for Inactive)
REMARK    1  A    between atoms: C_2  and  C_3
REMARK    2  A    between atoms: C_3  and  N_4
REMARK    3  A    between atoms: C_13  and  N_14
REMARK    4  A    between atoms: C_19  and  C_20
REMARK    5  A    between atoms: N_22  and  C_23
REMARK                            x       y       z     vdW  Elec       q    Type
REMARK                         _______ _______ _______ _____ _____    ______ ____
ROOT
ATOM      1  N   UNL     1       2.309   3.907  18.465  0.00  0.00    +0.000 N 
ATOM      2  C   UNL     1       3.054   3.015  17.707  0.00  0.00    +0.000 C 
ATOM      3  O   UNL     1       2.789   1.813  17.607  0.00  0.00    +0.000 OA
ATOM      4  C   UNL     1       4.302   3.583  17.052  0.00  0.00    +0.000 C 
ATOM      5  O   UNL     1       4.400   4.962  16.785  0.00  0.00    +0.000 OA
ATOM      6  C   UNL     1       3.636   5.761  17.585  0.00  0.00    +0.000 A 
ATOM      7  C   UNL     1       3.911   7.123  17.445  0.00  0.00    +0.000 A 
ATOM      8  C   UNL     1       3.138   8.051  18.118  0.00  0.00    +0.000 A 
ATOM      9  F   UNL     1       3.422   9.355  17.976  0.00  0.00    +0.000 F 
ATOM     10  C   UNL     1       2.113   7.639  18.969  0.00  0.00    +0.000 A 
ATOM     11  C   UNL     1       1.887   6.263  19.169  0.00  0.00    +0.000 A 
ATOM     12  C   UNL     1       2.613   5.303  18.437  0.00  0.00    +0.000 A 
ENDROOT
BRANCH  10  13
ATOM     13  N   UNL     1       1.269   8.607  19.566  0.00  0.00    +0.000 N 
ATOM     14  N   UNL     1       1.318   8.635  20.959  0.00  0.00    +0.000 NA
ATOM     15  N   UNL     1       0.701   9.535  21.598  0.00  0.00    +0.000 NA
ATOM     16  C   UNL     1      -0.063  10.395  20.897  0.00  0.00    +0.000 A 
ATOM     17  C   UNL     1      -0.242  10.419  19.544  0.00  0.00    +0.000 A 
ATOM     18  C   UNL     1      -1.204  11.419  19.300  0.00  0.00    +0.000 A 
ATOM     19  C   UNL     1      -1.843  11.812  18.020  0.00  0.00    +0.000 C 
ATOM     20  N   UNL     1      -1.556  12.035  20.442  0.00  0.00    +0.000 NA
ATOM     21  N   UNL     1      -0.831  11.407  21.394  0.00  0.00    +0.000 N 
ATOM     22  C   UNL     1      -0.920  11.835  22.769  0.00  0.00    +0.000 C 
ATOM     23  C   UNL     1       0.496   9.472  18.766  0.00  0.00    +0.000 A 
ATOM     24  O   UNL     1       0.399   9.415  17.543  0.00  0.00    +0.000 OA
ENDBRANCH  10  13
BRANCH   1  25
ATOM     25  C   UNL     1       1.246   3.333  19.286  0.00  0.00    +0.000 C 
BRANCH  25  27
ATOM     26  C   UNL     1       2.234   2.813  21.880  0.00  0.00    +0.000 C 
ATOM     27  C   UNL     1       1.777   3.053  20.681  0.00  0.00    +0.000 C 
ENDBRANCH  25  27
ENDBRANCH   1  25
TORSDOF 3
ENDMDL
MODEL 5
REMARK VINA RESULT:      -7.5      1.272      2.036
REMARK  Name = 
REMARK  5 active torsions:
REMARK  status: ('A' for Active; 'I' for Inactive)
REMARK    1  A    between atoms: C_2  and  C_3
REMARK    2  A    between atoms: C_3  and  N_4
REMARK    3  A    between atoms: C_13  and  N_14
REMARK    4  A    between atoms: C_19  and  C_20
REMARK    5  A    between atoms: N_22  and  C_23
REMARK                            x       y       z     vdW  Elec       q    Type
REMARK                         _______ _______ _______ _____ _____    ______ ____
ROOT
ATOM      1  N   UNL     1       6.050   5.801  16.555  0.00  0.00    +0.000 N 
ATOM      2  C   UNL     1       6.704   4.624  16.218  0.00  0.00    +0.000 C 
ATOM      3  O   UNL     1       7.894   4.571  15.896  0.00  0.00    +0.000 OA
ATOM      4  C   UNL     1       5.840   3.375  16.176  0.00  0.00    +0.000 C 
ATOM      5  O   UNL     1       4.648   3.310  16.922  0.00  0.00    +0.000 OA
ATOM      6  C   UNL     1       4.074   4.516  17.200  0.00  0.00    +0.000 A 
ATOM      7  C   UNL     1       2.793   4.414  17.749  0.00  0.00    +0.000 A 
ATOM      8  C   UNL     1       2.139   5.555  18.177  0.00  0.00    +0.000 A 
ATOM      9  F   UNL     1       0.906   5.439  18.695  0.00  0.00    +0.000 F 
ATOM     10  C   UNL     1       2.727   6.810  18.026  0.00  0.00    +0.000 A 
ATOM     11  C   UNL     1       3.985   6.918  17.402  0.00  0.00    +0.000 A 
ATOM     12  C   UNL     1       4.701   5.764  17.027  0.00  0.00    +0.000 A 
ENDROOT
BRANCH  10  13
ATOM     13  N   UNL     1       2.085   7.952  18.564  0.00  0.00    +0.000 N 
ATOM     14  N   UNL     1       1.821   8.958  17.636  0.00  0.00    +0.000 NA
ATOM     15  N   UNL     1       1.145   9.972  17.972  0.00  0.00    +0.000 NA
ATOM     16  C   UNL     1       0.773  10.083  19.262  0.00  0.00    +0.000 A 
ATOM     17  C   UNL     1       1.034   9.199  20.270  0.00  0.00    +0.000 A 
ATOM     18  C   UNL     1       0.541   9.798  21.445  0.00  0.00    +0.000 A 
ATOM     19  C   UNL     1       0.635   9.327  22.849  0.00  0.00    +0.000 C 
ATOM     20  N   UNL     1      -0.060  10.969  21.171  0.00  0.00    +0.000 NA
ATOM     21  N   UNL     1       0.077  11.107  19.833  0.00  0.00    +0.000 N 
ATOM     22  C   UNL     1      -0.493  12.250  19.163  0.00  0.00    +0.000 C 
ATOM     23  C   UNL     1       1.727   7.996  19.927  0.00  0.00    +0.000 A 
ATOM     24  O   UNL     1       2.010   7.143  20.765  0.00  0.00    +0.000 OA
ENDBRANCH  10  13
BRANCH   1  25
ATOM     25  C   UNL     1       6.803   7.039  16.374  0.00  0.00    +0.000 C 
BRANCH  25  27
ATOM     26  C   UNL     1       8.320   7.567  18.696  0.00  0.00    +0.000 C 
ATOM     27  C   UNL     1       7.619   7.323  17.624  0.00  0.00    +0.000 C 
ENDBRANCH  25  27
ENDBRANCH   1  25
TORSDOF 3
ENDMDL
MODEL 6
REMARK VINA RESULT:      -7.3      2.700      4.360
REMARK  Name = 
REMARK  5 active torsions:
REMARK  status: ('A' for Active; 'I' for Inactive)
REMARK    1  A    between atoms: C_2  and  C_3
REMARK    2  A    between atoms: C_3  and  N_4
REMARK    3  A    between atoms: C_13  and  N_14
REMARK    4  A    between atoms: C_19  and  C_20
REMARK    5  A    between atoms: N_22  and  C_23
REMARK                            x       y       z     vdW  Elec       q    Type
REMARK                         _______ _______ _______ _____ _____    ______ ____
ROOT
ATOM      1  N   UNL     1       3.047   5.195  19.592  0.00  0.00    +0.000 N 
ATOM      2  C   UNL     1       3.835   4.322  18.855  0.00  0.00    +0.000 C 
ATOM      3  O   UNL     1       3.955   3.122  19.117  0.00  0.00    +0.000 OA
ATOM      4  C   UNL     1       4.639   4.947  17.727  0.00  0.00    +0.000 C 
ATOM      5  O   UNL     1       4.221   6.156  17.142  0.00  0.00    +0.000 OA
ATOM      6  C   UNL     1       3.455   6.952  17.943  0.00  0.00    +0.000 A 
ATOM      7  C   UNL     1       3.236   8.229  17.422  0.00  0.00    +0.000 A 
ATOM      8  C   UNL     1       2.390   9.102  18.080  0.00  0.00    +0.000 A 
ATOM      9  F   UNL     1       2.196  10.327  17.567  0.00  0.00    +0.000 F 
ATOM     10  C   UNL     1       1.787   8.736  19.283  0.00  0.00    +0.000 A 
ATOM     11  C   UNL     1       2.071   7.477  19.847  0.00  0.00    +0.000 A 
ATOM     12  C   UNL     1       2.870   6.545  19.157  0.00  0.00    +0.000 A 
ENDROOT
BRANCH  10  13
ATOM     13  N   UNL     1       0.846   9.605  19.886  0.00  0.00    +0.000 N 
ATOM     14  N   UNL     1       1.110   9.907  21.221  0.00  0.00    +0.000 NA
ATOM     15  N   UNL     1       0.409  10.766  21.829  0.00  0.00    +0.000 NA
ATOM     16  C   UNL     1      -0.640  11.301  21.175  0.00  0.00    +0.000 A 
ATOM     17  C   UNL     1      -1.035  11.030  19.897  0.00  0.00    +0.000 A 
ATOM     18  C   UNL     1      -2.233  11.746  19.703  0.00  0.00    +0.000 A 
ATOM     19  C   UNL     1      -3.145  11.749  18.534  0.00  0.00    +0.000 C 
ATOM     20  N   UNL     1      -2.532  12.482  20.788  0.00  0.00    +0.000 NA
ATOM     21  N   UNL     1      -1.535  12.210  21.659  0.00  0.00    +0.000 N 
ATOM     22  C   UNL     1      -1.500  12.864  22.944  0.00  0.00    +0.000 C 
ATOM     23  C   UNL     1      -0.229  10.125  19.137  0.00  0.00    +0.000 A 
ATOM     24  O   UNL     1      -0.506   9.817  17.980  0.00  0.00    +0.000 OA
ENDBRANCH  10  13
BRANCH   1  25
ATOM     25  C   UNL     1       2.454   4.662  20.815  0.00  0.00    +0.000 C 
BRANCH  25  27
ATOM     26  C   UNL     1       0.393   2.850  20.152  0.00  0.00    +0.000 C 
ATOM     27  C   UNL     1       1.345   3.687  20.458  0.00  0.00    +0.000 C 
ENDBRANCH  25  27
ENDBRANCH   1  25
TORSDOF 3
ENDMDL
MODEL 7
REMARK VINA RESULT:      -7.3      3.784      8.793
REMARK  Name = 
REMARK  5 active torsions:
REMARK  status: ('A' for Active; 'I' for Inactive)
REMARK    1  A    between atoms: C_2  and  C_3
REMARK    2  A    between atoms: C_3  and  N_4
REMARK    3  A    between atoms: C_13  and  N_14
REMARK    4  A    between atoms: C_19  and  C_20
REMARK    5  A    between atoms: N_22  and  C_23
REMARK                            x       y       z     vdW  Elec       q    Type
REMARK                         _______ _______ _______ _____ _____    ______ ____
ROOT
ATOM      1  N   UNL     1      -3.443  11.282  18.763  0.00  0.00    +0.000 N 
ATOM      2  C   UNL     1      -4.339  12.208  19.279  0.00  0.00    +0.000 C 
ATOM      3  O   UNL     1      -5.556  12.170  19.076  0.00  0.00    +0.000 OA
ATOM      4  C   UNL     1      -3.725  13.359  20.058  0.00  0.00    +0.000 C 
ATOM      5  O   UNL     1      -2.461  13.217  20.659  0.00  0.00    +0.000 OA
ATOM      6  C   UNL     1      -1.648  12.287  20.081  0.00  0.00    +0.000 A 
ATOM      7  C   UNL     1      -0.335  12.317  20.556  0.00  0.00    +0.000 A 
ATOM      8  C   UNL     1       0.570  11.360  20.132  0.00  0.00    +0.000 A 
ATOM      9  F   UNL     1       1.829  11.408  20.594  0.00  0.00    +0.000 F 
ATOM     10  C   UNL     1       0.195  10.391  19.202  0.00  0.00    +0.000 A 
ATOM     11  C   UNL     1      -1.108  10.409  18.666  0.00  0.00    +0.000 A 
ATOM     12  C   UNL     1      -2.065  11.329  19.138  0.00  0.00    +0.000 A 
ENDROOT
BRANCH  10  13
ATOM     13  N   UNL     1       1.104   9.360  18.862  0.00  0.00    +0.000 N 
ATOM     14  N   UNL     1       1.772   9.555  17.654  0.00  0.00    +0.000 NA
ATOM     15  N   UNL     1       2.694   8.765  17.302  0.00  0.00    +0.000 NA
ATOM     16  C   UNL     1       2.941   7.696  18.085  0.00  0.00    +0.000 A 
ATOM     17  C   UNL     1       2.306   7.367  19.248  0.00  0.00    +0.000 A 
ATOM     18  C   UNL     1       2.834   6.119  19.635  0.00  0.00    +0.000 A 
ATOM     19  C   UNL     1       2.444   5.248  20.771  0.00  0.00    +0.000 C 
ATOM     20  N   UNL     1       3.801   5.724  18.790  0.00  0.00    +0.000 NA
ATOM     21  N   UNL     1       3.861   6.713  17.869  0.00  0.00    +0.000 N 
ATOM     22  C   UNL     1       4.833   6.651  16.805  0.00  0.00    +0.000 C 
ATOM     23  C   UNL     1       1.308   8.270  19.731  0.00  0.00    +0.000 A 
ATOM     24  O   UNL     1       0.680   8.057  20.766  0.00  0.00    +0.000 OA
ENDBRANCH  10  13
BRANCH   1  25
ATOM     25  C   UNL     1      -3.986  10.306  17.823  0.00  0.00    +0.000 C 
BRANCH  25  27
ATOM     26  C   UNL     1      -3.122  10.935  15.209  0.00  0.00    +0.000 C 
ATOM     27  C   UNL     1      -3.522  10.644  16.416  0.00  0.00    +0.000 C 
ENDBRANCH  25  27
ENDBRANCH   1  25
TORSDOF 3
ENDMDL
MODEL 8
REMARK VINA RESULT:      -7.1      3.382      7.676
REMARK  Name = 
REMARK  5 active torsions:
REMARK  status: ('A' for Active; 'I' for Inactive)
REMARK    1  A    between atoms: C_2  and  C_3
REMARK    2  A    between atoms: C_3  and  N_4
REMARK    3  A    between atoms: C_13  and  N_14
REMARK    4  A    between atoms: C_19  and  C_20
REMARK    5  A    between atoms: N_22  and  C_23
REMARK                            x       y       z     vdW  Elec       q    Type
REMARK                         _______ _______ _______ _____ _____    ______ ____
ROOT
ATOM      1  N   UNL     1       1.937  14.411  19.514  0.00  0.00    +0.000 N 
ATOM      2  C   UNL     1       1.438  15.660  19.169  0.00  0.00    +0.000 C 
ATOM      3  O   UNL     1       2.111  16.695  19.191  0.00  0.00    +0.000 OA
ATOM      4  C   UNL     1      -0.043  15.713  18.836  0.00  0.00    +0.000 C 
ATOM      5  O   UNL     1      -0.714  14.558  18.390  0.00  0.00    +0.000 OA
ATOM      6  C   UNL     1      -0.154  13.378  18.783  0.00  0.00    +0.000 A 
ATOM      7  C   UNL     1      -0.949  12.262  18.513  0.00  0.00    +0.000 A 
ATOM      8  C   UNL     1      -0.459  10.993  18.763  0.00  0.00    +0.000 A 
ATOM      9  F   UNL     1      -1.240   9.934  18.503  0.00  0.00    +0.000 F 
ATOM     10  C   UNL     1       0.807  10.819  19.323  0.00  0.00    +0.000 A 
ATOM     11  C   UNL     1       1.576  11.947  19.666  0.00  0.00    +0.000 A 
ATOM     12  C   UNL     1       1.127  13.245  19.352  0.00  0.00    +0.000 A 
ENDROOT
BRANCH  10  13
ATOM     13  N   UNL     1       1.330   9.511  19.474  0.00  0.00    +0.000 N 
ATOM     14  N   UNL     1       0.981   8.884  20.669  0.00  0.00    +0.000 NA
ATOM     15  N   UNL     1       1.287   7.673  20.864  0.00  0.00    +0.000 NA
ATOM     16  C   UNL     1       2.028   7.051  19.926  0.00  0.00    +0.000 A 
ATOM     17  C   UNL     1       2.485   7.583  18.755  0.00  0.00    +0.000 A 
ATOM     18  C   UNL     1       3.295   6.590  18.170  0.00  0.00    +0.000 A 
ATOM     19  C   UNL     1       4.118   6.657  16.938  0.00  0.00    +0.000 C 
ATOM     20  N   UNL     1       3.287   5.468  18.910  0.00  0.00    +0.000 NA
ATOM     21  N   UNL     1       2.491   5.768  19.960  0.00  0.00    +0.000 N 
ATOM     22  C   UNL     1       2.212   4.771  20.964  0.00  0.00    +0.000 C 
ATOM     23  C   UNL     1       2.099   8.926  18.448  0.00  0.00    +0.000 A 
ATOM     24  O   UNL     1       2.464   9.492  17.420  0.00  0.00    +0.000 OA
ENDBRANCH  10  13
BRANCH   1  25
ATOM     25  C   UNL     1       3.290  14.380  20.060  0.00  0.00    +0.000 C 
BRANCH  25  27
ATOM     26  C   UNL     1       5.158  14.725  17.970  0.00  0.00    +0.000 C 
ATOM     27  C   UNL     1       4.295  14.565  18.935  0.00  0.00    +0.000 C 
ENDBRANCH  25  27
ENDBRANCH   1  25
TORSDOF 3
ENDMDL
MODEL 9
REMARK VINA RESULT:      -7.1      3.518      8.086
REMARK  Name = 
REMARK  5 active torsions:
REMARK  status: ('A' for Active; 'I' for Inactive)
REMARK    1  A    between atoms: C_2  and  C_3
REMARK    2  A    between atoms: C_3  and  N_4
REMARK    3  A    between atoms: C_13  and  N_14
REMARK    4  A    between atoms: C_19  and  C_20
REMARK    5  A    between atoms: N_22  and  C_23
REMARK                            x       y       z     vdW  Elec       q    Type
REMARK                         _______ _______ _______ _____ _____    ______ ____
ROOT
ATOM      1  N   UNL     1       1.498  14.183  20.277  0.00  0.00    +0.000 N 
ATOM      2  C   UNL     1       0.800  15.375  20.415  0.00  0.00    +0.000 C 
ATOM      3  O   UNL     1       1.340  16.465  20.618  0.00  0.00    +0.000 OA
ATOM      4  C   UNL     1      -0.715  15.260  20.390  0.00  0.00    +0.000 C 
ATOM      5  O   UNL     1      -1.336  14.169  19.755  0.00  0.00    +0.000 OA
ATOM      6  C   UNL     1      -0.575  13.040  19.671  0.00  0.00    +0.000 A 
ATOM      7  C   UNL     1      -1.282  11.917  19.234  0.00  0.00    +0.000 A 
ATOM      8  C   UNL     1      -0.610  10.731  19.003  0.00  0.00    +0.000 A 
ATOM      9  F   UNL     1      -1.307   9.661  18.589  0.00  0.00    +0.000 F 
ATOM     10  C   UNL     1       0.760  10.632  19.243  0.00  0.00    +0.000 A 
ATOM     11  C   UNL     1       1.457  11.743  19.757  0.00  0.00    +0.000 A 
ATOM     12  C   UNL     1       0.807  12.981  19.930  0.00  0.00    +0.000 A 
ENDROOT
BRANCH  10  13
ATOM     13  N   UNL     1       1.445   9.441  18.902  0.00  0.00    +0.000 N 
ATOM     14  N   UNL     1       2.072   9.471  17.657  0.00  0.00    +0.000 NA
ATOM     15  N   UNL     1       2.814   8.513  17.295  0.00  0.00    +0.000 NA
ATOM     16  C   UNL     1       2.901   7.442  18.108  0.00  0.00    +0.000 A 
ATOM     17  C   UNL     1       2.280   7.272  19.311  0.00  0.00    +0.000 A 
ATOM     18  C   UNL     1       2.590   5.961  19.724  0.00  0.00    +0.000 A 
ATOM     19  C   UNL     1       2.109   5.213  20.911  0.00  0.00    +0.000 C 
ATOM     20  N   UNL     1       3.422   5.368  18.850  0.00  0.00    +0.000 NA
ATOM     21  N   UNL     1       3.612   6.299  17.888  0.00  0.00    +0.000 N 
ATOM     22  C   UNL     1       4.497   6.025  16.783  0.00  0.00    +0.000 C 
ATOM     23  C   UNL     1       1.492   8.360  19.804  0.00  0.00    +0.000 A 
ATOM     24  O   UNL     1       0.893   8.299  20.875  0.00  0.00    +0.000 OA
ENDBRANCH  10  13
BRANCH   1  25
ATOM     25  C   UNL     1       2.935  14.239  20.530  0.00  0.00    +0.000 C 
BRANCH  25  27
ATOM     26  C   UNL     1       4.299  14.759  18.113  0.00  0.00    +0.000 C 
ATOM     27  C   UNL     1       3.669  14.519  19.230  0.00  0.00    +0.000 C 
ENDBRANCH  25  27
ENDBRANCH   1  25
TORSDOF 3
ENDMDL
