MODEL 1
REMARK VINA RESULT:      -9.1      0.000      0.000
REMARK  Name = 
REMARK  4 active torsions:
REMARK  status: ('A' for Active; 'I' for Inactive)
REMARK    1  A    between atoms: C_1  and  C_2
REMARK    2  A    between atoms: C_5  and  N_6
REMARK    3  A    between atoms: N_6  and  C_7
REMARK    4  A    between atoms: C_16  and  C_17
REMARK                            x       y       z     vdW  Elec       q    Type
REMARK                         _______ _______ _______ _____ _____    ______ ____
ROOT
ATOM      1  C   UNL     1       0.216  11.867  19.609  0.00  0.00    +0.000 A 
ATOM      2  N   UNL     1      -0.400  12.025  20.808  0.00  0.00    +0.000 NA
ATOM      3  C   UNL     1      -0.430  11.017  21.698  0.00  0.00    +0.000 A 
ATOM      4  N   UNL     1       0.098   9.802  21.559  0.00  0.00    +0.000 NA
ATOM      5  C   UNL     1       0.700   9.625  20.361  0.00  0.00    +0.000 A 
ATOM      6  C   UNL     1       0.758  10.605  19.382  0.00  0.00    +0.000 A 
ATOM      7  O   UNL     1       1.435  10.161  18.280  0.00  0.00    +0.000 OA
ATOM      8  C   UNL     1       1.846   8.893  18.576  0.00  0.00    +0.000 A 
ATOM      9  C   UNL     1       2.619   8.055  17.778  0.00  0.00    +0.000 A 
ATOM     10  C   UNL     1       2.999   6.834  18.360  0.00  0.00    +0.000 A 
ATOM     11  C   UNL     1       2.519   6.558  19.655  0.00  0.00    +0.000 A 
ATOM     12  N   UNL     1       1.725   7.338  20.419  0.00  0.00    +0.000 NA
ATOM     13  C   UNL     1       1.420   8.527  19.849  0.00  0.00    +0.000 A 
ENDROOT
BRANCH  10  14
ATOM     14  C   UNL     1       3.960   5.906  17.728  0.00  0.00    +0.000 A 
ATOM     15  C   UNL     1       3.726   4.506  17.709  0.00  0.00    +0.000 A 
ATOM     16  C   UNL     1       4.466   3.651  16.883  0.00  0.00    +0.000 A 
ATOM     17  C   UNL     1       5.410   4.223  16.063  0.00  0.00    +0.000 A 
ATOM     18  C   UNL     1       5.702   5.563  16.126  0.00  0.00    +0.000 A 
ATOM     19  C   UNL     1       5.039   6.413  16.977  0.00  0.00    +0.000 A 
ATOM     20  O   UNL     1       6.619   5.940  15.195  0.00  0.00    +0.000 OA
ATOM     21  C   UNL     1       6.648   4.745  14.387  0.00  0.00    +0.000 C 
ATOM     22  O   UNL     1       6.104   3.598  15.074  0.00  0.00    +0.000 OA
ENDBRANCH  10  14
BRANCH   1  23
ATOM     23  N   UNL     1       0.365  12.916  18.687  0.00  0.00    +0.000 N 
ATOM     24  H   UNL     1      -0.091  12.722  17.804  0.00  0.00    +0.000 HD
BRANCH  23  29
ATOM     25  C   UNL     1       4.674  16.701  18.651  0.00  0.00    +0.000 C 
ATOM     26  C   UNL     1       3.549  15.714  18.610  0.00  0.00    +0.000 A 
ATOM     27  C   UNL     1       3.742  14.388  18.206  0.00  0.00    +0.000 A 
ATOM     28  C   UNL     1       2.675  13.482  18.207  0.00  0.00    +0.000 A 
ATOM     29  C   UNL     1       1.395  13.875  18.621  0.00  0.00    +0.000 A 
ATOM     30  C   UNL     1       1.210  15.217  18.968  0.00  0.00    +0.000 A 
ATOM     31  C   UNL     1       2.269  16.123  18.979  0.00  0.00    +0.000 A 
ENDBRANCH  23  29
ENDBRANCH   1  23
TORSDOF 3
ENDMDL
MODEL 2
REMARK VINA RESULT:      -8.8      0.900      1.062
REMARK  Name = 
REMARK  4 active torsions:
REMARK  status: ('A' for Active; 'I' for Inactive)
REMARK    1  A    between atoms: C_1  and  C_2
REMARK    2  A    between atoms: C_5  and  N_6
REMARK    3  A    between atoms: N_6  and  C_7
REMARK    4  A    between atoms: C_16  and  C_17
REMARK                            x       y       z     vdW  Elec       q    Type
REMARK                         _______ _______ _______ _____ _____    ______ ____
ROOT
ATOM      1  C   UNL     1       0.291  11.431  20.507  0.00  0.00    +0.000 A 
ATOM      2  N   UNL     1      -0.352  11.445  21.703  0.00  0.00    +0.000 NA
ATOM      3  C   UNL     1      -0.437  10.326  22.445  0.00  0.00    +0.000 A 
ATOM      4  N   UNL     1       0.057   9.124  22.153  0.00  0.00    +0.000 NA
ATOM      5  C   UNL     1       0.685   9.092  20.955  0.00  0.00    +0.000 A 
ATOM      6  C   UNL     1       0.800  10.193  20.121  0.00  0.00    +0.000 A 
ATOM      7  O   UNL     1       1.492   9.881  18.984  0.00  0.00    +0.000 OA
ATOM      8  C   UNL     1       1.855   8.571  19.112  0.00  0.00    +0.000 A 
ATOM      9  C   UNL     1       2.623   7.824  18.224  0.00  0.00    +0.000 A 
ATOM     10  C   UNL     1       2.950   6.523  18.641  0.00  0.00    +0.000 A 
ATOM     11  C   UNL     1       2.428   6.090  19.875  0.00  0.00    +0.000 A 
ATOM     12  N   UNL     1       1.638   6.785  20.721  0.00  0.00    +0.000 NA
ATOM     13  C   UNL     1       1.384   8.051  20.313  0.00  0.00    +0.000 A 
ENDROOT
BRANCH  10  14
ATOM     14  C   UNL     1       3.898   5.658  17.909  0.00  0.00    +0.000 A 
ATOM     15  C   UNL     1       3.614   4.287  17.678  0.00  0.00    +0.000 A 
ATOM     16  C   UNL     1       4.352   3.531  16.758  0.00  0.00    +0.000 A 
ATOM     17  C   UNL     1       5.345   4.176  16.060  0.00  0.00    +0.000 A 
ATOM     18  C   UNL     1       5.683   5.479  16.328  0.00  0.00    +0.000 A 
ATOM     19  C   UNL     1       5.022   6.224  17.274  0.00  0.00    +0.000 A 
ATOM     20  O   UNL     1       6.647   5.950  15.491  0.00  0.00    +0.000 OA
ATOM     21  C   UNL     1       6.662   4.885  14.518  0.00  0.00    +0.000 C 
ATOM     22  O   UNL     1       6.051   3.674  15.012  0.00  0.00    +0.000 OA
ENDBRANCH  10  14
BRANCH   1  23
ATOM     23  N   UNL     1       0.497  12.590  19.742  0.00  0.00    +0.000 N 
ATOM     24  H   UNL     1      -0.173  12.679  18.987  0.00  0.00    +0.000 HD
BRANCH  23  29
ATOM     25  C   UNL     1       5.242  15.740  19.070  0.00  0.00    +0.000 C 
ATOM     26  C   UNL     1       4.033  14.878  19.259  0.00  0.00    +0.000 A 
ATOM     27  C   UNL     1       3.588  14.495  20.529  0.00  0.00    +0.000 A 
ATOM     28  C   UNL     1       2.435  13.713  20.673  0.00  0.00    +0.000 A 
ATOM     29  C   UNL     1       1.696  13.306  19.554  0.00  0.00    +0.000 A 
ATOM     30  C   UNL     1       2.187  13.651  18.291  0.00  0.00    +0.000 A 
ATOM     31  C   UNL     1       3.328  14.438  18.140  0.00  0.00    +0.000 A 
ENDBRANCH  23  29
ENDBRANCH   1  23
TORSDOF 3
ENDMDL
MODEL 3
REMARK VINA RESULT:      -8.5      2.584      8.738
REMARK  Name = 
REMARK  4 active torsions:
REMARK  status: ('A' for Active; 'I' for Inactive)
REMARK    1  A    between atoms: C_1  and  C_2
REMARK    2  A    between atoms: C_5  and  N_6
REMARK    3  A    between atoms: N_6  and  C_7
REMARK    4  A    between atoms: C_16  and  C_17
REMARK                            x       y       z     vdW  Elec       q    Type
REMARK                         _______ _______ _______ _____ _____    ______ ____
ROOT
ATOM      1  C   UNL     1       3.478   3.620  18.702  0.00  0.00    +0.000 A 
ATOM      2  N   UNL     1       3.363   2.778  19.761  0.00  0.00    +0.000 NA
ATOM      3  C   UNL     1       2.850   3.212  20.926  0.00  0.00    +0.000 A 
ATOM      4  N   UNL     1       2.406   4.436  21.206  0.00  0.00    +0.000 NA
ATOM      5  C   UNL     1       2.530   5.291  20.165  0.00  0.00    +0.000 A 
ATOM      6  C   UNL     1       3.065   4.930  18.938  0.00  0.00    +0.000 A 
ATOM      7  O   UNL     1       3.059   5.984  18.067  0.00  0.00    +0.000 OA
ATOM      8  C   UNL     1       2.476   7.021  18.737  0.00  0.00    +0.000 A 
ATOM      9  C   UNL     1       2.202   8.292  18.238  0.00  0.00    +0.000 A 
ATOM     10  C   UNL     1       1.496   9.148  19.099  0.00  0.00    +0.000 A 
ATOM     11  C   UNL     1       1.188   8.662  20.385  0.00  0.00    +0.000 A 
ATOM     12  N   UNL     1       1.496   7.453  20.900  0.00  0.00    +0.000 NA
ATOM     13  C   UNL     1       2.131   6.635  20.028  0.00  0.00    +0.000 A 
ENDROOT
BRANCH  10  14
ATOM     14  C   UNL     1       0.968  10.461  18.673  0.00  0.00    +0.000 A 
ATOM     15  C   UNL     1      -0.428  10.688  18.551  0.00  0.00    +0.000 A 
ATOM     16  C   UNL     1      -0.951  11.981  18.428  0.00  0.00    +0.000 A 
ATOM     17  C   UNL     1      -0.063  13.030  18.462  0.00  0.00    +0.000 A 
ATOM     18  C   UNL     1       1.293  12.824  18.501  0.00  0.00    +0.000 A 
ATOM     19  C   UNL     1       1.837  11.563  18.552  0.00  0.00    +0.000 A 
ATOM     20  O   UNL     1       1.994  13.987  18.588  0.00  0.00    +0.000 OA
ATOM     21  C   UNL     1       0.913  14.899  18.872  0.00  0.00    +0.000 C 
ATOM     22  O   UNL     1      -0.379  14.351  18.532  0.00  0.00    +0.000 OA
ENDBRANCH  10  14
BRANCH   1  23
ATOM     23  N   UNL     1       3.910   3.195  17.436  0.00  0.00    +0.000 N 
ATOM     24  H   UNL     1       3.797   2.198  17.303  0.00  0.00    +0.000 HD
BRANCH  23  29
ATOM     25  C   UNL     1       7.876   5.381  13.915  0.00  0.00    +0.000 C 
ATOM     26  C   UNL     1       6.813   4.853  14.829  0.00  0.00    +0.000 A 
ATOM     27  C   UNL     1       5.562   4.447  14.352  0.00  0.00    +0.000 A 
ATOM     28  C   UNL     1       4.600   3.929  15.229  0.00  0.00    +0.000 A 
ATOM     29  C   UNL     1       4.871   3.796  16.598  0.00  0.00    +0.000 A 
ATOM     30  C   UNL     1       6.105   4.259  17.063  0.00  0.00    +0.000 A 
ATOM     31  C   UNL     1       7.071   4.766  16.195  0.00  0.00    +0.000 A 
ENDBRANCH  23  29
ENDBRANCH   1  23
TORSDOF 3
ENDMDL
MODEL 4
REMARK VINA RESULT:      -8.5      3.172      5.462
REMARK  Name = 
REMARK  4 active torsions:
REMARK  status: ('A' for Active; 'I' for Inactive)
REMARK    1  A    between atoms: C_1  and  C_2
REMARK    2  A    between atoms: C_5  and  N_6
REMARK    3  A    between atoms: N_6  and  C_7
REMARK    4  A    between atoms: C_16  and  C_17
REMARK                            x       y       z     vdW  Elec       q    Type
REMARK                         _______ _______ _______ _____ _____    ______ ____
ROOT
ATOM      1  C   UNL     1      -1.124  12.014  20.852  0.00  0.00    +0.000 A 
ATOM      2  N   UNL     1      -1.407  13.077  20.057  0.00  0.00    +0.000 NA
ATOM      3  C   UNL     1      -0.849  13.186  18.838  0.00  0.00    +0.000 A 
ATOM      4  N   UNL     1      -0.002  12.336  18.260  0.00  0.00    +0.000 NA
ATOM      5  C   UNL     1       0.302  11.280  19.048  0.00  0.00    +0.000 A 
ATOM      6  C   UNL     1      -0.213  11.103  20.322  0.00  0.00    +0.000 A 
ATOM      7  O   UNL     1       0.251   9.947  20.886  0.00  0.00    +0.000 OA
ATOM      8  C   UNL     1       1.044   9.360  19.942  0.00  0.00    +0.000 A 
ATOM      9  C   UNL     1       1.696   8.134  20.041  0.00  0.00    +0.000 A 
ATOM     10  C   UNL     1       2.365   7.702  18.883  0.00  0.00    +0.000 A 
ATOM     11  C   UNL     1       2.358   8.566  17.771  0.00  0.00    +0.000 A 
ATOM     12  N   UNL     1       1.776   9.781  17.681  0.00  0.00    +0.000 NA
ATOM     13  C   UNL     1       1.097  10.144  18.795  0.00  0.00    +0.000 A 
ENDROOT
BRANCH  10  14
ATOM     14  C   UNL     1       2.957   6.354  18.752  0.00  0.00    +0.000 A 
ATOM     15  C   UNL     1       4.203   6.159  18.102  0.00  0.00    +0.000 A 
ATOM     16  C   UNL     1       4.907   4.953  18.214  0.00  0.00    +0.000 A 
ATOM     17  C   UNL     1       4.359   3.972  19.006  0.00  0.00    +0.000 A 
ATOM     18  C   UNL     1       3.120   4.116  19.577  0.00  0.00    +0.000 A 
ATOM     19  C   UNL     1       2.377   5.262  19.427  0.00  0.00    +0.000 A 
ATOM     20  O   UNL     1       2.786   3.061  20.369  0.00  0.00    +0.000 OA
ATOM     21  C   UNL     1       4.063   2.394  20.433  0.00  0.00    +0.000 C 
ATOM     22  O   UNL     1       4.960   2.811  19.381  0.00  0.00    +0.000 OA
ENDBRANCH  10  14
BRANCH   1  23
ATOM     23  N   UNL     1      -1.755  11.799  22.087  0.00  0.00    +0.000 N 
ATOM     24  H   UNL     1      -1.454  10.941  22.532  0.00  0.00    +0.000 HD
BRANCH  23  29
ATOM     25  C   UNL     1      -6.920  13.481  23.929  0.00  0.00    +0.000 C 
ATOM     26  C   UNL     1      -5.553  13.087  23.462  0.00  0.00    +0.000 A 
ATOM     27  C   UNL     1      -4.520  12.797  24.360  0.00  0.00    +0.000 A 
ATOM     28  C   UNL     1      -3.261  12.402  23.892  0.00  0.00    +0.000 A 
ATOM     29  C   UNL     1      -3.009  12.278  22.519  0.00  0.00    +0.000 A 
ATOM     30  C   UNL     1      -4.036  12.626  21.637  0.00  0.00    +0.000 A 
ATOM     31  C   UNL     1      -5.295  13.010  22.095  0.00  0.00    +0.000 A 
ENDBRANCH  23  29
ENDBRANCH   1  23
TORSDOF 3
ENDMDL
MODEL 5
REMARK VINA RESULT:      -8.5      3.139      4.951
REMARK  Name = 
REMARK  4 active torsions:
REMARK  status: ('A' for Active; 'I' for Inactive)
REMARK    1  A    between atoms: C_1  and  C_2
REMARK    2  A    between atoms: C_5  and  N_6
REMARK    3  A    between atoms: N_6  and  C_7
REMARK    4  A    between atoms: C_16  and  C_17
REMARK                            x       y       z     vdW  Elec       q    Type
REMARK                         _______ _______ _______ _____ _____    ______ ____
ROOT
ATOM      1  C   UNL     1      -1.048  11.964  21.185  0.00  0.00    +0.000 A 
ATOM      2  N   UNL     1      -1.217  12.947  20.264  0.00  0.00    +0.000 NA
ATOM      3  C   UNL     1      -0.627  12.861  19.058  0.00  0.00    +0.000 A 
ATOM      4  N   UNL     1       0.152  11.879  18.609  0.00  0.00    +0.000 NA
ATOM      5  C   UNL     1       0.343  10.901  19.523  0.00  0.00    +0.000 A 
ATOM      6  C   UNL     1      -0.212  10.922  20.794  0.00  0.00    +0.000 A 
ATOM      7  O   UNL     1       0.135   9.804  21.502  0.00  0.00    +0.000 OA
ATOM      8  C   UNL     1       0.891   9.043  20.657  0.00  0.00    +0.000 A 
ATOM      9  C   UNL     1       1.428   7.786  20.917  0.00  0.00    +0.000 A 
ATOM     10  C   UNL     1       2.079   7.163  19.839  0.00  0.00    +0.000 A 
ATOM     11  C   UNL     1       2.172   7.887  18.635  0.00  0.00    +0.000 A 
ATOM     12  N   UNL     1       1.704   9.128  18.386  0.00  0.00    +0.000 NA
ATOM     13  C   UNL     1       1.038   9.678  19.429  0.00  0.00    +0.000 A 
ENDROOT
BRANCH  10  14
ATOM     14  C   UNL     1       2.550   5.763  19.883  0.00  0.00    +0.000 A 
ATOM     15  C   UNL     1       2.104   4.869  20.892  0.00  0.00    +0.000 A 
ATOM     16  C   UNL     1       2.310   3.488  20.788  0.00  0.00    +0.000 A 
ATOM     17  C   UNL     1       2.934   3.023  19.655  0.00  0.00    +0.000 A 
ATOM     18  C   UNL     1       3.439   3.879  18.709  0.00  0.00    +0.000 A 
ATOM     19  C   UNL     1       3.312   5.243  18.819  0.00  0.00    +0.000 A 
ATOM     20  O   UNL     1       3.964   3.222  17.639  0.00  0.00    +0.000 OA
ATOM     21  C   UNL     1       3.479   1.891  17.912  0.00  0.00    +0.000 C 
ATOM     22  O   UNL     1       3.071   1.721  19.287  0.00  0.00    +0.000 OA
ENDBRANCH  10  14
BRANCH   1  23
ATOM     23  N   UNL     1      -1.721  11.953  22.418  0.00  0.00    +0.000 N 
ATOM     24  H   UNL     1      -2.161  11.062  22.610  0.00  0.00    +0.000 HD
BRANCH  23  29
ATOM     25  C   UNL     1      -4.036  16.511  25.018  0.00  0.00    +0.000 C 
ATOM     26  C   UNL     1      -3.446  15.293  24.379  0.00  0.00    +0.000 A 
ATOM     27  C   UNL     1      -4.246  14.280  23.837  0.00  0.00    +0.000 A 
ATOM     28  C   UNL     1      -3.662  13.167  23.219  0.00  0.00    +0.000 A 
ATOM     29  C   UNL     1      -2.270  13.046  23.119  0.00  0.00    +0.000 A 
ATOM     30  C   UNL     1      -1.488  14.040  23.714  0.00  0.00    +0.000 A 
ATOM     31  C   UNL     1      -2.061  15.156  24.323  0.00  0.00    +0.000 A 
ENDBRANCH  23  29
ENDBRANCH   1  23
TORSDOF 3
ENDMDL
MODEL 6
REMARK VINA RESULT:      -8.5      3.044      5.332
REMARK  Name = 
REMARK  4 active torsions:
REMARK  status: ('A' for Active; 'I' for Inactive)
REMARK    1  A    between atoms: C_1  and  C_2
REMARK    2  A    between atoms: C_5  and  N_6
REMARK    3  A    between atoms: N_6  and  C_7
REMARK    4  A    between atoms: C_16  and  C_17
REMARK                            x       y       z     vdW  Elec       q    Type
REMARK                         _______ _______ _______ _____ _____    ______ ____
ROOT
ATOM      1  C   UNL     1      -0.821  12.043  20.982  0.00  0.00    +0.000 A 
ATOM      2  N   UNL     1      -0.998  13.181  20.264  0.00  0.00    +0.000 NA
ATOM      3  C   UNL     1      -0.409  13.330  19.063  0.00  0.00    +0.000 A 
ATOM      4  N   UNL     1       0.377  12.456  18.437  0.00  0.00    +0.000 NA
ATOM      5  C   UNL     1       0.577  11.324  19.149  0.00  0.00    +0.000 A 
ATOM      6  C   UNL     1       0.023  11.100  20.400  0.00  0.00    +0.000 A 
ATOM      7  O   UNL     1       0.378   9.871  20.885  0.00  0.00    +0.000 OA
ATOM      8  C   UNL     1       1.139   9.289  19.911  0.00  0.00    +0.000 A 
ATOM      9  C   UNL     1       1.686   8.009  19.929  0.00  0.00    +0.000 A 
ATOM     10  C   UNL     1       2.340   7.607  18.753  0.00  0.00    +0.000 A 
ATOM     11  C   UNL     1       2.426   8.546  17.707  0.00  0.00    +0.000 A 
ATOM     12  N   UNL     1       1.949   9.809  17.698  0.00  0.00    +0.000 NA
ATOM     13  C   UNL     1       1.280  10.147  18.825  0.00  0.00    +0.000 A 
ENDROOT
BRANCH  10  14
ATOM     14  C   UNL     1       2.821   6.227  18.531  0.00  0.00    +0.000 A 
ATOM     15  C   UNL     1       4.102   5.814  18.981  0.00  0.00    +0.000 A 
ATOM     16  C   UNL     1       4.458   4.461  19.035  0.00  0.00    +0.000 A 
ATOM     17  C   UNL     1       3.507   3.540  18.664  0.00  0.00    +0.000 A 
ATOM     18  C   UNL     1       2.292   3.926  18.154  0.00  0.00    +0.000 A 
ATOM     19  C   UNL     1       1.943   5.249  18.025  0.00  0.00    +0.000 A 
ATOM     20  O   UNL     1       1.473   2.869  17.904  0.00  0.00    +0.000 OA
ATOM     21  C   UNL     1       2.215   1.827  18.571  0.00  0.00    +0.000 C 
ATOM     22  O   UNL     1       3.592   2.191  18.808  0.00  0.00    +0.000 OA
ENDBRANCH  10  14
BRANCH   1  23
ATOM     23  N   UNL     1      -1.492  11.794  22.190  0.00  0.00    +0.000 N 
ATOM     24  H   UNL     1      -1.148  10.966  22.660  0.00  0.00    +0.000 HD
BRANCH  23  29
ATOM     25  C   UNL     1      -6.736  13.636  23.605  0.00  0.00    +0.000 C 
ATOM     26  C   UNL     1      -5.388  13.112  23.219  0.00  0.00    +0.000 A 
ATOM     27  C   UNL     1      -4.997  12.988  21.881  0.00  0.00    +0.000 A 
ATOM     28  C   UNL     1      -3.717  12.522  21.555  0.00  0.00    +0.000 A 
ATOM     29  C   UNL     1      -2.797  12.181  22.555  0.00  0.00    +0.000 A 
ATOM     30  C   UNL     1      -3.225  12.258  23.883  0.00  0.00    +0.000 A 
ATOM     31  C   UNL     1      -4.494  12.730  24.217  0.00  0.00    +0.000 A 
ENDBRANCH  23  29
ENDBRANCH   1  23
TORSDOF 3
ENDMDL
MODEL 7
REMARK VINA RESULT:      -8.5      1.372      1.870
REMARK  Name = 
REMARK  4 active torsions:
REMARK  status: ('A' for Active; 'I' for Inactive)
REMARK    1  A    between atoms: C_1  and  C_2
REMARK    2  A    between atoms: C_5  and  N_6
REMARK    3  A    between atoms: N_6  and  C_7
REMARK    4  A    between atoms: C_16  and  C_17
REMARK                            x       y       z     vdW  Elec       q    Type
REMARK                         _______ _______ _______ _____ _____    ______ ____
ROOT
ATOM      1  C   UNL     1      -0.519  11.614  20.813  0.00  0.00    +0.000 A 
ATOM      2  N   UNL     1      -1.083  11.537  22.046  0.00  0.00    +0.000 NA
ATOM      3  C   UNL     1      -0.950  10.423  22.789  0.00  0.00    +0.000 A 
ATOM      4  N   UNL     1      -0.296   9.309  22.463  0.00  0.00    +0.000 NA
ATOM      5  C   UNL     1       0.257   9.366  21.230  0.00  0.00    +0.000 A 
ATOM      6  C   UNL     1       0.150  10.467  20.394  0.00  0.00    +0.000 A 
ATOM      7  O   UNL     1       0.812  10.258  19.216  0.00  0.00    +0.000 OA
ATOM      8  C   UNL     1       1.380   9.020  19.318  0.00  0.00    +0.000 A 
ATOM      9  C   UNL     1       2.199   8.394  18.382  0.00  0.00    +0.000 A 
ATOM     10  C   UNL     1       2.746   7.161  18.775  0.00  0.00    +0.000 A 
ATOM     11  C   UNL     1       2.372   6.661  20.037  0.00  0.00    +0.000 A 
ATOM     12  N   UNL     1       1.536   7.231  20.931  0.00  0.00    +0.000 NA
ATOM     13  C   UNL     1       1.068   8.441  20.543  0.00  0.00    +0.000 A 
ENDROOT
BRANCH  10  14
ATOM     14  C   UNL     1       3.770   6.447  17.985  0.00  0.00    +0.000 A 
ATOM     15  C   UNL     1       4.103   6.860  16.669  0.00  0.00    +0.000 A 
ATOM     16  C   UNL     1       5.250   6.385  16.020  0.00  0.00    +0.000 A 
ATOM     17  C   UNL     1       6.063   5.525  16.719  0.00  0.00    +0.000 A 
ATOM     18  C   UNL     1       5.716   5.056  17.962  0.00  0.00    +0.000 A 
ATOM     19  C   UNL     1       4.561   5.452  18.593  0.00  0.00    +0.000 A 
ATOM     20  O   UNL     1       6.678   4.265  18.508  0.00  0.00    +0.000 OA
ATOM     21  C   UNL     1       7.756   4.526  17.585  0.00  0.00    +0.000 C 
ATOM     22  O   UNL     1       7.295   5.093  16.340  0.00  0.00    +0.000 OA
ENDBRANCH  10  14
BRANCH   1  23
ATOM     23  N   UNL     1      -0.540  12.786  20.040  0.00  0.00    +0.000 N 
ATOM     24  H   UNL     1      -1.190  12.727  19.267  0.00  0.00    +0.000 HD
BRANCH  23  29
ATOM     25  C   UNL     1       3.666  16.573  19.108  0.00  0.00    +0.000 C 
ATOM     26  C   UNL     1       2.545  15.619  19.381  0.00  0.00    +0.000 A 
ATOM     27  C   UNL     1       1.266  15.804  18.844  0.00  0.00    +0.000 A 
ATOM     28  C   UNL     1       0.248  14.877  19.095  0.00  0.00    +0.000 A 
ATOM     29  C   UNL     1       0.486  13.739  19.878  0.00  0.00    +0.000 A 
ATOM     30  C   UNL     1       1.753  13.600  20.451  0.00  0.00    +0.000 A 
ATOM     31  C   UNL     1       2.775  14.514  20.198  0.00  0.00    +0.000 A 
ENDBRANCH  23  29
ENDBRANCH   1  23
TORSDOF 3
ENDMDL
MODEL 8
REMARK VINA RESULT:      -8.4      1.082      1.377
REMARK  Name = 
REMARK  4 active torsions:
REMARK  status: ('A' for Active; 'I' for Inactive)
REMARK    1  A    between atoms: C_1  and  C_2
REMARK    2  A    between atoms: C_5  and  N_6
REMARK    3  A    between atoms: N_6  and  C_7
REMARK    4  A    between atoms: C_16  and  C_17
REMARK                            x       y       z     vdW  Elec       q    Type
REMARK                         _______ _______ _______ _____ _____    ______ ____
ROOT
ATOM      1  C   UNL     1       0.266  11.917  19.895  0.00  0.00    +0.000 A 
ATOM      2  N   UNL     1      -0.355  12.047  21.095  0.00  0.00    +0.000 NA
ATOM      3  C   UNL     1      -0.418  11.007  21.947  0.00  0.00    +0.000 A 
ATOM      4  N   UNL     1       0.081   9.785  21.766  0.00  0.00    +0.000 NA
ATOM      5  C   UNL     1       0.688   9.637  20.567  0.00  0.00    +0.000 A 
ATOM      6  C   UNL     1       0.779  10.651  19.625  0.00  0.00    +0.000 A 
ATOM      7  O   UNL     1       1.453  10.231  18.512  0.00  0.00    +0.000 OA
ATOM      8  C   UNL     1       1.829   8.943  18.764  0.00  0.00    +0.000 A 
ATOM      9  C   UNL     1       2.587   8.115  17.940  0.00  0.00    +0.000 A 
ATOM     10  C   UNL     1       2.931   6.864  18.479  0.00  0.00    +0.000 A 
ATOM     11  C   UNL     1       2.435   6.553  19.759  0.00  0.00    +0.000 A 
ATOM     12  N   UNL     1       1.654   7.324  20.546  0.00  0.00    +0.000 NA
ATOM     13  C   UNL     1       1.384   8.541  20.019  0.00  0.00    +0.000 A 
ENDROOT
BRANCH  10  14
ATOM     14  C   UNL     1       3.874   5.936  17.820  0.00  0.00    +0.000 A 
ATOM     15  C   UNL     1       3.684   4.531  17.879  0.00  0.00    +0.000 A 
ATOM     16  C   UNL     1       4.390   3.661  17.039  0.00  0.00    +0.000 A 
ATOM     17  C   UNL     1       5.254   4.221  16.129  0.00  0.00    +0.000 A 
ATOM     18  C   UNL     1       5.506   5.570  16.111  0.00  0.00    +0.000 A 
ATOM     19  C   UNL     1       4.879   6.439  16.971  0.00  0.00    +0.000 A 
ATOM     20  O   UNL     1       6.342   5.930  15.100  0.00  0.00    +0.000 OA
ATOM     21  C   UNL     1       6.351   4.701  14.345  0.00  0.00    +0.000 C 
ATOM     22  O   UNL     1       5.894   3.571  15.120  0.00  0.00    +0.000 OA
ENDBRANCH  10  14
BRANCH   1  23
ATOM     23  N   UNL     1       0.449  12.995  19.014  0.00  0.00    +0.000 N 
ATOM     24  H   UNL     1       0.846  12.707  18.127  0.00  0.00    +0.000 HD
BRANCH  23  29
ATOM     25  C   UNL     1       1.172  18.465  20.579  0.00  0.00    +0.000 C 
ATOM     26  C   UNL     1       1.020  17.044  20.136  0.00  0.00    +0.000 A 
ATOM     27  C   UNL     1       1.988  16.072  20.416  0.00  0.00    +0.000 A 
ATOM     28  C   UNL     1       1.801  14.745  20.013  0.00  0.00    +0.000 A 
ATOM     29  C   UNL     1       0.640  14.355  19.331  0.00  0.00    +0.000 A 
ATOM     30  C   UNL     1      -0.289  15.349  19.011  0.00  0.00    +0.000 A 
ATOM     31  C   UNL     1      -0.115  16.672  19.417  0.00  0.00    +0.000 A 
ENDBRANCH  23  29
ENDBRANCH   1  23
TORSDOF 3
ENDMDL
MODEL 9
REMARK VINA RESULT:      -8.4      0.769      1.014
REMARK  Name = 
REMARK  4 active torsions:
REMARK  status: ('A' for Active; 'I' for Inactive)
REMARK    1  A    between atoms: C_1  and  C_2
REMARK    2  A    between atoms: C_5  and  N_6
REMARK    3  A    between atoms: N_6  and  C_7
REMARK    4  A    between atoms: C_16  and  C_17
REMARK                            x       y       z     vdW  Elec       q    Type
REMARK                         _______ _______ _______ _____ _____    ______ ____
ROOT
ATOM      1  C   UNL     1       0.690  12.520  19.609  0.00  0.00    +0.000 A 
ATOM      2  N   UNL     1      -0.029  12.712  20.744  0.00  0.00    +0.000 NA
ATOM      3  C   UNL     1      -0.293  11.681  21.568  0.00  0.00    +0.000 A 
ATOM      4  N   UNL     1       0.081  10.412  21.417  0.00  0.00    +0.000 NA
ATOM      5  C   UNL     1       0.784  10.203  20.281  0.00  0.00    +0.000 A 
ATOM      6  C   UNL     1       1.082  11.205  19.370  0.00  0.00    +0.000 A 
ATOM      7  O   UNL     1       1.812  10.718  18.321  0.00  0.00    +0.000 OA
ATOM      8  C   UNL     1       2.015   9.394  18.587  0.00  0.00    +0.000 A 
ATOM      9  C   UNL     1       2.754   8.491  17.828  0.00  0.00    +0.000 A 
ATOM     10  C   UNL     1       2.900   7.206  18.377  0.00  0.00    +0.000 A 
ATOM     11  C   UNL     1       2.247   6.946  19.597  0.00  0.00    +0.000 A 
ATOM     12  N   UNL     1       1.483   7.795  20.316  0.00  0.00    +0.000 NA
ATOM     13  C   UNL     1       1.404   9.038  19.785  0.00  0.00    +0.000 A 
ENDROOT
BRANCH  10  14
ATOM     14  C   UNL     1       3.794   6.181  17.799  0.00  0.00    +0.000 A 
ATOM     15  C   UNL     1       3.394   4.822  17.710  0.00  0.00    +0.000 A 
ATOM     16  C   UNL     1       4.095   3.902  16.921  0.00  0.00    +0.000 A 
ATOM     17  C   UNL     1       5.172   4.371  16.207  0.00  0.00    +0.000 A 
ATOM     18  C   UNL     1       5.618   5.662  16.342  0.00  0.00    +0.000 A 
ATOM     19  C   UNL     1       4.990   6.568  17.162  0.00  0.00    +0.000 A 
ATOM     20  O   UNL     1       6.655   5.944  15.507  0.00  0.00    +0.000 OA
ATOM     21  C   UNL     1       6.611   4.775  14.664  0.00  0.00    +0.000 C 
ATOM     22  O   UNL     1       5.870   3.689  15.260  0.00  0.00    +0.000 OA
ENDBRANCH  10  14
BRANCH   1  23
ATOM     23  N   UNL     1       1.080  13.575  18.769  0.00  0.00    +0.000 N 
ATOM     24  H   UNL     1       0.639  13.527  17.858  0.00  0.00    +0.000 HD
BRANCH  23  29
ATOM     25  C   UNL     1       5.786  16.845  18.995  0.00  0.00    +0.000 C 
ATOM     26  C   UNL     1       4.585  15.953  18.954  0.00  0.00    +0.000 A 
ATOM     27  C   UNL     1       3.926  15.544  20.119  0.00  0.00    +0.000 A 
ATOM     28  C   UNL     1       2.787  14.733  20.045  0.00  0.00    +0.000 A 
ATOM     29  C   UNL     1       2.274  14.322  18.807  0.00  0.00    +0.000 A 
ATOM     30  C   UNL     1       2.978  14.693  17.658  0.00  0.00    +0.000 A 
ATOM     31  C   UNL     1       4.107  15.509  17.723  0.00  0.00    +0.000 A 
ENDBRANCH  23  29
ENDBRANCH   1  23
TORSDOF 3
ENDMDL
