MODEL 1
REMARK VINA RESULT:      -7.3      0.000      0.000
REMARK  Name = 
REMARK  6 active torsions:
REMARK  status: ('A' for Active; 'I' for Inactive)
REMARK    1  A    between atoms: C_1  and  O_2
REMARK    2  A    between atoms: O_2  and  C_3
REMARK    3  A    between atoms: C_5  and  N_6
REMARK    4  A    between atoms: C_7  and  C_8
REMARK    5  A    between atoms: C_11  and  N_12
REMARK    6  A    between atoms: C_18  and  C_19
REMARK                            x       y       z     vdW  Elec       q    Type
REMARK                         _______ _______ _______ _____ _____    ______ ____
ROOT
ATOM      1  C   UNL     1       9.801  12.121  20.478  0.00  0.00    +0.000 A 
ATOM      2  C   UNL     1       9.406  10.792  20.250  0.00  0.00    +0.000 A 
ATOM      3  C   UNL     1       9.174  10.303  18.961  0.00  0.00    +0.000 A 
ATOM      4  C   UNL     1       9.277  11.186  17.889  0.00  0.00    +0.000 A 
ATOM      5  C   UNL     1       9.656  12.514  18.101  0.00  0.00    +0.000 A 
ATOM      6  C   UNL     1       9.932  13.009  19.389  0.00  0.00    +0.000 A 
ENDROOT
BRANCH   6   7
ATOM      7  C   UNL     1      10.362  14.401  19.537  0.00  0.00    +0.000 A 
ATOM      8  C   UNL     1       9.764  15.644  19.604  0.00  0.00    +0.000 A 
ATOM      9  N   UNL     1      10.708  16.630  19.777  0.00  0.00    +0.000 NA
ATOM     10  C   UNL     1      11.836  15.962  19.807  0.00  0.00    +0.000 A 
ATOM     11  O   UNL     1      11.715  14.616  19.670  0.00  0.00    +0.000 OA
ENDBRANCH   6   7
BRANCH   1  13
ATOM     12  C   UNL     1       8.895  12.642  22.611  0.00  0.00    +0.000 C 
ATOM     13  O   UNL     1      10.025  12.610  21.742  0.00  0.00    +0.000 OA
ENDBRANCH   1  13
BRANCH   3  14
ATOM     14  N   UNL     1       8.825   8.948  18.833  0.00  0.00    +0.000 NA
ATOM     15  C   UNL     1       7.991   8.602  17.908  0.00  0.00    +0.000 C 
BRANCH  15  16
ATOM     16  C   UNL     1       7.675   7.219  17.692  0.00  0.00    +0.000 A 
ATOM     17  C   UNL     1       7.531   6.151  18.559  0.00  0.00    +0.000 A 
ATOM     18  C   UNL     1       7.267   5.005  17.766  0.00  0.00    +0.000 A 
ATOM     19  C   UNL     1       7.252   5.460  16.469  0.00  0.00    +0.000 A 
ATOM     20  O   UNL     1       7.499   6.796  16.401  0.00  0.00    +0.000 OA
BRANCH  19  21
ATOM     21  N   UNL     1       7.047   4.786  15.226  0.00  0.00    +0.000 N 
ATOM     22  O   UNL     1       7.586   5.291  14.232  0.00  0.00    +0.000 OA
ATOM     23  O   UNL     1       6.355   3.760  15.234  0.00  0.00    +0.000 OA
ENDBRANCH  19  21
ENDBRANCH  15  16
ENDBRANCH   3  14
TORSDOF 5
ENDMDL
MODEL 2
REMARK VINA RESULT:      -7.1      1.289      2.257
REMARK  Name = 
REMARK  6 active torsions:
REMARK  status: ('A' for Active; 'I' for Inactive)
REMARK    1  A    between atoms: C_1  and  O_2
REMARK    2  A    between atoms: O_2  and  C_3
REMARK    3  A    between atoms: C_5  and  N_6
REMARK    4  A    between atoms: C_7  and  C_8
REMARK    5  A    between atoms: C_11  and  N_12
REMARK    6  A    between atoms: C_18  and  C_19
REMARK                            x       y       z     vdW  Elec       q    Type
REMARK                         _______ _______ _______ _____ _____    ______ ____
ROOT
ATOM      1  C   UNL     1      10.169  12.752  18.182  0.00  0.00    +0.000 A 
ATOM      2  C   UNL     1       9.783  11.401  18.146  0.00  0.00    +0.000 A 
ATOM      3  C   UNL     1       9.404  10.713  19.302  0.00  0.00    +0.000 A 
ATOM      4  C   UNL     1       9.480  11.376  20.523  0.00  0.00    +0.000 A 
ATOM      5  C   UNL     1       9.875  12.716  20.577  0.00  0.00    +0.000 A 
ATOM      6  C   UNL     1      10.220  13.433  19.416  0.00  0.00    +0.000 A 
ENDROOT
BRANCH   6   7
ATOM      7  C   UNL     1      10.587  14.845  19.539  0.00  0.00    +0.000 A 
ATOM      8  C   UNL     1      11.749  15.582  19.663  0.00  0.00    +0.000 A 
ATOM      9  N   UNL     1      11.468  16.928  19.714  0.00  0.00    +0.000 NA
ATOM     10  C   UNL     1      10.161  16.966  19.622  0.00  0.00    +0.000 A 
ATOM     11  O   UNL     1       9.554  15.755  19.512  0.00  0.00    +0.000 OA
ENDBRANCH   6   7
BRANCH   1  13
ATOM     12  C   UNL     1      11.899  13.254  16.633  0.00  0.00    +0.000 C 
ATOM     13  O   UNL     1      10.548  13.434  17.050  0.00  0.00    +0.000 OA
ENDBRANCH   1  13
BRANCH   3  14
ATOM     14  N   UNL     1       8.992   9.377  19.156  0.00  0.00    +0.000 NA
ATOM     15  C   UNL     1       8.228   9.064  18.162  0.00  0.00    +0.000 C 
BRANCH  15  16
ATOM     16  C   UNL     1       7.856   7.698  17.930  0.00  0.00    +0.000 A 
ATOM     17  C   UNL     1       7.993   6.553  18.697  0.00  0.00    +0.000 A 
ATOM     18  C   UNL     1       7.488   5.475  17.925  0.00  0.00    +0.000 A 
ATOM     19  C   UNL     1       7.063   6.042  16.747  0.00  0.00    +0.000 A 
ATOM     20  O   UNL     1       7.279   7.385  16.728  0.00  0.00    +0.000 OA
BRANCH  19  21
ATOM     21  N   UNL     1       6.472   5.475  15.577  0.00  0.00    +0.000 N 
ATOM     22  O   UNL     1       5.551   6.119  15.058  0.00  0.00    +0.000 OA
ATOM     23  O   UNL     1       6.919   4.394  15.172  0.00  0.00    +0.000 OA
ENDBRANCH  19  21
ENDBRANCH  15  16
ENDBRANCH   3  14
TORSDOF 5
ENDMDL
MODEL 3
REMARK VINA RESULT:      -6.9      1.650      2.125
REMARK  Name = 
REMARK  6 active torsions:
REMARK  status: ('A' for Active; 'I' for Inactive)
REMARK    1  A    between atoms: C_1  and  O_2
REMARK    2  A    between atoms: O_2  and  C_3
REMARK    3  A    between atoms: C_5  and  N_6
REMARK    4  A    between atoms: C_7  and  C_8
REMARK    5  A    between atoms: C_11  and  N_12
REMARK    6  A    between atoms: C_18  and  C_19
REMARK                            x       y       z     vdW  Elec       q    Type
REMARK                         _______ _______ _______ _____ _____    ______ ____
ROOT
ATOM      1  C   UNL     1       8.770  12.976  17.937  0.00  0.00    +0.000 A 
ATOM      2  C   UNL     1       8.508  11.597  18.003  0.00  0.00    +0.000 A 
ATOM      3  C   UNL     1       9.301  10.733  18.764  0.00  0.00    +0.000 A 
ATOM      4  C   UNL     1      10.415  11.255  19.415  0.00  0.00    +0.000 A 
ATOM      5  C   UNL     1      10.696  12.623  19.348  0.00  0.00    +0.000 A 
ATOM      6  C   UNL     1       9.883  13.511  18.619  0.00  0.00    +0.000 A 
ENDROOT
BRANCH   6   7
ATOM      7  C   UNL     1      10.213  14.938  18.622  0.00  0.00    +0.000 A 
ATOM      8  C   UNL     1      10.000  16.024  19.448  0.00  0.00    +0.000 A 
ATOM      9  N   UNL     1      10.587  17.154  18.926  0.00  0.00    +0.000 NA
ATOM     10  C   UNL     1      11.130  16.724  17.813  0.00  0.00    +0.000 A 
ATOM     11  O   UNL     1      10.952  15.401  17.557  0.00  0.00    +0.000 OA
ENDBRANCH   6   7
BRANCH   1  13
ATOM     12  C   UNL     1       6.798  14.294  17.799  0.00  0.00    +0.000 C 
ATOM     13  O   UNL     1       7.999  13.831  17.186  0.00  0.00    +0.000 OA
ENDBRANCH   1  13
BRANCH   3  14
ATOM     14  N   UNL     1       8.931   9.377  18.801  0.00  0.00    +0.000 NA
ATOM     15  C   UNL     1       8.149   8.918  17.880  0.00  0.00    +0.000 C 
BRANCH  15  16
ATOM     16  C   UNL     1       7.818   7.523  17.834  0.00  0.00    +0.000 A 
ATOM     17  C   UNL     1       7.915   6.512  18.775  0.00  0.00    +0.000 A 
ATOM     18  C   UNL     1       7.487   5.316  18.143  0.00  0.00    +0.000 A 
ATOM     19  C   UNL     1       7.143   5.687  16.864  0.00  0.00    +0.000 A 
ATOM     20  O   UNL     1       7.338   7.016  16.655  0.00  0.00    +0.000 OA
BRANCH  19  21
ATOM     21  N   UNL     1       6.652   4.932  15.755  0.00  0.00    +0.000 N 
ATOM     22  O   UNL     1       5.517   4.453  15.876  0.00  0.00    +0.000 OA
ATOM     23  O   UNL     1       7.388   4.814  14.767  0.00  0.00    +0.000 OA
ENDBRANCH  19  21
ENDBRANCH  15  16
ENDBRANCH   3  14
TORSDOF 5
ENDMDL
MODEL 4
REMARK VINA RESULT:      -6.8      1.384      2.024
REMARK  Name = 
REMARK  6 active torsions:
REMARK  status: ('A' for Active; 'I' for Inactive)
REMARK    1  A    between atoms: C_1  and  O_2
REMARK    2  A    between atoms: O_2  and  C_3
REMARK    3  A    between atoms: C_5  and  N_6
REMARK    4  A    between atoms: C_7  and  C_8
REMARK    5  A    between atoms: C_11  and  N_12
REMARK    6  A    between atoms: C_18  and  C_19
REMARK                            x       y       z     vdW  Elec       q    Type
REMARK                         _______ _______ _______ _____ _____    ______ ____
ROOT
ATOM      1  C   UNL     1       8.952  12.768  18.282  0.00  0.00    +0.000 A 
ATOM      2  C   UNL     1       8.368  11.604  17.757  0.00  0.00    +0.000 A 
ATOM      3  C   UNL     1       8.580  10.349  18.334  0.00  0.00    +0.000 A 
ATOM      4  C   UNL     1       9.450  10.256  19.417  0.00  0.00    +0.000 A 
ATOM      5  C   UNL     1      10.049  11.404  19.943  0.00  0.00    +0.000 A 
ATOM      6  C   UNL     1       9.812  12.679  19.397  0.00  0.00    +0.000 A 
ENDROOT
BRANCH   6   7
ATOM      7  C   UNL     1      10.442  13.845  20.020  0.00  0.00    +0.000 A 
ATOM      8  C   UNL     1      11.568  14.618  19.816  0.00  0.00    +0.000 A 
ATOM      9  N   UNL     1      11.634  15.636  20.739  0.00  0.00    +0.000 NA
ATOM     10  C   UNL     1      10.559  15.451  21.466  0.00  0.00    +0.000 A 
ATOM     11  O   UNL     1       9.787  14.395  21.099  0.00  0.00    +0.000 OA
ENDBRANCH   6   7
BRANCH   1  13
ATOM     12  C   UNL     1       7.465  14.584  17.914  0.00  0.00    +0.000 C 
ATOM     13  O   UNL     1       8.753  14.005  17.716  0.00  0.00    +0.000 OA
ENDBRANCH   1  13
BRANCH   3  14
ATOM     14  N   UNL     1       7.916   9.250  17.761  0.00  0.00    +0.000 NA
ATOM     15  C   UNL     1       8.206   8.060  18.175  0.00  0.00    +0.000 C 
BRANCH  15  16
ATOM     16  C   UNL     1       7.490   6.921  17.676  0.00  0.00    +0.000 A 
ATOM     17  C   UNL     1       6.582   6.060  18.267  0.00  0.00    +0.000 A 
ATOM     18  C   UNL     1       6.247   5.081  17.297  0.00  0.00    +0.000 A 
ATOM     19  C   UNL     1       6.963   5.426  16.175  0.00  0.00    +0.000 A 
ATOM     20  O   UNL     1       7.724   6.534  16.383  0.00  0.00    +0.000 OA
BRANCH  19  21
ATOM     21  N   UNL     1       7.053   4.825  14.881  0.00  0.00    +0.000 N 
ATOM     22  O   UNL     1       7.711   5.442  14.034  0.00  0.00    +0.000 OA
ATOM     23  O   UNL     1       6.473   3.746  14.706  0.00  0.00    +0.000 OA
ENDBRANCH  19  21
ENDBRANCH  15  16
ENDBRANCH   3  14
TORSDOF 5
ENDMDL
MODEL 5
REMARK VINA RESULT:      -6.8      6.994      8.258
REMARK  Name = 
REMARK  6 active torsions:
REMARK  status: ('A' for Active; 'I' for Inactive)
REMARK    1  A    between atoms: C_1  and  O_2
REMARK    2  A    between atoms: O_2  and  C_3
REMARK    3  A    between atoms: C_5  and  N_6
REMARK    4  A    between atoms: C_7  and  C_8
REMARK    5  A    between atoms: C_11  and  N_12
REMARK    6  A    between atoms: C_18  and  C_19
REMARK                            x       y       z     vdW  Elec       q    Type
REMARK                         _______ _______ _______ _____ _____    ______ ____
ROOT
ATOM      1  C   UNL     1       0.956  10.088  19.592  0.00  0.00    +0.000 A 
ATOM      2  C   UNL     1       1.586   8.979  19.003  0.00  0.00    +0.000 A 
ATOM      3  C   UNL     1       1.844   7.810  19.725  0.00  0.00    +0.000 A 
ATOM      4  C   UNL     1       1.525   7.784  21.080  0.00  0.00    +0.000 A 
ATOM      5  C   UNL     1       0.911   8.885  21.683  0.00  0.00    +0.000 A 
ATOM      6  C   UNL     1       0.607  10.052  20.958  0.00  0.00    +0.000 A 
ENDROOT
BRANCH   6   7
ATOM      7  C   UNL     1      -0.073  11.154  21.642  0.00  0.00    +0.000 A 
ATOM      8  C   UNL     1      -0.003  12.533  21.657  0.00  0.00    +0.000 A 
ATOM      9  N   UNL     1      -0.944  13.059  22.512  0.00  0.00    +0.000 NA
ATOM     10  C   UNL     1      -1.547  11.995  22.985  0.00  0.00    +0.000 A 
ATOM     11  O   UNL     1      -1.083  10.809  22.511  0.00  0.00    +0.000 OA
ENDBRANCH   6   7
BRANCH   1  13
ATOM     12  C   UNL     1       1.846  12.001  18.497  0.00  0.00    +0.000 C 
ATOM     13  O   UNL     1       0.704  11.243  18.890  0.00  0.00    +0.000 OA
ENDBRANCH   1  13
BRANCH   3  14
ATOM     14  N   UNL     1       2.439   6.740  19.035  0.00  0.00    +0.000 NA
ATOM     15  C   UNL     1       3.408   6.986  18.216  0.00  0.00    +0.000 C 
BRANCH  15  16
ATOM     16  C   UNL     1       4.097   5.913  17.558  0.00  0.00    +0.000 A 
ATOM     17  C   UNL     1       3.711   4.627  17.221  0.00  0.00    +0.000 A 
ATOM     18  C   UNL     1       4.836   3.998  16.630  0.00  0.00    +0.000 A 
ATOM     19  C   UNL     1       5.826   4.952  16.633  0.00  0.00    +0.000 A 
ATOM     20  O   UNL     1       5.401   6.117  17.192  0.00  0.00    +0.000 OA
BRANCH  19  21
ATOM     21  N   UNL     1       7.181   4.919  16.181  0.00  0.00    +0.000 N 
ATOM     22  O   UNL     1       7.989   4.329  16.911  0.00  0.00    +0.000 OA
ATOM     23  O   UNL     1       7.444   5.475  15.108  0.00  0.00    +0.000 OA
ENDBRANCH  19  21
ENDBRANCH  15  16
ENDBRANCH   3  14
TORSDOF 5
ENDMDL
MODEL 6
REMARK VINA RESULT:      -6.8      7.254      7.758
REMARK  Name = 
REMARK  6 active torsions:
REMARK  status: ('A' for Active; 'I' for Inactive)
REMARK    1  A    between atoms: C_1  and  O_2
REMARK    2  A    between atoms: O_2  and  C_3
REMARK    3  A    between atoms: C_5  and  N_6
REMARK    4  A    between atoms: C_7  and  C_8
REMARK    5  A    between atoms: C_11  and  N_12
REMARK    6  A    between atoms: C_18  and  C_19
REMARK                            x       y       z     vdW  Elec       q    Type
REMARK                         _______ _______ _______ _____ _____    ______ ____
ROOT
ATOM      1  C   UNL     1       1.221   9.054  20.505  0.00  0.00    +0.000 A 
ATOM      2  C   UNL     1       1.850   7.970  19.869  0.00  0.00    +0.000 A 
ATOM      3  C   UNL     1       2.247   8.032  18.530  0.00  0.00    +0.000 A 
ATOM      4  C   UNL     1       1.945   9.178  17.801  0.00  0.00    +0.000 A 
ATOM      5  C   UNL     1       1.307  10.260  18.417  0.00  0.00    +0.000 A 
ATOM      6  C   UNL     1       0.939  10.227  19.775  0.00  0.00    +0.000 A 
ENDROOT
BRANCH   6   7
ATOM      7  C   UNL     1       0.308  11.409  20.366  0.00  0.00    +0.000 A 
ATOM      8  C   UNL     1      -0.946  11.986  20.384  0.00  0.00    +0.000 A 
ATOM      9  N   UNL     1      -0.948  13.123  21.159  0.00  0.00    +0.000 NA
ATOM     10  C   UNL     1       0.290  13.200  21.581  0.00  0.00    +0.000 A 
ATOM     11  O   UNL     1       1.111  12.207  21.150  0.00  0.00    +0.000 OA
ENDBRANCH   6   7
BRANCH   1  13
ATOM     12  C   UNL     1      -0.495   8.508  22.055  0.00  0.00    +0.000 C 
ATOM     13  O   UNL     1       0.823   8.998  21.819  0.00  0.00    +0.000 OA
ENDBRANCH   1  13
BRANCH   3  14
ATOM     14  N   UNL     1       2.908   6.912  17.997  0.00  0.00    +0.000 NA
ATOM     15  C   UNL     1       3.977   7.094  17.293  0.00  0.00    +0.000 C 
BRANCH  15  16
ATOM     16  C   UNL     1       4.727   5.973  16.804  0.00  0.00    +0.000 A 
ATOM     17  C   UNL     1       4.919   4.695  17.299  0.00  0.00    +0.000 A 
ATOM     18  C   UNL     1       5.807   4.036  16.410  0.00  0.00    +0.000 A 
ATOM     19  C   UNL     1       6.080   4.955  15.425  0.00  0.00    +0.000 A 
ATOM     20  O   UNL     1       5.439   6.135  15.645  0.00  0.00    +0.000 OA
BRANCH  19  21
ATOM     21  N   UNL     1       6.910   4.887  14.263  0.00  0.00    +0.000 N 
ATOM     22  O   UNL     1       6.546   4.107  13.374  0.00  0.00    +0.000 OA
ATOM     23  O   UNL     1       7.917   5.604  14.232  0.00  0.00    +0.000 OA
ENDBRANCH  19  21
ENDBRANCH  15  16
ENDBRANCH   3  14
TORSDOF 5
ENDMDL
MODEL 7
REMARK VINA RESULT:      -6.7      7.381      8.270
REMARK  Name = 
REMARK  6 active torsions:
REMARK  status: ('A' for Active; 'I' for Inactive)
REMARK    1  A    between atoms: C_1  and  O_2
REMARK    2  A    between atoms: O_2  and  C_3
REMARK    3  A    between atoms: C_5  and  N_6
REMARK    4  A    between atoms: C_7  and  C_8
REMARK    5  A    between atoms: C_11  and  N_12
REMARK    6  A    between atoms: C_18  and  C_19
REMARK                            x       y       z     vdW  Elec       q    Type
REMARK                         _______ _______ _______ _____ _____    ______ ____
ROOT
ATOM      1  C   UNL     1       0.858   9.876  20.928  0.00  0.00    +0.000 A 
ATOM      2  C   UNL     1       1.578   8.707  20.630  0.00  0.00    +0.000 A 
ATOM      3  C   UNL     1       1.873   8.339  19.314  0.00  0.00    +0.000 A 
ATOM      4  C   UNL     1       1.376   9.126  18.279  0.00  0.00    +0.000 A 
ATOM      5  C   UNL     1       0.647  10.285  18.560  0.00  0.00    +0.000 A 
ATOM      6  C   UNL     1       0.378  10.690  19.881  0.00  0.00    +0.000 A 
ENDROOT
BRANCH   6   7
ATOM      7  C   UNL     1      -0.357  11.936  20.104  0.00  0.00    +0.000 A 
ATOM      8  C   UNL     1      -0.076  13.287  20.128  0.00  0.00    +0.000 A 
ATOM      9  N   UNL     1      -1.216  14.017  20.376  0.00  0.00    +0.000 NA
ATOM     10  C   UNL     1      -2.141  13.097  20.495  0.00  0.00    +0.000 A 
ATOM     11  O   UNL     1      -1.708  11.818  20.345  0.00  0.00    +0.000 OA
ENDBRANCH   6   7
BRANCH   1  13
ATOM     12  C   UNL     1      -0.394   9.427  22.897  0.00  0.00    +0.000 C 
ATOM     13  O   UNL     1       0.560  10.241  22.220  0.00  0.00    +0.000 OA
ENDBRANCH   1  13
BRANCH   3  14
ATOM     14  N   UNL     1       2.635   7.174  19.121  0.00  0.00    +0.000 NA
ATOM     15  C   UNL     1       3.043   6.885  17.930  0.00  0.00    +0.000 C 
BRANCH  15  16
ATOM     16  C   UNL     1       3.894   5.752  17.706  0.00  0.00    +0.000 A 
ATOM     17  C   UNL     1       3.622   4.430  17.399  0.00  0.00    +0.000 A 
ATOM     18  C   UNL     1       4.867   3.751  17.349  0.00  0.00    +0.000 A 
ATOM     19  C   UNL     1       5.813   4.714  17.613  0.00  0.00    +0.000 A 
ATOM     20  O   UNL     1       5.246   5.930  17.834  0.00  0.00    +0.000 OA
BRANCH  19  21
ATOM     21  N   UNL     1       7.237   4.647  17.708  0.00  0.00    +0.000 N 
ATOM     22  O   UNL     1       7.722   4.839  18.831  0.00  0.00    +0.000 OA
ATOM     23  O   UNL     1       7.873   4.405  16.675  0.00  0.00    +0.000 OA
ENDBRANCH  19  21
ENDBRANCH  15  16
ENDBRANCH   3  14
TORSDOF 5
ENDMDL
MODEL 8
REMARK VINA RESULT:      -6.7      7.178      8.559
REMARK  Name = 
REMARK  6 active torsions:
REMARK  status: ('A' for Active; 'I' for Inactive)
REMARK    1  A    between atoms: C_1  and  O_2
REMARK    2  A    between atoms: O_2  and  C_3
REMARK    3  A    between atoms: C_5  and  N_6
REMARK    4  A    between atoms: C_7  and  C_8
REMARK    5  A    between atoms: C_11  and  N_12
REMARK    6  A    between atoms: C_18  and  C_19
REMARK                            x       y       z     vdW  Elec       q    Type
REMARK                         _______ _______ _______ _____ _____    ______ ____
ROOT
ATOM      1  C   UNL     1       0.436  10.282  19.970  0.00  0.00    +0.000 A 
ATOM      2  C   UNL     1       1.154   9.220  19.395  0.00  0.00    +0.000 A 
ATOM      3  C   UNL     1       1.674   8.179  20.169  0.00  0.00    +0.000 A 
ATOM      4  C   UNL     1       1.527   8.243  21.552  0.00  0.00    +0.000 A 
ATOM      5  C   UNL     1       0.827   9.301  22.140  0.00  0.00    +0.000 A 
ATOM      6  C   UNL     1       0.263  10.334  21.369  0.00  0.00    +0.000 A 
ENDROOT
BRANCH   6   7
ATOM      7  C   UNL     1      -0.491  11.391  22.046  0.00  0.00    +0.000 A 
ATOM      8  C   UNL     1      -1.688  11.505  22.726  0.00  0.00    +0.000 A 
ATOM      9  N   UNL     1      -1.870  12.791  23.179  0.00  0.00    +0.000 NA
ATOM     10  C   UNL     1      -0.791  13.411  22.765  0.00  0.00    +0.000 A 
ATOM     11  O   UNL     1       0.090  12.639  22.075  0.00  0.00    +0.000 OA
ENDBRANCH   6   7
BRANCH   1  13
ATOM     12  C   UNL     1      -1.227  11.008  18.436  0.00  0.00    +0.000 C 
ATOM     13  O   UNL     1      -0.073  11.313  19.216  0.00  0.00    +0.000 OA
ENDBRANCH   1  13
BRANCH   3  14
ATOM     14  N   UNL     1       2.340   7.140  19.495  0.00  0.00    +0.000 NA
ATOM     15  C   UNL     1       3.041   7.424  18.448  0.00  0.00    +0.000 C 
BRANCH  15  16
ATOM     16  C   UNL     1       3.803   6.406  17.783  0.00  0.00    +0.000 A 
ATOM     17  C   UNL     1       3.509   5.098  17.440  0.00  0.00    +0.000 A 
ATOM     18  C   UNL     1       4.675   4.553  16.844  0.00  0.00    +0.000 A 
ATOM     19  C   UNL     1       5.595   5.575  16.852  0.00  0.00    +0.000 A 
ATOM     20  O   UNL     1       5.089   6.703  17.418  0.00  0.00    +0.000 OA
BRANCH  19  21
ATOM     21  N   UNL     1       6.949   5.640  16.399  0.00  0.00    +0.000 N 
ATOM     22  O   UNL     1       7.433   4.587  15.962  0.00  0.00    +0.000 OA
ATOM     23  O   UNL     1       7.530   6.729  16.475  0.00  0.00    +0.000 OA
ENDBRANCH  19  21
ENDBRANCH  15  16
ENDBRANCH   3  14
TORSDOF 5
ENDMDL
MODEL 9
REMARK VINA RESULT:      -6.7      6.951      8.450
REMARK  Name = 
REMARK  6 active torsions:
REMARK  status: ('A' for Active; 'I' for Inactive)
REMARK    1  A    between atoms: C_1  and  O_2
REMARK    2  A    between atoms: O_2  and  C_3
REMARK    3  A    between atoms: C_5  and  N_6
REMARK    4  A    between atoms: C_7  and  C_8
REMARK    5  A    between atoms: C_11  and  N_12
REMARK    6  A    between atoms: C_18  and  C_19
REMARK                            x       y       z     vdW  Elec       q    Type
REMARK                         _______ _______ _______ _____ _____    ______ ____
ROOT
ATOM      1  C   UNL     1       1.001  10.026  19.334  0.00  0.00    +0.000 A 
ATOM      2  C   UNL     1       1.790   8.911  19.005  0.00  0.00    +0.000 A 
ATOM      3  C   UNL     1       1.889   7.803  19.853  0.00  0.00    +0.000 A 
ATOM      4  C   UNL     1       1.236   7.849  21.081  0.00  0.00    +0.000 A 
ATOM      5  C   UNL     1       0.458   8.957  21.428  0.00  0.00    +0.000 A 
ATOM      6  C   UNL     1       0.316  10.061  20.567  0.00  0.00    +0.000 A 
ENDROOT
BRANCH   6   7
ATOM      7  C   UNL     1      -0.546  11.172  20.975  0.00  0.00    +0.000 A 
ATOM      8  C   UNL     1      -0.592  12.092  22.004  0.00  0.00    +0.000 A 
ATOM      9  N   UNL     1      -1.660  12.945  21.847  0.00  0.00    +0.000 NA
ATOM     10  C   UNL     1      -2.223  12.520  20.741  0.00  0.00    +0.000 A 
ATOM     11  O   UNL     1      -1.613  11.457  20.153  0.00  0.00    +0.000 OA
ENDBRANCH   6   7
BRANCH   1  13
ATOM     12  C   UNL     1       2.079  11.918  18.382  0.00  0.00    +0.000 C 
ATOM     13  O   UNL     1       0.903  11.121  18.508  0.00  0.00    +0.000 OA
ENDBRANCH   1  13
BRANCH   3  14
ATOM     14  N   UNL     1       2.669   6.719  19.415  0.00  0.00    +0.000 NA
ATOM     15  C   UNL     1       3.045   6.679  18.179  0.00  0.00    +0.000 C 
BRANCH  15  16
ATOM     16  C   UNL     1       3.912   5.634  17.715  0.00  0.00    +0.000 A 
ATOM     17  C   UNL     1       3.659   4.405  17.131  0.00  0.00    +0.000 A 
ATOM     18  C   UNL     1       4.914   3.774  16.934  0.00  0.00    +0.000 A 
ATOM     19  C   UNL     1       5.846   4.672  17.398  0.00  0.00    +0.000 A 
ATOM     20  O   UNL     1       5.262   5.803  17.877  0.00  0.00    +0.000 OA
BRANCH  19  21
ATOM     21  N   UNL     1       7.272   4.609  17.475  0.00  0.00    +0.000 N 
ATOM     22  O   UNL     1       7.875   4.490  16.400  0.00  0.00    +0.000 OA
ATOM     23  O   UNL     1       7.792   4.677  18.595  0.00  0.00    +0.000 OA
ENDBRANCH  19  21
ENDBRANCH  15  16
ENDBRANCH   3  14
TORSDOF 5
ENDMDL
