MODEL 1
REMARK VINA RESULT:      -7.7      0.000      0.000
REMARK  Name = 
REMARK  3 active torsions:
REMARK  status: ('A' for Active; 'I' for Inactive)
REMARK    1  A    between atoms: O_1  and  C_2
REMARK    2  A    between atoms: N_16  and  C_17
REMARK    3  A    between atoms: C_17  and  C_18
REMARK                            x       y       z     vdW  Elec       q    Type
REMARK                         _______ _______ _______ _____ _____    ______ ____
ROOT
ATOM      1  C   UNL     1       6.145   3.829  15.492  0.00  0.00    +0.000 A 
ATOM      2  C   UNL     1       7.167   4.408  16.233  0.00  0.00    +0.000 A 
ATOM      3  C   UNL     1       6.890   4.908  17.518  0.00  0.00    +0.000 A 
ATOM      4  C   UNL     1       5.594   4.850  18.071  0.00  0.00    +0.000 A 
ATOM      5  C   UNL     1       4.600   4.178  17.343  0.00  0.00    +0.000 A 
ATOM      6  C   UNL     1       4.884   3.691  16.047  0.00  0.00    +0.000 A 
ATOM      7  C   UNL     1       3.163   4.261  17.845  0.00  0.00    +0.000 C 
ATOM      8  C   UNL     1       2.342   3.014  17.404  0.00  0.00    +0.000 C 
ATOM      9  C   UNL     1       1.309   2.561  18.449  0.00  0.00    +0.000 C 
ATOM     10  C   UNL     1       1.918   2.372  19.858  0.00  0.00    +0.000 C 
ATOM     11  O   UNL     1       3.186   3.044  19.998  0.00  0.00    +0.000 OA
ATOM     12  C   UNL     1       3.036   4.312  19.374  0.00  0.00    +0.000 C 
ATOM     13  C   UNL     1       3.771   5.507  19.935  0.00  0.00    +0.000 C 
ATOM     14  C   UNL     1       5.259   5.541  19.392  0.00  0.00    +0.000 C 
ATOM     15  N   UNL     1       2.867   6.707  19.668  0.00  0.00    +0.000 NA
ATOM     16  C   UNL     1       2.154   6.592  18.333  0.00  0.00    +0.000 C 
ATOM     17  C   UNL     1       2.750   5.661  17.278  0.00  0.00    +0.000 C 
ENDROOT
BRANCH   1  18
ATOM     18  O   UNL     1       6.322   3.421  14.204  0.00  0.00    +0.000 OA
ATOM     19  H   UNL     1       5.478   3.085  13.864  0.00  0.00    +0.000 HD
ENDBRANCH   1  18
BRANCH  15  20
ATOM     20  C   UNL     1       1.705   6.816  20.639  0.00  0.00    +0.000 C 
BRANCH  20  21
ATOM     21  C   UNL     1       1.301   8.171  21.202  0.00  0.00    +0.000 C 
ATOM     22  C   UNL     1       0.953   9.347  20.255  0.00  0.00    +0.000 C 
ATOM     23  C   UNL     1      -0.224   9.677  21.207  0.00  0.00    +0.000 C 
ATOM     24  C   UNL     1      -0.219   8.191  21.597  0.00  0.00    +0.000 C 
ENDBRANCH  20  21
ENDBRANCH  15  20
TORSDOF 3
ENDMDL
MODEL 2
REMARK VINA RESULT:      -7.6      1.932      6.238
REMARK  Name = 
REMARK  3 active torsions:
REMARK  status: ('A' for Active; 'I' for Inactive)
REMARK    1  A    between atoms: O_1  and  C_2
REMARK    2  A    between atoms: N_16  and  C_17
REMARK    3  A    between atoms: C_17  and  C_18
REMARK                            x       y       z     vdW  Elec       q    Type
REMARK                         _______ _______ _______ _____ _____    ______ ____
ROOT
ATOM      1  C   UNL     1       1.219   8.449  21.104  0.00  0.00    +0.000 A 
ATOM      2  C   UNL     1       1.359   9.299  20.014  0.00  0.00    +0.000 A 
ATOM      3  C   UNL     1       1.833   8.784  18.794  0.00  0.00    +0.000 A 
ATOM      4  C   UNL     1       2.185   7.426  18.652  0.00  0.00    +0.000 A 
ATOM      5  C   UNL     1       1.948   6.570  19.737  0.00  0.00    +0.000 A 
ATOM      6  C   UNL     1       1.485   7.098  20.964  0.00  0.00    +0.000 A 
ATOM      7  C   UNL     1       2.484   5.145  19.659  0.00  0.00    +0.000 C 
ATOM      8  C   UNL     1       1.628   4.175  20.525  0.00  0.00    +0.000 C 
ATOM      9  C   UNL     1       1.486   2.772  19.912  0.00  0.00    +0.000 C 
ATOM     10  C   UNL     1       1.002   2.799  18.443  0.00  0.00    +0.000 C 
ATOM     11  O   UNL     1       1.187   4.093  17.834  0.00  0.00    +0.000 OA
ATOM     12  C   UNL     1       2.469   4.547  18.244  0.00  0.00    +0.000 C 
ATOM     13  C   UNL     1       3.296   5.386  17.298  0.00  0.00    +0.000 C 
ATOM     14  C   UNL     1       2.855   6.906  17.381  0.00  0.00    +0.000 C 
ATOM     15  N   UNL     1       4.750   5.029  17.598  0.00  0.00    +0.000 NA
ATOM     16  C   UNL     1       4.979   4.790  19.079  0.00  0.00    +0.000 C 
ATOM     17  C   UNL     1       3.976   5.385  20.067  0.00  0.00    +0.000 C 
ENDROOT
BRANCH   1  18
ATOM     18  O   UNL     1       0.866   8.905  22.340  0.00  0.00    +0.000 OA
ATOM     19  H   UNL     1       1.615   8.780  22.943  0.00  0.00    +0.000 HD
ENDBRANCH   1  18
BRANCH  15  20
ATOM     20  C   UNL     1       5.183   3.705  16.993  0.00  0.00    +0.000 C 
BRANCH  20  21
ATOM     21  C   UNL     1       6.027   3.681  15.726  0.00  0.00    +0.000 C 
ATOM     22  C   UNL     1       5.503   4.318  14.416  0.00  0.00    +0.000 C 
ATOM     23  C   UNL     1       6.928   4.888  14.202  0.00  0.00    +0.000 C 
ATOM     24  C   UNL     1       7.088   4.838  15.730  0.00  0.00    +0.000 C 
ENDBRANCH  20  21
ENDBRANCH  15  20
TORSDOF 3
ENDMDL
MODEL 3
REMARK VINA RESULT:      -7.4      1.178      1.391
REMARK  Name = 
REMARK  3 active torsions:
REMARK  status: ('A' for Active; 'I' for Inactive)
REMARK    1  A    between atoms: O_1  and  C_2
REMARK    2  A    between atoms: N_16  and  C_17
REMARK    3  A    between atoms: C_17  and  C_18
REMARK                            x       y       z     vdW  Elec       q    Type
REMARK                         _______ _______ _______ _____ _____    ______ ____
ROOT
ATOM      1  C   UNL     1       6.283   3.863  14.638  0.00  0.00    +0.000 A 
ATOM      2  C   UNL     1       7.105   4.945  14.927  0.00  0.00    +0.000 A 
ATOM      3  C   UNL     1       6.940   5.632  16.143  0.00  0.00    +0.000 A 
ATOM      4  C   UNL     1       5.948   5.261  17.073  0.00  0.00    +0.000 A 
ATOM      5  C   UNL     1       5.193   4.110  16.802  0.00  0.00    +0.000 A 
ATOM      6  C   UNL     1       5.356   3.433  15.572  0.00  0.00    +0.000 A 
ATOM      7  C   UNL     1       4.006   3.799  17.708  0.00  0.00    +0.000 C 
ATOM      8  C   UNL     1       3.709   2.271  17.739  0.00  0.00    +0.000 C 
ATOM      9  C   UNL     1       3.225   1.771  19.110  0.00  0.00    +0.000 C 
ATOM     10  C   UNL     1       4.155   2.193  20.272  0.00  0.00    +0.000 C 
ATOM     11  O   UNL     1       5.019   3.288  19.905  0.00  0.00    +0.000 OA
ATOM     12  C   UNL     1       4.215   4.203  19.174  0.00  0.00    +0.000 C 
ATOM     13  C   UNL     1       4.486   5.685  19.290  0.00  0.00    +0.000 C 
ATOM     14  C   UNL     1       5.659   6.108  18.312  0.00  0.00    +0.000 C 
ATOM     15  N   UNL     1       3.127   6.364  19.138  0.00  0.00    +0.000 NA
ATOM     16  C   UNL     1       2.249   5.651  18.126  0.00  0.00    +0.000 C 
ATOM     17  C   UNL     1       2.928   4.753  17.092  0.00  0.00    +0.000 C 
ENDROOT
BRANCH   1  18
ATOM     18  O   UNL     1       6.322   3.222  13.436  0.00  0.00    +0.000 OA
ATOM     19  H   UNL     1       6.126   3.862  12.735  0.00  0.00    +0.000 HD
ENDBRANCH   1  18
BRANCH  15  20
ATOM     20  C   UNL     1       2.277   6.300  20.395  0.00  0.00    +0.000 C 
BRANCH  20  21
ATOM     21  C   UNL     1       1.245   7.383  20.678  0.00  0.00    +0.000 C 
ATOM     22  C   UNL     1       1.473   8.415  21.809  0.00  0.00    +0.000 C 
ATOM     23  C   UNL     1       0.927   9.495  20.842  0.00  0.00    +0.000 C 
ATOM     24  C   UNL     1       1.411   8.595  19.694  0.00  0.00    +0.000 C 
ENDBRANCH  20  21
ENDBRANCH  15  20
TORSDOF 3
ENDMDL
MODEL 4
REMARK VINA RESULT:      -7.3      2.572      6.969
REMARK  Name = 
REMARK  3 active torsions:
REMARK  status: ('A' for Active; 'I' for Inactive)
REMARK    1  A    between atoms: O_1  and  C_2
REMARK    2  A    between atoms: N_16  and  C_17
REMARK    3  A    between atoms: C_17  and  C_18
REMARK                            x       y       z     vdW  Elec       q    Type
REMARK                         _______ _______ _______ _____ _____    ______ ____
ROOT
ATOM      1  C   UNL     1       2.260   6.005  20.049  0.00  0.00    +0.000 A 
ATOM      2  C   UNL     1       1.586   4.828  19.752  0.00  0.00    +0.000 A 
ATOM      3  C   UNL     1       2.143   3.927  18.827  0.00  0.00    +0.000 A 
ATOM      4  C   UNL     1       3.365   4.196  18.178  0.00  0.00    +0.000 A 
ATOM      5  C   UNL     1       4.073   5.345  18.562  0.00  0.00    +0.000 A 
ATOM      6  C   UNL     1       3.499   6.252  19.483  0.00  0.00    +0.000 A 
ATOM      7  C   UNL     1       5.301   5.738  17.749  0.00  0.00    +0.000 C 
ATOM      8  C   UNL     1       6.313   6.544  18.615  0.00  0.00    +0.000 C 
ATOM      9  C   UNL     1       7.783   6.251  18.269  0.00  0.00    +0.000 C 
ATOM     10  C   UNL     1       8.114   4.740  18.266  0.00  0.00    +0.000 C 
ATOM     11  O   UNL     1       6.929   3.924  18.168  0.00  0.00    +0.000 OA
ATOM     12  C   UNL     1       6.096   4.544  17.199  0.00  0.00    +0.000 C 
ATOM     13  C   UNL     1       5.229   3.686  16.308  0.00  0.00    +0.000 C 
ATOM     14  C   UNL     1       3.885   3.302  17.053  0.00  0.00    +0.000 C 
ATOM     15  N   UNL     1       5.140   4.434  14.980  0.00  0.00    +0.000 NA
ATOM     16  C   UNL     1       5.074   5.937  15.180  0.00  0.00    +0.000 C 
ATOM     17  C   UNL     1       4.616   6.461  16.541  0.00  0.00    +0.000 C 
ENDROOT
BRANCH   1  18
ATOM     18  O   UNL     1       1.725   6.965  20.855  0.00  0.00    +0.000 OA
ATOM     19  H   UNL     1       2.431   7.334  21.410  0.00  0.00    +0.000 HD
ENDBRANCH   1  18
BRANCH  15  20
ATOM     20  C   UNL     1       6.382   4.283  14.118  0.00  0.00    +0.000 C 
BRANCH  20  21
ATOM     21  C   UNL     1       6.256   3.881  12.656  0.00  0.00    +0.000 C 
ATOM     22  C   UNL     1       6.532   2.423  12.211  0.00  0.00    +0.000 C 
ATOM     23  C   UNL     1       5.294   2.542  11.288  0.00  0.00    +0.000 C 
ATOM     24  C   UNL     1       4.760   3.593  12.274  0.00  0.00    +0.000 C 
ENDBRANCH  20  21
ENDBRANCH  15  20
TORSDOF 3
ENDMDL
MODEL 5
REMARK VINA RESULT:      -7.1      1.939      2.657
REMARK  Name = 
REMARK  3 active torsions:
REMARK  status: ('A' for Active; 'I' for Inactive)
REMARK    1  A    between atoms: O_1  and  C_2
REMARK    2  A    between atoms: N_16  and  C_17
REMARK    3  A    between atoms: C_17  and  C_18
REMARK                            x       y       z     vdW  Elec       q    Type
REMARK                         _______ _______ _______ _____ _____    ______ ____
ROOT
ATOM      1  C   UNL     1       6.319   3.928  14.460  0.00  0.00    +0.000 A 
ATOM      2  C   UNL     1       7.092   5.040  14.771  0.00  0.00    +0.000 A 
ATOM      3  C   UNL     1       6.942   5.654  16.027  0.00  0.00    +0.000 A 
ATOM      4  C   UNL     1       6.015   5.179  16.977  0.00  0.00    +0.000 A 
ATOM      5  C   UNL     1       5.314   4.002  16.677  0.00  0.00    +0.000 A 
ATOM      6  C   UNL     1       5.460   3.399  15.407  0.00  0.00    +0.000 A 
ATOM      7  C   UNL     1       4.187   3.578  17.613  0.00  0.00    +0.000 C 
ATOM      8  C   UNL     1       3.978   2.036  17.576  0.00  0.00    +0.000 C 
ATOM      9  C   UNL     1       3.583   1.440  18.938  0.00  0.00    +0.000 C 
ATOM     10  C   UNL     1       4.539   1.856  20.080  0.00  0.00    +0.000 C 
ATOM     11  O   UNL     1       5.324   3.016  19.737  0.00  0.00    +0.000 OA
ATOM     12  C   UNL     1       4.439   3.919  19.089  0.00  0.00    +0.000 C 
ATOM     13  C   UNL     1       4.632   5.406  19.272  0.00  0.00    +0.000 C 
ATOM     14  C   UNL     1       5.735   5.945  18.270  0.00  0.00    +0.000 C 
ATOM     15  N   UNL     1       3.232   6.012  19.212  0.00  0.00    +0.000 NA
ATOM     16  C   UNL     1       2.351   5.301  18.201  0.00  0.00    +0.000 C 
ATOM     17  C   UNL     1       3.032   4.498  17.093  0.00  0.00    +0.000 C 
ENDROOT
BRANCH   1  18
ATOM     18  O   UNL     1       6.340   3.351  13.225  0.00  0.00    +0.000 OA
ATOM     19  H   UNL     1       6.490   2.398  13.329  0.00  0.00    +0.000 HD
ENDBRANCH   1  18
BRANCH  15  20
ATOM     20  C   UNL     1       2.443   5.836  20.498  0.00  0.00    +0.000 C 
BRANCH  20  21
ATOM     21  C   UNL     1       1.304   4.829  20.567  0.00  0.00    +0.000 C 
ATOM     22  C   UNL     1       1.098   3.792  19.435  0.00  0.00    +0.000 C 
ATOM     23  C   UNL     1       0.810   2.745  20.539  0.00  0.00    +0.000 C 
ATOM     24  C   UNL     1       1.687   3.601  21.466  0.00  0.00    +0.000 C 
ENDBRANCH  20  21
ENDBRANCH  15  20
TORSDOF 3
ENDMDL
MODEL 6
REMARK VINA RESULT:      -7.0      2.916      5.837
REMARK  Name = 
REMARK  3 active torsions:
REMARK  status: ('A' for Active; 'I' for Inactive)
REMARK    1  A    between atoms: O_1  and  C_2
REMARK    2  A    between atoms: N_16  and  C_17
REMARK    3  A    between atoms: C_17  and  C_18
REMARK                            x       y       z     vdW  Elec       q    Type
REMARK                         _______ _______ _______ _____ _____    ______ ____
ROOT
ATOM      1  C   UNL     1       2.424   2.773  18.025  0.00  0.00    +0.000 A 
ATOM      2  C   UNL     1       1.601   3.830  18.390  0.00  0.00    +0.000 A 
ATOM      3  C   UNL     1       2.055   5.150  18.219  0.00  0.00    +0.000 A 
ATOM      4  C   UNL     1       3.335   5.430  17.698  0.00  0.00    +0.000 A 
ATOM      5  C   UNL     1       4.111   4.350  17.250  0.00  0.00    +0.000 A 
ATOM      6  C   UNL     1       3.652   3.027  17.439  0.00  0.00    +0.000 A 
ATOM      7  C   UNL     1       5.557   4.621  16.851  0.00  0.00    +0.000 C 
ATOM      8  C   UNL     1       6.053   3.585  15.800  0.00  0.00    +0.000 C 
ATOM      9  C   UNL     1       7.018   4.181  14.762  0.00  0.00    +0.000 C 
ATOM     10  C   UNL     1       6.464   5.457  14.084  0.00  0.00    +0.000 C 
ATOM     11  O   UNL     1       5.388   6.050  14.839  0.00  0.00    +0.000 OA
ATOM     12  C   UNL     1       5.781   5.996  16.203  0.00  0.00    +0.000 C 
ATOM     13  C   UNL     1       5.363   7.105  17.140  0.00  0.00    +0.000 C 
ATOM     14  C   UNL     1       3.891   6.853  17.670  0.00  0.00    +0.000 C 
ATOM     15  N   UNL     1       6.494   7.231  18.157  0.00  0.00    +0.000 NA
ATOM     16  C   UNL     1       7.086   5.880  18.514  0.00  0.00    +0.000 C 
ATOM     17  C   UNL     1       6.238   4.634  18.261  0.00  0.00    +0.000 C 
ENDROOT
BRANCH   1  18
ATOM     18  O   UNL     1       2.086   1.474  18.261  0.00  0.00    +0.000 OA
ATOM     19  H   UNL     1       2.454   0.923  17.552  0.00  0.00    +0.000 HD
ENDBRANCH   1  18
BRANCH  15  20
ATOM     20  C   UNL     1       7.705   7.976  17.623  0.00  0.00    +0.000 C 
BRANCH  20  21
ATOM     21  C   UNL     1       8.034   9.372  18.134  0.00  0.00    +0.000 C 
ATOM     22  C   UNL     1       9.000   9.567  19.330  0.00  0.00    +0.000 C 
ATOM     23  C   UNL     1       9.618  10.753  18.548  0.00  0.00    +0.000 C 
ATOM     24  C   UNL     1       9.156  10.044  17.266  0.00  0.00    +0.000 C 
ENDBRANCH  20  21
ENDBRANCH  15  20
TORSDOF 3
ENDMDL
MODEL 7
REMARK VINA RESULT:      -6.7      2.856      4.766
REMARK  Name = 
REMARK  3 active torsions:
REMARK  status: ('A' for Active; 'I' for Inactive)
REMARK    1  A    between atoms: O_1  and  C_2
REMARK    2  A    between atoms: N_16  and  C_17
REMARK    3  A    between atoms: C_17  and  C_18
REMARK                            x       y       z     vdW  Elec       q    Type
REMARK                         _______ _______ _______ _____ _____    ______ ____
ROOT
ATOM      1  C   UNL     1       8.101   8.738  17.786  0.00  0.00    +0.000 A 
ATOM      2  C   UNL     1       8.690   8.195  18.921  0.00  0.00    +0.000 A 
ATOM      3  C   UNL     1       8.291   6.921  19.363  0.00  0.00    +0.000 A 
ATOM      4  C   UNL     1       7.294   6.184  18.692  0.00  0.00    +0.000 A 
ATOM      5  C   UNL     1       6.780   6.712  17.498  0.00  0.00    +0.000 A 
ATOM      6  C   UNL     1       7.177   7.999  17.068  0.00  0.00    +0.000 A 
ATOM      7  C   UNL     1       5.584   6.014  16.860  0.00  0.00    +0.000 C 
ATOM      8  C   UNL     1       5.556   6.244  15.320  0.00  0.00    +0.000 C 
ATOM      9  C   UNL     1       5.036   5.032  14.531  0.00  0.00    +0.000 C 
ATOM     10  C   UNL     1       5.762   3.715  14.895  0.00  0.00    +0.000 C 
ATOM     11  O   UNL     1       6.454   3.808  16.157  0.00  0.00    +0.000 OA
ATOM     12  C   UNL     1       5.577   4.490  17.043  0.00  0.00    +0.000 C 
ATOM     13  C   UNL     1       5.573   4.125  18.510  0.00  0.00    +0.000 C 
ATOM     14  C   UNL     1       6.743   4.879  19.267  0.00  0.00    +0.000 C 
ATOM     15  N   UNL     1       4.138   4.342  18.983  0.00  0.00    +0.000 NA
ATOM     16  C   UNL     1       3.500   5.548  18.318  0.00  0.00    +0.000 C 
ATOM     17  C   UNL     1       4.421   6.611  17.721  0.00  0.00    +0.000 C 
ENDROOT
BRANCH   1  18
ATOM     18  O   UNL     1       8.367  10.007  17.366  0.00  0.00    +0.000 OA
ATOM     19  H   UNL     1       9.306  10.066  17.129  0.00  0.00    +0.000 HD
ENDBRANCH   1  18
BRANCH  15  20
ATOM     20  C   UNL     1       3.195   3.222  18.580  0.00  0.00    +0.000 C 
BRANCH  20  21
ATOM     21  C   UNL     1       2.371   2.497  19.634  0.00  0.00    +0.000 C 
ATOM     22  C   UNL     1       2.773   2.557  21.129  0.00  0.00    +0.000 C 
ATOM     23  C   UNL     1       1.269   2.731  21.457  0.00  0.00    +0.000 C 
ATOM     24  C   UNL     1       1.118   3.344  20.056  0.00  0.00    +0.000 C 
ENDBRANCH  20  21
ENDBRANCH  15  20
TORSDOF 3
ENDMDL
MODEL 8
REMARK VINA RESULT:      -6.4      2.532      6.963
REMARK  Name = 
REMARK  3 active torsions:
REMARK  status: ('A' for Active; 'I' for Inactive)
REMARK    1  A    between atoms: O_1  and  C_2
REMARK    2  A    between atoms: N_16  and  C_17
REMARK    3  A    between atoms: C_17  and  C_18
REMARK                            x       y       z     vdW  Elec       q    Type
REMARK                         _______ _______ _______ _____ _____    ______ ____
ROOT
ATOM      1  C   UNL     1       2.148   6.327  20.214  0.00  0.00    +0.000 A 
ATOM      2  C   UNL     1       1.531   5.085  20.133  0.00  0.00    +0.000 A 
ATOM      3  C   UNL     1       2.124   4.069  19.363  0.00  0.00    +0.000 A 
ATOM      4  C   UNL     1       3.325   4.283  18.655  0.00  0.00    +0.000 A 
ATOM      5  C   UNL     1       3.977   5.514  18.826  0.00  0.00    +0.000 A 
ATOM      6  C   UNL     1       3.367   6.534  19.592  0.00  0.00    +0.000 A 
ATOM      7  C   UNL     1       5.175   5.822  17.936  0.00  0.00    +0.000 C 
ATOM      8  C   UNL     1       6.153   6.811  18.635  0.00  0.00    +0.000 C 
ATOM      9  C   UNL     1       7.632   6.535  18.315  0.00  0.00    +0.000 C 
ATOM     10  C   UNL     1       8.040   5.063  18.561  0.00  0.00    +0.000 C 
ATOM     11  O   UNL     1       6.897   4.186  18.624  0.00  0.00    +0.000 OA
ATOM     12  C   UNL     1       6.024   4.593  17.581  0.00  0.00    +0.000 C 
ATOM     13  C   UNL     1       5.192   3.555  16.862  0.00  0.00    +0.000 C 
ATOM     14  C   UNL     1       3.877   3.238  17.687  0.00  0.00    +0.000 C 
ATOM     15  N   UNL     1       5.052   4.062  15.429  0.00  0.00    +0.000 NA
ATOM     16  C   UNL     1       4.912   5.573  15.375  0.00  0.00    +0.000 C 
ATOM     17  C   UNL     1       4.442   6.297  16.636  0.00  0.00    +0.000 C 
ENDROOT
BRANCH   1  18
ATOM     18  O   UNL     1       1.573   7.383  20.857  0.00  0.00    +0.000 OA
ATOM     19  H   UNL     1       0.746   7.085  21.267  0.00  0.00    +0.000 HD
ENDBRANCH   1  18
BRANCH  15  20
ATOM     20  C   UNL     1       6.291   3.828  14.583  0.00  0.00    +0.000 C 
BRANCH  20  21
ATOM     21  C   UNL     1       6.416   4.477  13.212  0.00  0.00    +0.000 C 
ATOM     22  C   UNL     1       7.787   4.988  12.703  0.00  0.00    +0.000 C 
ATOM     23  C   UNL     1       7.421   4.390  11.322  0.00  0.00    +0.000 C 
ATOM     24  C   UNL     1       6.528   3.395  12.080  0.00  0.00    +0.000 C 
ENDBRANCH  20  21
ENDBRANCH  15  20
TORSDOF 3
ENDMDL
MODEL 9
REMARK VINA RESULT:      -6.3      3.111      5.357
REMARK  Name = 
REMARK  3 active torsions:
REMARK  status: ('A' for Active; 'I' for Inactive)
REMARK    1  A    between atoms: O_1  and  C_2
REMARK    2  A    between atoms: N_16  and  C_17
REMARK    3  A    between atoms: C_17  and  C_18
REMARK                            x       y       z     vdW  Elec       q    Type
REMARK                         _______ _______ _______ _____ _____    ______ ____
ROOT
ATOM      1  C   UNL     1       8.031   9.591  17.778  0.00  0.00    +0.000 A 
ATOM      2  C   UNL     1       8.871   9.180  18.804  0.00  0.00    +0.000 A 
ATOM      3  C   UNL     1       8.818   7.847  19.248  0.00  0.00    +0.000 A 
ATOM      4  C   UNL     1       7.919   6.917  18.688  0.00  0.00    +0.000 A 
ATOM      5  C   UNL     1       7.147   7.329  17.592  0.00  0.00    +0.000 A 
ATOM      6  C   UNL     1       7.197   8.674  17.160  0.00  0.00    +0.000 A 
ATOM      7  C   UNL     1       6.051   6.393  17.092  0.00  0.00    +0.000 C 
ATOM      8  C   UNL     1       5.765   6.623  15.579  0.00  0.00    +0.000 C 
ATOM      9  C   UNL     1       5.413   5.332  14.821  0.00  0.00    +0.000 C 
ATOM     10  C   UNL     1       6.447   4.202  15.039  0.00  0.00    +0.000 C 
ATOM     11  O   UNL     1       7.268   4.433  16.201  0.00  0.00    +0.000 OA
ATOM     12  C   UNL     1       6.396   4.902  17.220  0.00  0.00    +0.000 C 
ATOM     13  C   UNL     1       6.670   4.535  18.659  0.00  0.00    +0.000 C 
ATOM     14  C   UNL     1       7.744   5.520  19.282  0.00  0.00    +0.000 C 
ATOM     15  N   UNL     1       5.300   4.433  19.325  0.00  0.00    +0.000 NA
ATOM     16  C   UNL     1       4.334   5.476  18.794  0.00  0.00    +0.000 C 
ATOM     17  C   UNL     1       4.917   6.718  18.121  0.00  0.00    +0.000 C 
ENDROOT
BRANCH   1  18
ATOM     18  O   UNL     1       7.959  10.891  17.373  0.00  0.00    +0.000 OA
ATOM     19  H   UNL     1       7.034  11.104  17.174  0.00  0.00    +0.000 HD
ENDBRANCH   1  18
BRANCH  15  20
ATOM     20  C   UNL     1       4.572   3.138  19.009  0.00  0.00    +0.000 C 
BRANCH  20  21
ATOM     21  C   UNL     1       3.088   3.156  18.671  0.00  0.00    +0.000 C 
ATOM     22  C   UNL     1       2.457   2.020  17.828  0.00  0.00    +0.000 C 
ATOM     23  C   UNL     1       1.252   2.060  18.801  0.00  0.00    +0.000 C 
ATOM     24  C   UNL     1       2.229   2.596  19.859  0.00  0.00    +0.000 C 
ENDBRANCH  20  21
ENDBRANCH  15  20
TORSDOF 3
ENDMDL
