MODEL 1
REMARK VINA RESULT:      -7.7      0.000      0.000
REMARK  Name = 
REMARK  3 active torsions:
REMARK  status: ('A' for Active; 'I' for Inactive)
REMARK    1  A    between atoms: C_1  and  C_2
REMARK    2  A    between atoms: C_2  and  C_5
REMARK    3  A    between atoms: C_9  and  C_10
REMARK                            x       y       z     vdW  Elec       q    Type
REMARK                         _______ _______ _______ _____ _____    ______ ____
ROOT
ATOM      1  C   UNL     1       5.086   5.059  16.933  0.00  0.00    +0.000 A 
ATOM      2  N   UNL     1       4.617   6.260  16.697  0.00  0.00    +0.000 NA
ATOM      3  N   UNL     1       3.801   6.544  17.735  0.00  0.00    +0.000 N 
ATOM      4  C   UNL     1       3.067   7.643  18.035  0.00  0.00    +0.000 A 
ATOM      5  C   UNL     1       2.489   7.335  19.255  0.00  0.00    +0.000 A 
ATOM      6  N   UNL     1       2.849   6.071  19.698  0.00  0.00    +0.000 NA
ATOM      7  C   UNL     1       3.623   5.648  18.737  0.00  0.00    +0.000 A 
ATOM      8  S   UNL     1       4.524   4.231  18.419  0.00  0.00    +0.000 S 
ENDROOT
BRANCH   5   9
ATOM      9  C   UNL     1       1.591   8.250  20.001  0.00  0.00    +0.000 A 
ATOM     10  C   UNL     1       1.019   9.402  19.499  0.00  0.00    +0.000 A 
ATOM     11  C   UNL     1       0.261   9.978  20.552  0.00  0.00    +0.000 A 
ATOM     12  C   UNL     1      -0.537  11.125  20.706  0.00  0.00    +0.000 A 
ATOM     13  C   UNL     1      -1.107  11.374  21.962  0.00  0.00    +0.000 A 
ATOM     14 CL   UNL     1      -2.075  12.782  22.182  0.00  0.00    +0.000 Cl
ATOM     15  C   UNL     1      -0.901  10.510  23.041  0.00  0.00    +0.000 A 
ATOM     16  C   UNL     1      -0.128   9.352  22.898  0.00  0.00    +0.000 A 
ATOM     17  C   UNL     1       0.429   9.131  21.640  0.00  0.00    +0.000 A 
ATOM     18  O   UNL     1       1.216   8.075  21.304  0.00  0.00    +0.000 OA
ENDBRANCH   5   9
BRANCH   1  20
ATOM     19  C   UNL     1       6.187   4.916  14.671  0.00  0.00    +0.000 C 
ATOM     20  C   UNL     1       6.073   4.312  16.058  0.00  0.00    +0.000 C 
ATOM     21  F   UNL     1       5.719   3.000  15.920  0.00  0.00    +0.000 F 
ATOM     22  F   UNL     1       7.320   4.302  16.614  0.00  0.00    +0.000 F 
ENDBRANCH   1  20
TORSDOF 2
ENDMDL
MODEL 2
REMARK VINA RESULT:      -7.5      0.925      1.455
REMARK  Name = 
REMARK  3 active torsions:
REMARK  status: ('A' for Active; 'I' for Inactive)
REMARK    1  A    between atoms: C_1  and  C_2
REMARK    2  A    between atoms: C_2  and  C_5
REMARK    3  A    between atoms: C_9  and  C_10
REMARK                            x       y       z     vdW  Elec       q    Type
REMARK                         _______ _______ _______ _____ _____    ______ ____
ROOT
ATOM      1  C   UNL     1       5.302   5.023  16.531  0.00  0.00    +0.000 A 
ATOM      2  N   UNL     1       5.031   6.298  16.392  0.00  0.00    +0.000 NA
ATOM      3  N   UNL     1       4.095   6.576  17.326  0.00  0.00    +0.000 N 
ATOM      4  C   UNL     1       3.462   7.728  17.658  0.00  0.00    +0.000 A 
ATOM      5  C   UNL     1       2.657   7.369  18.725  0.00  0.00    +0.000 A 
ATOM      6  N   UNL     1       2.779   6.024  19.042  0.00  0.00    +0.000 NA
ATOM      7  C   UNL     1       3.644   5.607  18.160  0.00  0.00    +0.000 A 
ATOM      8  S   UNL     1       4.403   4.121  17.792  0.00  0.00    +0.000 S 
ENDROOT
BRANCH   5   9
ATOM      9  C   UNL     1       1.766   8.312  19.446  0.00  0.00    +0.000 A 
ATOM     10  C   UNL     1       1.411   8.225  20.777  0.00  0.00    +0.000 A 
ATOM     11  C   UNL     1       0.532   9.307  21.040  0.00  0.00    +0.000 A 
ATOM     12  C   UNL     1      -0.176   9.779  22.160  0.00  0.00    +0.000 A 
ATOM     13  C   UNL     1      -1.000  10.901  21.999  0.00  0.00    +0.000 A 
ATOM     14 CL   UNL     1      -1.892  11.489  23.352  0.00  0.00    +0.000 Cl
ATOM     15  C   UNL     1      -1.120  11.549  20.767  0.00  0.00    +0.000 A 
ATOM     16  C   UNL     1      -0.405  11.106  19.649  0.00  0.00    +0.000 A 
ATOM     17  C   UNL     1       0.403   9.986  19.835  0.00  0.00    +0.000 A 
ATOM     18  O   UNL     1       1.165   9.399  18.875  0.00  0.00    +0.000 OA
ENDBRANCH   5   9
BRANCH   1  20
ATOM     19  C   UNL     1       6.558   4.858  14.353  0.00  0.00    +0.000 C 
ATOM     20  C   UNL     1       6.321   4.247  15.721  0.00  0.00    +0.000 C 
ATOM     21  F   UNL     1       5.929   2.951  15.543  0.00  0.00    +0.000 F 
ATOM     22  F   UNL     1       7.524   4.184  16.366  0.00  0.00    +0.000 F 
ENDBRANCH   1  20
TORSDOF 2
ENDMDL
MODEL 3
REMARK VINA RESULT:      -7.4      5.708      8.707
REMARK  Name = 
REMARK  3 active torsions:
REMARK  status: ('A' for Active; 'I' for Inactive)
REMARK    1  A    between atoms: C_1  and  C_2
REMARK    2  A    between atoms: C_2  and  C_5
REMARK    3  A    between atoms: C_9  and  C_10
REMARK                            x       y       z     vdW  Elec       q    Type
REMARK                         _______ _______ _______ _____ _____    ______ ____
ROOT
ATOM      1  C   UNL     1      -0.555  10.843  21.772  0.00  0.00    +0.000 A 
ATOM      2  N   UNL     1      -0.011  10.931  20.581  0.00  0.00    +0.000 NA
ATOM      3  N   UNL     1       0.649   9.768  20.395  0.00  0.00    +0.000 N 
ATOM      4  C   UNL     1       1.370   9.293  19.350  0.00  0.00    +0.000 A 
ATOM      5  C   UNL     1       1.747   8.024  19.754  0.00  0.00    +0.000 A 
ATOM      6  N   UNL     1       1.278   7.720  21.023  0.00  0.00    +0.000 NA
ATOM      7  C   UNL     1       0.642   8.809  21.354  0.00  0.00    +0.000 A 
ATOM      8  S   UNL     1      -0.253   9.346  22.708  0.00  0.00    +0.000 S 
ENDROOT
BRANCH   5   9
ATOM      9  C   UNL     1       2.556   7.096  18.926  0.00  0.00    +0.000 A 
ATOM     10  C   UNL     1       3.435   7.469  17.928  0.00  0.00    +0.000 A 
ATOM     11  C   UNL     1       3.969   6.272  17.383  0.00  0.00    +0.000 A 
ATOM     12  C   UNL     1       4.885   5.951  16.365  0.00  0.00    +0.000 A 
ATOM     13  C   UNL     1       5.128   4.598  16.094  0.00  0.00    +0.000 A 
ATOM     14 CL   UNL     1       6.233   4.178  14.840  0.00  0.00    +0.000 Cl
ATOM     15  C   UNL     1       4.491   3.583  16.811  0.00  0.00    +0.000 A 
ATOM     16  C   UNL     1       3.594   3.886  17.842  0.00  0.00    +0.000 A 
ATOM     17  C   UNL     1       3.367   5.238  18.089  0.00  0.00    +0.000 A 
ATOM     18  O   UNL     1       2.528   5.735  19.035  0.00  0.00    +0.000 OA
ENDBRANCH   5   9
BRANCH   1  20
ATOM     19  C   UNL     1      -2.377  12.550  21.434  0.00  0.00    +0.000 C 
ATOM     20  C   UNL     1      -1.426  11.900  22.421  0.00  0.00    +0.000 C 
ATOM     21  F   UNL     1      -0.670  12.884  22.990  0.00  0.00    +0.000 F 
ATOM     22  F   UNL     1      -2.172  11.372  23.436  0.00  0.00    +0.000 F 
ENDBRANCH   1  20
TORSDOF 2
ENDMDL
MODEL 4
REMARK VINA RESULT:      -7.3      5.795      8.822
REMARK  Name = 
REMARK  3 active torsions:
REMARK  status: ('A' for Active; 'I' for Inactive)
REMARK    1  A    between atoms: C_1  and  C_2
REMARK    2  A    between atoms: C_2  and  C_5
REMARK    3  A    between atoms: C_9  and  C_10
REMARK                            x       y       z     vdW  Elec       q    Type
REMARK                         _______ _______ _______ _____ _____    ______ ____
ROOT
ATOM      1  C   UNL     1      -0.777  11.021  21.770  0.00  0.00    +0.000 A 
ATOM      2  N   UNL     1      -0.292   9.853  22.116  0.00  0.00    +0.000 NA
ATOM      3  N   UNL     1       0.388   9.406  21.038  0.00  0.00    +0.000 N 
ATOM      4  C   UNL     1       1.106   8.276  20.826  0.00  0.00    +0.000 A 
ATOM      5  C   UNL     1       1.594   8.429  19.540  0.00  0.00    +0.000 A 
ATOM      6  N   UNL     1       1.182   9.621  18.963  0.00  0.00    +0.000 NA
ATOM      7  C   UNL     1       0.454  10.150  19.907  0.00  0.00    +0.000 A 
ATOM      8  S   UNL     1      -0.437  11.595  20.107  0.00  0.00    +0.000 S 
ENDROOT
BRANCH   5   9
ATOM      9  C   UNL     1       2.458   7.434  18.857  0.00  0.00    +0.000 A 
ATOM     10  C   UNL     1       3.329   7.702  17.819  0.00  0.00    +0.000 A 
ATOM     11  C   UNL     1       3.927   6.468  17.455  0.00  0.00    +0.000 A 
ATOM     12  C   UNL     1       4.869   6.050  16.498  0.00  0.00    +0.000 A 
ATOM     13  C   UNL     1       5.182   4.686  16.426  0.00  0.00    +0.000 A 
ATOM     14 CL   UNL     1       6.320   4.147  15.250  0.00  0.00    +0.000 Cl
ATOM     15  C   UNL     1       4.587   3.754  17.281  0.00  0.00    +0.000 A 
ATOM     16  C   UNL     1       3.665   4.157  18.253  0.00  0.00    +0.000 A 
ATOM     17  C   UNL     1       3.369   5.517  18.301  0.00  0.00    +0.000 A 
ATOM     18  O   UNL     1       2.496   6.102  19.162  0.00  0.00    +0.000 OA
ENDBRANCH   5   9
BRANCH   1  20
ATOM     19  C   UNL     1      -2.657  12.694  21.890  0.00  0.00    +0.000 C 
ATOM     20  C   UNL     1      -1.596  11.933  22.661  0.00  0.00    +0.000 C 
ATOM     21  F   UNL     1      -0.803  12.842  23.301  0.00  0.00    +0.000 F 
ATOM     22  F   UNL     1      -2.222  11.228  23.650  0.00  0.00    +0.000 F 
ENDBRANCH   1  20
TORSDOF 2
ENDMDL
MODEL 5
REMARK VINA RESULT:      -7.3      1.078      1.199
REMARK  Name = 
REMARK  3 active torsions:
REMARK  status: ('A' for Active; 'I' for Inactive)
REMARK    1  A    between atoms: C_1  and  C_2
REMARK    2  A    between atoms: C_2  and  C_5
REMARK    3  A    between atoms: C_9  and  C_10
REMARK                            x       y       z     vdW  Elec       q    Type
REMARK                         _______ _______ _______ _____ _____    ______ ____
ROOT
ATOM      1  C   UNL     1       5.510   5.359  15.859  0.00  0.00    +0.000 A 
ATOM      2  N   UNL     1       5.283   6.646  15.965  0.00  0.00    +0.000 NA
ATOM      3  N   UNL     1       4.321   6.771  16.906  0.00  0.00    +0.000 N 
ATOM      4  C   UNL     1       3.711   7.857  17.439  0.00  0.00    +0.000 A 
ATOM      5  C   UNL     1       2.855   7.327  18.388  0.00  0.00    +0.000 A 
ATOM      6  N   UNL     1       2.924   5.943  18.437  0.00  0.00    +0.000 NA
ATOM      7  C   UNL     1       3.809   5.675  17.517  0.00  0.00    +0.000 A 
ATOM      8  S   UNL     1       4.536   4.262  16.888  0.00  0.00    +0.000 S 
ENDROOT
BRANCH   5   9
ATOM      9  C   UNL     1       1.967   8.143  19.252  0.00  0.00    +0.000 A 
ATOM     10  C   UNL     1       1.275   9.271  18.856  0.00  0.00    +0.000 A 
ATOM     11  C   UNL     1       0.578   9.748  19.997  0.00  0.00    +0.000 A 
ATOM     12  C   UNL     1      -0.280  10.827  20.273  0.00  0.00    +0.000 A 
ATOM     13  C   UNL     1      -0.750  10.982  21.584  0.00  0.00    +0.000 A 
ATOM     14 CL   UNL     1      -1.788  12.307  21.953  0.00  0.00    +0.000 Cl
ATOM     15  C   UNL     1      -0.390  10.092  22.599  0.00  0.00    +0.000 A 
ATOM     16  C   UNL     1       0.445   9.000  22.336  0.00  0.00    +0.000 A 
ATOM     17  C   UNL     1       0.901   8.871  21.025  0.00  0.00    +0.000 A 
ATOM     18  O   UNL     1       1.724   7.890  20.572  0.00  0.00    +0.000 OA
ENDBRANCH   5   9
BRANCH   1  20
ATOM     19  C   UNL     1       5.904   3.771  13.943  0.00  0.00    +0.000 C 
ATOM     20  C   UNL     1       6.535   4.720  14.944  0.00  0.00    +0.000 C 
ATOM     21  F   UNL     1       7.469   4.023  15.656  0.00  0.00    +0.000 F 
ATOM     22  F   UNL     1       7.233   5.663  14.245  0.00  0.00    +0.000 F 
ENDBRANCH   1  20
TORSDOF 2
ENDMDL
MODEL 6
REMARK VINA RESULT:      -7.1      5.628      8.688
REMARK  Name = 
REMARK  3 active torsions:
REMARK  status: ('A' for Active; 'I' for Inactive)
REMARK    1  A    between atoms: C_1  and  C_2
REMARK    2  A    between atoms: C_2  and  C_5
REMARK    3  A    between atoms: C_9  and  C_10
REMARK                            x       y       z     vdW  Elec       q    Type
REMARK                         _______ _______ _______ _____ _____    ______ ____
ROOT
ATOM      1  C   UNL     1      -0.289  10.849  21.061  0.00  0.00    +0.000 A 
ATOM      2  N   UNL     1       0.204  10.890  19.847  0.00  0.00    +0.000 NA
ATOM      3  N   UNL     1       0.928   9.758  19.709  0.00  0.00    +0.000 N 
ATOM      4  C   UNL     1       1.638   9.259  18.668  0.00  0.00    +0.000 A 
ATOM      5  C   UNL     1       2.106   8.043  19.136  0.00  0.00    +0.000 A 
ATOM      6  N   UNL     1       1.703   7.797  20.440  0.00  0.00    +0.000 NA
ATOM      7  C   UNL     1       1.014   8.866  20.726  0.00  0.00    +0.000 A 
ATOM      8  S   UNL     1       0.137   9.437  22.078  0.00  0.00    +0.000 S 
ENDROOT
BRANCH   5   9
ATOM      9  C   UNL     1       2.940   7.112  18.337  0.00  0.00    +0.000 A 
ATOM     10  C   UNL     1       3.834   7.479  17.350  0.00  0.00    +0.000 A 
ATOM     11  C   UNL     1       4.390   6.280  16.833  0.00  0.00    +0.000 A 
ATOM     12  C   UNL     1       5.328   5.954  15.837  0.00  0.00    +0.000 A 
ATOM     13  C   UNL     1       5.590   4.600  15.590  0.00  0.00    +0.000 A 
ATOM     14 CL   UNL     1       6.722   4.174  14.363  0.00  0.00    +0.000 Cl
ATOM     15  C   UNL     1       4.950   3.589  16.311  0.00  0.00    +0.000 A 
ATOM     16  C   UNL     1       4.030   3.897  17.320  0.00  0.00    +0.000 A 
ATOM     17  C   UNL     1       3.786   5.250  17.542  0.00  0.00    +0.000 A 
ATOM     18  O   UNL     1       2.924   5.752  18.466  0.00  0.00    +0.000 OA
ENDBRANCH   5   9
BRANCH   1  20
ATOM     19  C   UNL     1      -1.616  11.536  23.089  0.00  0.00    +0.000 C 
ATOM     20  C   UNL     1      -1.200  11.893  21.676  0.00  0.00    +0.000 C 
ATOM     21  F   UNL     1      -2.332  12.063  20.931  0.00  0.00    +0.000 F 
ATOM     22  F   UNL     1      -0.595  13.118  21.713  0.00  0.00    +0.000 F 
ENDBRANCH   1  20
TORSDOF 2
ENDMDL
MODEL 7
REMARK VINA RESULT:      -7.0      6.237      9.092
REMARK  Name = 
REMARK  3 active torsions:
REMARK  status: ('A' for Active; 'I' for Inactive)
REMARK    1  A    between atoms: C_1  and  C_2
REMARK    2  A    between atoms: C_2  and  C_5
REMARK    3  A    between atoms: C_9  and  C_10
REMARK                            x       y       z     vdW  Elec       q    Type
REMARK                         _______ _______ _______ _____ _____    ______ ____
ROOT
ATOM      1  C   UNL     1      -1.325  12.181  22.490  0.00  0.00    +0.000 A 
ATOM      2  N   UNL     1      -0.530  11.264  22.987  0.00  0.00    +0.000 NA
ATOM      3  N   UNL     1      -0.107  10.536  21.932  0.00  0.00    +0.000 N 
ATOM      4  C   UNL     1       0.739   9.481  21.841  0.00  0.00    +0.000 A 
ATOM      5  C   UNL     1       0.799   9.218  20.483  0.00  0.00    +0.000 A 
ATOM      6  N   UNL     1       0.002  10.083  19.749  0.00  0.00    +0.000 NA
ATOM      7  C   UNL     1      -0.521  10.836  20.676  0.00  0.00    +0.000 A 
ATOM      8  S   UNL     1      -1.598  12.163  20.719  0.00  0.00    +0.000 S 
ENDROOT
BRANCH   5   9
ATOM      9  C   UNL     1       1.620   8.137  19.884  0.00  0.00    +0.000 A 
ATOM     10  C   UNL     1       2.225   8.181  18.643  0.00  0.00    +0.000 A 
ATOM     11  C   UNL     1       2.881   6.936  18.461  0.00  0.00    +0.000 A 
ATOM     12  C   UNL     1       3.654   6.345  17.445  0.00  0.00    +0.000 A 
ATOM     13  C   UNL     1       4.107   5.033  17.635  0.00  0.00    +0.000 A 
ATOM     14 CL   UNL     1       5.040   4.279  16.398  0.00  0.00    +0.000 Cl
ATOM     15  C   UNL     1       3.813   4.320  18.800  0.00  0.00    +0.000 A 
ATOM     16  C   UNL     1       3.065   4.902  19.830  0.00  0.00    +0.000 A 
ATOM     17  C   UNL     1       2.624   6.205  19.614  0.00  0.00    +0.000 A 
ATOM     18  O   UNL     1       1.879   6.937  20.483  0.00  0.00    +0.000 OA
ENDBRANCH   5   9
BRANCH   1  20
ATOM     19  C   UNL     1      -2.686  14.299  22.396  0.00  0.00    +0.000 C 
ATOM     20  C   UNL     1      -2.028  13.262  23.286  0.00  0.00    +0.000 C 
ATOM     21  F   UNL     1      -1.159  13.909  24.117  0.00  0.00    +0.000 F 
ATOM     22  F   UNL     1      -2.991  12.734  24.097  0.00  0.00    +0.000 F 
ENDBRANCH   1  20
TORSDOF 2
ENDMDL
MODEL 8
REMARK VINA RESULT:      -7.0      1.071      1.614
REMARK  Name = 
REMARK  3 active torsions:
REMARK  status: ('A' for Active; 'I' for Inactive)
REMARK    1  A    between atoms: C_1  and  C_2
REMARK    2  A    between atoms: C_2  and  C_5
REMARK    3  A    between atoms: C_9  and  C_10
REMARK                            x       y       z     vdW  Elec       q    Type
REMARK                         _______ _______ _______ _____ _____    ______ ____
ROOT
ATOM      1  C   UNL     1       4.499   5.341  17.423  0.00  0.00    +0.000 A 
ATOM      2  N   UNL     1       4.115   6.544  17.070  0.00  0.00    +0.000 NA
ATOM      3  N   UNL     1       3.272   6.957  18.040  0.00  0.00    +0.000 N 
ATOM      4  C   UNL     1       2.593   8.117  18.216  0.00  0.00    +0.000 A 
ATOM      5  C   UNL     1       1.943   7.942  19.426  0.00  0.00    +0.000 A 
ATOM      6  N   UNL     1       2.205   6.700  19.984  0.00  0.00    +0.000 NA
ATOM      7  C   UNL     1       2.994   6.158  19.099  0.00  0.00    +0.000 A 
ATOM      8  S   UNL     1       3.821   4.670  18.939  0.00  0.00    +0.000 S 
ENDROOT
BRANCH   5   9
ATOM      9  C   UNL     1       1.069   8.965  20.052  0.00  0.00    +0.000 A 
ATOM     10  C   UNL     1       0.756   9.041  21.395  0.00  0.00    +0.000 A 
ATOM     11  C   UNL     1      -0.123  10.145  21.550  0.00  0.00    +0.000 A 
ATOM     12  C   UNL     1      -0.798  10.750  22.625  0.00  0.00    +0.000 A 
ATOM     13  C   UNL     1      -1.636  11.840  22.353  0.00  0.00    +0.000 A 
ATOM     14 CL   UNL     1      -2.489  12.588  23.650  0.00  0.00    +0.000 Cl
ATOM     15  C   UNL     1      -1.800  12.330  21.055  0.00  0.00    +0.000 A 
ATOM     16  C   UNL     1      -1.117  11.753  19.978  0.00  0.00    +0.000 A 
ATOM     17  C   UNL     1      -0.294  10.669  20.275  0.00  0.00    +0.000 A 
ATOM     18  O   UNL     1       0.441   9.969  19.371  0.00  0.00    +0.000 OA
ENDBRANCH   5   9
BRANCH   1  20
ATOM     19  C   UNL     1       5.678   4.941  15.232  0.00  0.00    +0.000 C 
ATOM     20  C   UNL     1       5.478   4.471  16.660  0.00  0.00    +0.000 C 
ATOM     21  F   UNL     1       5.060   3.171  16.622  0.00  0.00    +0.000 F 
ATOM     22  F   UNL     1       6.701   4.448  17.268  0.00  0.00    +0.000 F 
ENDBRANCH   1  20
TORSDOF 2
ENDMDL
MODEL 9
REMARK VINA RESULT:      -7.0      1.090      1.280
REMARK  Name = 
REMARK  3 active torsions:
REMARK  status: ('A' for Active; 'I' for Inactive)
REMARK    1  A    between atoms: C_1  and  C_2
REMARK    2  A    between atoms: C_2  and  C_5
REMARK    3  A    between atoms: C_9  and  C_10
REMARK                            x       y       z     vdW  Elec       q    Type
REMARK                         _______ _______ _______ _____ _____    ______ ____
ROOT
ATOM      1  C   UNL     1       5.001   5.002  16.454  0.00  0.00    +0.000 A 
ATOM      2  N   UNL     1       4.186   4.690  17.432  0.00  0.00    +0.000 NA
ATOM      3  N   UNL     1       3.666   5.861  17.861  0.00  0.00    +0.000 N 
ATOM      4  C   UNL     1       2.760   6.149  18.826  0.00  0.00    +0.000 A 
ATOM      5  C   UNL     1       2.611   7.523  18.745  0.00  0.00    +0.000 A 
ATOM      6  N   UNL     1       3.413   8.076  17.757  0.00  0.00    +0.000 NA
ATOM      7  C   UNL     1       4.027   7.030  17.278  0.00  0.00    +0.000 A 
ATOM      8  S   UNL     1       5.175   6.738  16.046  0.00  0.00    +0.000 S 
ENDROOT
BRANCH   5   9
ATOM      9  C   UNL     1       1.700   8.311  19.611  0.00  0.00    +0.000 A 
ATOM     10  C   UNL     1       0.940   9.391  19.206  0.00  0.00    +0.000 A 
ATOM     11  C   UNL     1       0.244   9.856  20.352  0.00  0.00    +0.000 A 
ATOM     12  C   UNL     1      -0.664  10.895  20.625  0.00  0.00    +0.000 A 
ATOM     13  C   UNL     1      -1.111  11.056  21.943  0.00  0.00    +0.000 A 
ATOM     14 CL   UNL     1      -2.211  12.332  22.306  0.00  0.00    +0.000 Cl
ATOM     15  C   UNL     1      -0.681  10.211  22.969  0.00  0.00    +0.000 A 
ATOM     16  C   UNL     1       0.205   9.159  22.710  0.00  0.00    +0.000 A 
ATOM     17  C   UNL     1       0.637   9.024  21.392  0.00  0.00    +0.000 A 
ATOM     18  O   UNL     1       1.501   8.077  20.942  0.00  0.00    +0.000 OA
ENDBRANCH   5   9
BRANCH   1  20
ATOM     19  C   UNL     1       5.441   4.061  14.159  0.00  0.00    +0.000 C 
ATOM     20  C   UNL     1       5.805   4.015  15.630  0.00  0.00    +0.000 C 
ATOM     21  F   UNL     1       5.621   2.736  16.072  0.00  0.00    +0.000 F 
ATOM     22  F   UNL     1       7.145   4.255  15.738  0.00  0.00    +0.000 F 
ENDBRANCH   1  20
TORSDOF 2
ENDMDL
