MODEL 1
REMARK VINA RESULT:      -8.0      0.000      0.000
REMARK  Name = 
REMARK  5 active torsions:
REMARK  status: ('A' for Active; 'I' for Inactive)
REMARK    1  A    between atoms: C_1  and  O_2
REMARK    2  A    between atoms: O_2  and  C_3
REMARK    3  A    between atoms: C_6  and  N_7
REMARK    4  A    between atoms: C_8  and  C_10
REMARK    5  A    between atoms: C_10  and  N_11
REMARK                            x       y       z     vdW  Elec       q    Type
REMARK                         _______ _______ _______ _____ _____    ______ ____
ROOT
ATOM      1  N   UNL     1       1.335  12.136  18.935  0.00  0.00    +0.000 N 
ATOM      2  N   UNL     1       1.851  10.898  18.528  0.00  0.00    +0.000 NA
ATOM      3  C   UNL     1       1.488  10.090  19.487  0.00  0.00    +0.000 A 
ATOM      4  C   UNL     1       1.674   8.692  19.659  0.00  0.00    +0.000 A 
ATOM      5  S   UNL     1       2.426   7.595  18.619  0.00  0.00    +0.000 S 
ATOM      6  C   UNL     1       2.065   6.291  19.736  0.00  0.00    +0.000 A 
ATOM      7  N   UNL     1       2.369   4.965  19.533  0.00  0.00    +0.000 N 
ATOM      8  C   UNL     1       3.450   4.540  18.650  0.00  0.00    +0.000 C 
ATOM      9  C   UNL     1       2.892   3.767  17.454  0.00  0.00    +0.000 C 
ATOM     10  C   UNL     1       2.407   2.349  17.764  0.00  0.00    +0.000 C 
ATOM     11  C   UNL     1       1.398   2.236  18.906  0.00  0.00    +0.000 C 
ATOM     12  C   UNL     1       2.013   2.568  20.263  0.00  0.00    +0.000 C 
ATOM     13  C   UNL     1       1.986   4.054  20.623  0.00  0.00    +0.000 C 
ATOM     14  N   UNL     1       1.415   6.705  20.809  0.00  0.00    +0.000 NA
ATOM     15  C   UNL     1       1.194   8.051  20.775  0.00  0.00    +0.000 A 
ATOM     16  N   UNL     1       0.513   8.725  21.812  0.00  0.00    +0.000 NA
ATOM     17  C   UNL     1       0.363   9.998  21.616  0.00  0.00    +0.000 A 
ATOM     18  N   UNL     1       0.814  10.681  20.507  0.00  0.00    +0.000 N 
ATOM     19  C   UNL     1       0.731  12.018  20.201  0.00  0.00    +0.000 A 
ATOM     20  O   UNL     1       0.285  12.914  20.898  0.00  0.00    +0.000 OA
ENDROOT
BRANCH   1  21
ATOM     21  C   UNL     1       1.660  13.423  18.354  0.00  0.00    +0.000 C 
BRANCH  21  23
ATOM     22  N   UNL     1       3.853  14.416  17.901  0.00  0.00    +0.000 N 
ATOM     23  C   UNL     1       2.884  14.185  18.855  0.00  0.00    +0.000 C 
ATOM     24  O   UNL     1       2.945  14.499  20.043  0.00  0.00    +0.000 OA
ATOM     25  H   UNL     1       3.657  14.022  16.982  0.00  0.00    +0.000 HD
BRANCH  22  29
ATOM     26  C   UNL     1       7.583  16.358  18.351  0.00  0.00    +0.000 A 
ATOM     27  C   UNL     1       6.414  17.016  18.721  0.00  0.00    +0.000 A 
ATOM     28  C   UNL     1       5.171  16.391  18.590  0.00  0.00    +0.000 A 
ATOM     29  C   UNL     1       5.074  15.099  18.073  0.00  0.00    +0.000 A 
ATOM     30  C   UNL     1       6.251  14.444  17.690  0.00  0.00    +0.000 A 
ATOM     31  C   UNL     1       7.501  15.068  17.825  0.00  0.00    +0.000 A 
BRANCH  26  33
ATOM     32  C   UNL     1       9.860  16.644  17.775  0.00  0.00    +0.000 C 
ATOM     33  O   UNL     1       8.728  17.085  18.512  0.00  0.00    +0.000 OA
ENDBRANCH  26  33
ENDBRANCH  22  29
ENDBRANCH  21  23
ENDBRANCH   1  21
TORSDOF 4
ENDMDL
MODEL 2
REMARK VINA RESULT:      -8.0      1.997      2.483
REMARK  Name = 
REMARK  5 active torsions:
REMARK  status: ('A' for Active; 'I' for Inactive)
REMARK    1  A    between atoms: C_1  and  O_2
REMARK    2  A    between atoms: O_2  and  C_3
REMARK    3  A    between atoms: C_6  and  N_7
REMARK    4  A    between atoms: C_8  and  C_10
REMARK    5  A    between atoms: C_10  and  N_11
REMARK                            x       y       z     vdW  Elec       q    Type
REMARK                         _______ _______ _______ _____ _____    ______ ____
ROOT
ATOM      1  N   UNL     1      -0.559  11.795  19.035  0.00  0.00    +0.000 N 
ATOM      2  N   UNL     1       0.429  11.007  18.431  0.00  0.00    +0.000 NA
ATOM      3  C   UNL     1       0.612  10.041  19.291  0.00  0.00    +0.000 A 
ATOM      4  C   UNL     1       1.459   8.902  19.258  0.00  0.00    +0.000 A 
ATOM      5  S   UNL     1       2.510   8.407  18.033  0.00  0.00    +0.000 S 
ATOM      6  C   UNL     1       2.949   6.998  18.981  0.00  0.00    +0.000 A 
ATOM      7  N   UNL     1       3.821   6.011  18.580  0.00  0.00    +0.000 N 
ATOM      8  C   UNL     1       4.858   6.247  17.582  0.00  0.00    +0.000 C 
ATOM      9  C   UNL     1       4.594   5.410  16.328  0.00  0.00    +0.000 C 
ATOM     10  C   UNL     1       4.883   3.914  16.470  0.00  0.00    +0.000 C 
ATOM     11  C   UNL     1       4.194   3.223  17.646  0.00  0.00    +0.000 C 
ATOM     12  C   UNL     1       4.736   3.689  18.995  0.00  0.00    +0.000 C 
ATOM     13  C   UNL     1       4.050   4.934  19.557  0.00  0.00    +0.000 C 
ATOM     14  N   UNL     1       2.315   6.944  20.138  0.00  0.00    +0.000 NA
ATOM     15  C   UNL     1       1.480   8.011  20.303  0.00  0.00    +0.000 A 
ATOM     16  N   UNL     1       0.691   8.172  21.463  0.00  0.00    +0.000 NA
ATOM     17  C   UNL     1      -0.068   9.223  21.453  0.00  0.00    +0.000 A 
ATOM     18  N   UNL     1      -0.133  10.136  20.423  0.00  0.00    +0.000 N 
ATOM     19  C   UNL     1      -0.877  11.285  20.308  0.00  0.00    +0.000 A 
ATOM     20  O   UNL     1      -1.608  11.785  21.147  0.00  0.00    +0.000 OA
ENDROOT
BRANCH   1  21
ATOM     21  C   UNL     1      -0.957  13.125  18.617  0.00  0.00    +0.000 C 
BRANCH  21  23
ATOM     22  N   UNL     1       1.311  14.048  18.688  0.00  0.00    +0.000 N 
ATOM     23  C   UNL     1      -0.030  14.306  18.888  0.00  0.00    +0.000 C 
ATOM     24  O   UNL     1      -0.514  15.363  19.290  0.00  0.00    +0.000 OA
ATOM     25  H   UNL     1       1.530  13.091  18.417  0.00  0.00    +0.000 HD
BRANCH  22  29
ATOM     26  C   UNL     1       4.517  16.785  19.030  0.00  0.00    +0.000 A 
ATOM     27  C   UNL     1       4.097  16.071  20.149  0.00  0.00    +0.000 A 
ATOM     28  C   UNL     1       3.046  15.155  20.059  0.00  0.00    +0.000 A 
ATOM     29  C   UNL     1       2.386  14.946  18.848  0.00  0.00    +0.000 A 
ATOM     30  C   UNL     1       2.803  15.673  17.726  0.00  0.00    +0.000 A 
ATOM     31  C   UNL     1       3.862  16.590  17.815  0.00  0.00    +0.000 A 
BRANCH  26  33
ATOM     32  C   UNL     1       6.854  17.146  19.081  0.00  0.00    +0.000 C 
ATOM     33  O   UNL     1       5.541  17.660  19.258  0.00  0.00    +0.000 OA
ENDBRANCH  26  33
ENDBRANCH  22  29
ENDBRANCH  21  23
ENDBRANCH   1  21
TORSDOF 4
ENDMDL
MODEL 3
REMARK VINA RESULT:      -7.8      1.284      1.391
REMARK  Name = 
REMARK  5 active torsions:
REMARK  status: ('A' for Active; 'I' for Inactive)
REMARK    1  A    between atoms: C_1  and  O_2
REMARK    2  A    between atoms: O_2  and  C_3
REMARK    3  A    between atoms: C_6  and  N_7
REMARK    4  A    between atoms: C_8  and  C_10
REMARK    5  A    between atoms: C_10  and  N_11
REMARK                            x       y       z     vdW  Elec       q    Type
REMARK                         _______ _______ _______ _____ _____    ______ ____
ROOT
ATOM      1  N   UNL     1       0.220  12.661  19.311  0.00  0.00    +0.000 N 
ATOM      2  N   UNL     1       0.853  11.503  18.842  0.00  0.00    +0.000 NA
ATOM      3  C   UNL     1       0.727  10.665  19.836  0.00  0.00    +0.000 A 
ATOM      4  C   UNL     1       1.129   9.311  19.980  0.00  0.00    +0.000 A 
ATOM      5  S   UNL     1       1.897   8.316  18.854  0.00  0.00    +0.000 S 
ATOM      6  C   UNL     1       1.862   6.991  20.004  0.00  0.00    +0.000 A 
ATOM      7  N   UNL     1       2.326   5.717  19.762  0.00  0.00    +0.000 N 
ATOM      8  C   UNL     1       3.341   5.437  18.753  0.00  0.00    +0.000 C 
ATOM      9  C   UNL     1       2.757   4.574  17.632  0.00  0.00    +0.000 C 
ATOM     10  C   UNL     1       2.519   3.107  17.996  0.00  0.00    +0.000 C 
ATOM     11  C   UNL     1       1.682   2.870  19.252  0.00  0.00    +0.000 C 
ATOM     12  C   UNL     1       2.404   3.306  20.524  0.00  0.00    +0.000 C 
ATOM     13  C   UNL     1       2.210   4.778  20.889  0.00  0.00    +0.000 C 
ATOM     14  N   UNL     1       1.295   7.324  21.149  0.00  0.00    +0.000 NA
ATOM     15  C   UNL     1       0.884   8.625  21.145  0.00  0.00    +0.000 A 
ATOM     16  N   UNL     1       0.244   9.212  22.259  0.00  0.00    +0.000 NA
ATOM     17  C   UNL     1      -0.107  10.448  22.086  0.00  0.00    +0.000 A 
ATOM     18  N   UNL     1       0.104  11.172  20.932  0.00  0.00    +0.000 N 
ATOM     19  C   UNL     1      -0.204  12.478  20.641  0.00  0.00    +0.000 A 
ATOM     20  O   UNL     1      -0.685  13.313  21.390  0.00  0.00    +0.000 OA
ENDROOT
BRANCH   1  21
ATOM     21  C   UNL     1       0.286  13.973  18.698  0.00  0.00    +0.000 C 
BRANCH  21  23
ATOM     22  N   UNL     1       2.717  14.050  18.989  0.00  0.00    +0.000 N 
ATOM     23  C   UNL     1       1.567  14.792  18.817  0.00  0.00    +0.000 C 
ATOM     24  O   UNL     1       1.493  16.021  18.792  0.00  0.00    +0.000 OA
ATOM     25  H   UNL     1       2.575  13.043  19.052  0.00  0.00    +0.000 HD
BRANCH  22  29
ATOM     26  C   UNL     1       6.686  15.493  19.223  0.00  0.00    +0.000 A 
ATOM     27  C   UNL     1       5.900  15.448  20.371  0.00  0.00    +0.000 A 
ATOM     28  C   UNL     1       4.588  14.966  20.320  0.00  0.00    +0.000 A 
ATOM     29  C   UNL     1       4.035  14.534  19.115  0.00  0.00    +0.000 A 
ATOM     30  C   UNL     1       4.824  14.590  17.959  0.00  0.00    +0.000 A 
ATOM     31  C   UNL     1       6.143  15.069  18.010  0.00  0.00    +0.000 A 
BRANCH  26  33
ATOM     32  C   UNL     1       8.747  15.341  20.373  0.00  0.00    +0.000 C 
ATOM     33  O   UNL     1       7.941  16.000  19.406  0.00  0.00    +0.000 OA
ENDBRANCH  26  33
ENDBRANCH  22  29
ENDBRANCH  21  23
ENDBRANCH   1  21
TORSDOF 4
ENDMDL
MODEL 4
REMARK VINA RESULT:      -7.8      1.022      1.247
REMARK  Name = 
REMARK  5 active torsions:
REMARK  status: ('A' for Active; 'I' for Inactive)
REMARK    1  A    between atoms: C_1  and  O_2
REMARK    2  A    between atoms: O_2  and  C_3
REMARK    3  A    between atoms: C_6  and  N_7
REMARK    4  A    between atoms: C_8  and  C_10
REMARK    5  A    between atoms: C_10  and  N_11
REMARK                            x       y       z     vdW  Elec       q    Type
REMARK                         _______ _______ _______ _____ _____    ______ ____
ROOT
ATOM      1  N   UNL     1       0.513  12.215  19.096  0.00  0.00    +0.000 N 
ATOM      2  N   UNL     1       1.132  11.063  18.596  0.00  0.00    +0.000 NA
ATOM      3  C   UNL     1       1.064  10.225  19.596  0.00  0.00    +0.000 A 
ATOM      4  C   UNL     1       1.486   8.875  19.720  0.00  0.00    +0.000 A 
ATOM      5  S   UNL     1       2.206   7.886  18.558  0.00  0.00    +0.000 S 
ATOM      6  C   UNL     1       2.241   6.562  19.708  0.00  0.00    +0.000 A 
ATOM      7  N   UNL     1       2.704   5.293  19.444  0.00  0.00    +0.000 N 
ATOM      8  C   UNL     1       3.670   5.021  18.385  0.00  0.00    +0.000 C 
ATOM      9  C   UNL     1       3.039   4.151  17.296  0.00  0.00    +0.000 C 
ATOM     10  C   UNL     1       2.834   2.682  17.671  0.00  0.00    +0.000 C 
ATOM     11  C   UNL     1       2.063   2.438  18.968  0.00  0.00    +0.000 C 
ATOM     12  C   UNL     1       2.844   2.882  20.202  0.00  0.00    +0.000 C 
ATOM     13  C   UNL     1       2.654   4.353  20.575  0.00  0.00    +0.000 C 
ATOM     14  N   UNL     1       1.729   6.891  20.880  0.00  0.00    +0.000 NA
ATOM     15  C   UNL     1       1.306   8.188  20.897  0.00  0.00    +0.000 A 
ATOM     16  N   UNL     1       0.717   8.769  22.041  0.00  0.00    +0.000 NA
ATOM     17  C   UNL     1       0.346  10.002  21.885  0.00  0.00    +0.000 A 
ATOM     18  N   UNL     1       0.493  10.726  20.722  0.00  0.00    +0.000 N 
ATOM     19  C   UNL     1       0.158  12.030  20.446  0.00  0.00    +0.000 A 
ATOM     20  O   UNL     1      -0.293  12.860  21.217  0.00  0.00    +0.000 OA
ENDROOT
BRANCH   1  21
ATOM     21  C   UNL     1       0.536  13.527  18.480  0.00  0.00    +0.000 C 
BRANCH  21  23
ATOM     22  N   UNL     1       2.955  13.834  18.710  0.00  0.00    +0.000 N 
ATOM     23  C   UNL     1       1.722  14.453  18.731  0.00  0.00    +0.000 C 
ATOM     24  O   UNL     1       1.510  15.642  18.967  0.00  0.00    +0.000 OA
ATOM     25  H   UNL     1       2.929  12.827  18.564  0.00  0.00    +0.000 HD
BRANCH  22  29
ATOM     26  C   UNL     1       6.713  15.644  19.409  0.00  0.00    +0.000 A 
ATOM     27  C   UNL     1       6.374  15.233  18.123  0.00  0.00    +0.000 A 
ATOM     28  C   UNL     1       5.135  14.641  17.866  0.00  0.00    +0.000 A 
ATOM     29  C   UNL     1       4.216  14.437  18.896  0.00  0.00    +0.000 A 
ATOM     30  C   UNL     1       4.564  14.841  20.191  0.00  0.00    +0.000 A 
ATOM     31  C   UNL     1       5.807  15.440  20.449  0.00  0.00    +0.000 A 
BRANCH  26  33
ATOM     32  C   UNL     1       8.713  16.297  18.327  0.00  0.00    +0.000 C 
ATOM     33  O   UNL     1       7.959  16.191  19.528  0.00  0.00    +0.000 OA
ENDBRANCH  26  33
ENDBRANCH  22  29
ENDBRANCH  21  23
ENDBRANCH   1  21
TORSDOF 4
ENDMDL
MODEL 5
REMARK VINA RESULT:      -7.8      1.414      1.709
REMARK  Name = 
REMARK  5 active torsions:
REMARK  status: ('A' for Active; 'I' for Inactive)
REMARK    1  A    between atoms: C_1  and  O_2
REMARK    2  A    between atoms: O_2  and  C_3
REMARK    3  A    between atoms: C_6  and  N_7
REMARK    4  A    between atoms: C_8  and  C_10
REMARK    5  A    between atoms: C_10  and  N_11
REMARK                            x       y       z     vdW  Elec       q    Type
REMARK                         _______ _______ _______ _____ _____    ______ ____
ROOT
ATOM      1  N   UNL     1       0.224  13.288  19.414  0.00  0.00    +0.000 N 
ATOM      2  N   UNL     1       0.808  12.102  18.950  0.00  0.00    +0.000 NA
ATOM      3  C   UNL     1       0.635  11.272  19.944  0.00  0.00    +0.000 A 
ATOM      4  C   UNL     1       0.973   9.901  20.093  0.00  0.00    +0.000 A 
ATOM      5  S   UNL     1       1.705   8.870  18.974  0.00  0.00    +0.000 S 
ATOM      6  C   UNL     1       1.600   7.549  20.124  0.00  0.00    +0.000 A 
ATOM      7  N   UNL     1       2.006   6.256  19.887  0.00  0.00    +0.000 N 
ATOM      8  C   UNL     1       3.017   5.928  18.887  0.00  0.00    +0.000 C 
ATOM      9  C   UNL     1       2.404   5.092  17.762  0.00  0.00    +0.000 C 
ATOM     10  C   UNL     1       2.096   3.637  18.124  0.00  0.00    +0.000 C 
ATOM     11  C   UNL     1       1.238   3.440  19.373  0.00  0.00    +0.000 C 
ATOM     12  C   UNL     1       1.968   3.844  20.651  0.00  0.00    +0.000 C 
ATOM     13  C   UNL     1       1.838   5.324  21.013  0.00  0.00    +0.000 C 
ATOM     14  N   UNL     1       1.038   7.910  21.264  0.00  0.00    +0.000 NA
ATOM     15  C   UNL     1       0.687   9.228  21.256  0.00  0.00    +0.000 A 
ATOM     16  N   UNL     1       0.065   9.844  22.364  0.00  0.00    +0.000 NA
ATOM     17  C   UNL     1      -0.228  11.095  22.187  0.00  0.00    +0.000 A 
ATOM     18  N   UNL     1       0.027  11.807  21.035  0.00  0.00    +0.000 N 
ATOM     19  C   UNL     1      -0.219  13.126  20.740  0.00  0.00    +0.000 A 
ATOM     20  O   UNL     1      -0.668  13.982  21.484  0.00  0.00    +0.000 OA
ENDROOT
BRANCH   1  21
ATOM     21  C   UNL     1       0.355  14.595  18.801  0.00  0.00    +0.000 C 
BRANCH  21  23
ATOM     22  N   UNL     1       2.790  14.418  19.004  0.00  0.00    +0.000 N 
ATOM     23  C   UNL     1       1.729  15.256  18.730  0.00  0.00    +0.000 C 
ATOM     24  O   UNL     1       1.798  16.459  18.481  0.00  0.00    +0.000 OA
ATOM     25  H   UNL     1       2.534  13.465  19.256  0.00  0.00    +0.000 HD
BRANCH  22  29
ATOM     26  C   UNL     1       6.895  15.425  19.138  0.00  0.00    +0.000 A 
ATOM     27  C   UNL     1       6.328  15.006  17.939  0.00  0.00    +0.000 A 
ATOM     28  C   UNL     1       4.971  14.677  17.868  0.00  0.00    +0.000 A 
ATOM     29  C   UNL     1       4.161  14.748  19.001  0.00  0.00    +0.000 A 
ATOM     30  C   UNL     1       4.737  15.160  20.210  0.00  0.00    +0.000 A 
ATOM     31  C   UNL     1       6.099  15.495  20.281  0.00  0.00    +0.000 A 
BRANCH  26  33
ATOM     32  C   UNL     1       9.008  14.843  18.249  0.00  0.00    +0.000 C 
ATOM     33  O   UNL     1       8.232  15.700  19.076  0.00  0.00    +0.000 OA
ENDBRANCH  26  33
ENDBRANCH  22  29
ENDBRANCH  21  23
ENDBRANCH   1  21
TORSDOF 4
ENDMDL
MODEL 6
REMARK VINA RESULT:      -7.7      1.688      2.275
REMARK  Name = 
REMARK  5 active torsions:
REMARK  status: ('A' for Active; 'I' for Inactive)
REMARK    1  A    between atoms: C_1  and  O_2
REMARK    2  A    between atoms: O_2  and  C_3
REMARK    3  A    between atoms: C_6  and  N_7
REMARK    4  A    between atoms: C_8  and  C_10
REMARK    5  A    between atoms: C_10  and  N_11
REMARK                            x       y       z     vdW  Elec       q    Type
REMARK                         _______ _______ _______ _____ _____    ______ ____
ROOT
ATOM      1  N   UNL     1      -0.279  11.956  19.117  0.00  0.00    +0.000 N 
ATOM      2  N   UNL     1       0.692  11.132  18.533  0.00  0.00    +0.000 NA
ATOM      3  C   UNL     1       0.759  10.117  19.353  0.00  0.00    +0.000 A 
ATOM      4  C   UNL     1       1.530   8.926  19.311  0.00  0.00    +0.000 A 
ATOM      5  S   UNL     1       2.620   8.418  18.126  0.00  0.00    +0.000 S 
ATOM      6  C   UNL     1       2.908   6.940  19.026  0.00  0.00    +0.000 A 
ATOM      7  N   UNL     1       3.736   5.916  18.627  0.00  0.00    +0.000 N 
ATOM      8  C   UNL     1       4.846   6.127  17.703  0.00  0.00    +0.000 C 
ATOM      9  C   UNL     1       4.605   5.369  16.396  0.00  0.00    +0.000 C 
ATOM     10  C   UNL     1       4.787   3.852  16.479  0.00  0.00    +0.000 C 
ATOM     11  C   UNL     1       3.985   3.155  17.577  0.00  0.00    +0.000 C 
ATOM     12  C   UNL     1       4.473   3.520  18.977  0.00  0.00    +0.000 C 
ATOM     13  C   UNL     1       3.835   4.782  19.560  0.00  0.00    +0.000 C 
ATOM     14  N   UNL     1       2.203   6.876  20.140  0.00  0.00    +0.000 NA
ATOM     15  C   UNL     1       1.430   7.988  20.310  0.00  0.00    +0.000 A 
ATOM     16  N   UNL     1       0.583   8.148  21.429  0.00  0.00    +0.000 NA
ATOM     17  C   UNL     1      -0.104   9.248  21.428  0.00  0.00    +0.000 A 
ATOM     18  N   UNL     1      -0.047  10.210  20.443  0.00  0.00    +0.000 N 
ATOM     19  C   UNL     1      -0.706  11.411  20.343  0.00  0.00    +0.000 A 
ATOM     20  O   UNL     1      -1.453  11.919  21.163  0.00  0.00    +0.000 OA
ENDROOT
BRANCH   1  21
ATOM     21  C   UNL     1      -0.564  13.328  18.745  0.00  0.00    +0.000 C 
BRANCH  21  23
ATOM     22  N   UNL     1       1.787  13.879  19.158  0.00  0.00    +0.000 N 
ATOM     23  C   UNL     1       0.539  14.377  18.844  0.00  0.00    +0.000 C 
ATOM     24  O   UNL     1       0.250  15.562  18.682  0.00  0.00    +0.000 OA
ATOM     25  H   UNL     1       1.822  12.874  19.321  0.00  0.00    +0.000 HD
BRANCH  22  29
ATOM     26  C   UNL     1       5.345  16.093  19.726  0.00  0.00    +0.000 A 
ATOM     27  C   UNL     1       5.148  15.399  18.536  0.00  0.00    +0.000 A 
ATOM     28  C   UNL     1       3.976  14.667  18.322  0.00  0.00    +0.000 A 
ATOM     29  C   UNL     1       2.986  14.607  19.302  0.00  0.00    +0.000 A 
ATOM     30  C   UNL     1       3.191  15.298  20.503  0.00  0.00    +0.000 A 
ATOM     31  C   UNL     1       4.366  16.036  20.717  0.00  0.00    +0.000 A 
BRANCH  26  33
ATOM     32  C   UNL     1       7.288  16.855  18.612  0.00  0.00    +0.000 C 
ATOM     33  O   UNL     1       6.539  16.752  19.815  0.00  0.00    +0.000 OA
ENDBRANCH  26  33
ENDBRANCH  22  29
ENDBRANCH  21  23
ENDBRANCH   1  21
TORSDOF 4
ENDMDL
MODEL 7
REMARK VINA RESULT:      -7.7      3.309      9.829
REMARK  Name = 
REMARK  5 active torsions:
REMARK  status: ('A' for Active; 'I' for Inactive)
REMARK    1  A    between atoms: C_1  and  O_2
REMARK    2  A    between atoms: O_2  and  C_3
REMARK    3  A    between atoms: C_6  and  N_7
REMARK    4  A    between atoms: C_8  and  C_10
REMARK    5  A    between atoms: C_10  and  N_11
REMARK                            x       y       z     vdW  Elec       q    Type
REMARK                         _______ _______ _______ _____ _____    ______ ____
ROOT
ATOM      1  N   UNL     1       0.552  13.890  18.622  0.00  0.00    +0.000 N 
ATOM      2  N   UNL     1       1.927  13.785  18.372  0.00  0.00    +0.000 NA
ATOM      3  C   UNL     1       2.380  14.974  18.667  0.00  0.00    +0.000 A 
ATOM      4  C   UNL     1       3.695  15.507  18.656  0.00  0.00    +0.000 A 
ATOM      5  S   UNL     1       5.143  14.729  18.273  0.00  0.00    +0.000 S 
ATOM      6  C   UNL     1       6.026  16.207  18.608  0.00  0.00    +0.000 A 
ATOM      7  N   UNL     1       7.393  16.349  18.539  0.00  0.00    +0.000 N 
ATOM      8  C   UNL     1       8.225  15.484  17.710  0.00  0.00    +0.000 C 
ATOM      9  C   UNL     1       9.159  14.644  18.583  0.00  0.00    +0.000 C 
ATOM     10  C   UNL     1      10.333  15.406  19.202  0.00  0.00    +0.000 C 
ATOM     11  C   UNL     1       9.958  16.659  19.992  0.00  0.00    +0.000 C 
ATOM     12  C   UNL     1       9.412  17.770  19.098  0.00  0.00    +0.000 C 
ATOM     13  C   UNL     1       7.905  17.695  18.845  0.00  0.00    +0.000 C 
ATOM     14  N   UNL     1       5.237  17.197  18.985  0.00  0.00    +0.000 NA
ATOM     15  C   UNL     1       3.927  16.814  19.011  0.00  0.00    +0.000 A 
ATOM     16  N   UNL     1       2.895  17.700  19.388  0.00  0.00    +0.000 NA
ATOM     17  C   UNL     1       1.710  17.174  19.386  0.00  0.00    +0.000 A 
ATOM     18  N   UNL     1       1.430  15.866  19.051  0.00  0.00    +0.000 N 
ATOM     19  C   UNL     1       0.226  15.208  18.995  0.00  0.00    +0.000 A 
ATOM     20  O   UNL     1      -0.886  15.676  19.174  0.00  0.00    +0.000 OA
ENDROOT
BRANCH   1  21
ATOM     21  C   UNL     1      -0.459  12.930  18.226  0.00  0.00    +0.000 C 
BRANCH  21  23
ATOM     22  N   UNL     1       0.947  10.946  18.523  0.00  0.00    +0.000 N 
ATOM     23  C   UNL     1      -0.320  11.474  18.658  0.00  0.00    +0.000 C 
ATOM     24  O   UNL     1      -1.320  10.871  19.049  0.00  0.00    +0.000 OA
ATOM     25  H   UNL     1       1.636  11.579  18.118  0.00  0.00    +0.000 HD
BRANCH  22  29
ATOM     26  C   UNL     1       2.274   7.023  19.379  0.00  0.00    +0.000 A 
ATOM     27  C   UNL     1       1.657   7.775  20.375  0.00  0.00    +0.000 A 
ATOM     28  C   UNL     1       1.202   9.070  20.113  0.00  0.00    +0.000 A 
ATOM     29  C   UNL     1       1.369   9.642  18.851  0.00  0.00    +0.000 A 
ATOM     30  C   UNL     1       2.000   8.888  17.854  0.00  0.00    +0.000 A 
ATOM     31  C   UNL     1       2.453   7.585  18.115  0.00  0.00    +0.000 A 
BRANCH  26  33
ATOM     32  C   UNL     1       1.786   5.053  20.593  0.00  0.00    +0.000 C 
ATOM     33  O   UNL     1       2.686   5.781  19.770  0.00  0.00    +0.000 OA
ENDBRANCH  26  33
ENDBRANCH  22  29
ENDBRANCH  21  23
ENDBRANCH   1  21
TORSDOF 4
ENDMDL
MODEL 8
REMARK VINA RESULT:      -7.6      4.812      9.537
REMARK  Name = 
REMARK  5 active torsions:
REMARK  status: ('A' for Active; 'I' for Inactive)
REMARK    1  A    between atoms: C_1  and  O_2
REMARK    2  A    between atoms: O_2  and  C_3
REMARK    3  A    between atoms: C_6  and  N_7
REMARK    4  A    between atoms: C_8  and  C_10
REMARK    5  A    between atoms: C_10  and  N_11
REMARK                            x       y       z     vdW  Elec       q    Type
REMARK                         _______ _______ _______ _____ _____    ______ ____
ROOT
ATOM      1  N   UNL     1       1.739   7.927  19.714  0.00  0.00    +0.000 N 
ATOM      2  N   UNL     1       0.947   8.529  20.700  0.00  0.00    +0.000 NA
ATOM      3  C   UNL     1       0.683   9.706  20.198  0.00  0.00    +0.000 A 
ATOM      4  C   UNL     1      -0.099  10.783  20.691  0.00  0.00    +0.000 A 
ATOM      5  S   UNL     1      -0.990  10.868  22.122  0.00  0.00    +0.000 S 
ATOM      6  C   UNL     1      -1.516  12.487  21.698  0.00  0.00    +0.000 A 
ATOM      7  N   UNL     1      -2.376  13.263  22.440  0.00  0.00    +0.000 N 
ATOM      8  C   UNL     1      -2.553  13.074  23.876  0.00  0.00    +0.000 C 
ATOM      9  C   UNL     1      -3.980  12.614  24.183  0.00  0.00    +0.000 C 
ATOM     10  C   UNL     1      -5.055  13.695  24.057  0.00  0.00    +0.000 C 
ATOM     11  C   UNL     1      -5.081  14.441  22.723  0.00  0.00    +0.000 C 
ATOM     12  C   UNL     1      -3.849  15.319  22.522  0.00  0.00    +0.000 C 
ATOM     13  C   UNL     1      -2.656  14.600  21.892  0.00  0.00    +0.000 C 
ATOM     14  N   UNL     1      -1.028  12.894  20.540  0.00  0.00    +0.000 NA
ATOM     15  C   UNL     1      -0.229  11.946  19.971  0.00  0.00    +0.000 A 
ATOM     16  N   UNL     1       0.406  12.150  18.726  0.00  0.00    +0.000 NA
ATOM     17  C   UNL     1       1.109  11.142  18.311  0.00  0.00    +0.000 A 
ATOM     18  N   UNL     1       1.256   9.953  18.991  0.00  0.00    +0.000 N 
ATOM     19  C   UNL     1       1.982   8.833  18.665  0.00  0.00    +0.000 A 
ATOM     20  O   UNL     1       2.721   8.680  17.705  0.00  0.00    +0.000 OA
ENDROOT
BRANCH   1  21
ATOM     21  C   UNL     1       2.505   6.706  19.868  0.00  0.00    +0.000 C 
BRANCH  21  23
ATOM     22  N   UNL     1       4.168   6.126  18.165  0.00  0.00    +0.000 N 
ATOM     23  C   UNL     1       2.889   5.900  18.631  0.00  0.00    +0.000 C 
ATOM     24  O   UNL     1       2.051   5.156  18.122  0.00  0.00    +0.000 OA
ATOM     25  H   UNL     1       4.696   6.829  18.679  0.00  0.00    +0.000 HD
BRANCH  22  29
ATOM     26  C   UNL     1       6.025   4.176  14.904  0.00  0.00    +0.000 A 
ATOM     27  C   UNL     1       5.767   5.541  14.835  0.00  0.00    +0.000 A 
ATOM     28  C   UNL     1       5.163   6.209  15.903  0.00  0.00    +0.000 A 
ATOM     29  C   UNL     1       4.792   5.518  17.057  0.00  0.00    +0.000 A 
ATOM     30  C   UNL     1       5.043   4.142  17.120  0.00  0.00    +0.000 A 
ATOM     31  C   UNL     1       5.654   3.471  16.049  0.00  0.00    +0.000 A 
BRANCH  26  33
ATOM     32  C   UNL     1       5.790   3.601  12.622  0.00  0.00    +0.000 C 
ATOM     33  O   UNL     1       6.603   3.642  13.787  0.00  0.00    +0.000 OA
ENDBRANCH  26  33
ENDBRANCH  22  29
ENDBRANCH  21  23
ENDBRANCH   1  21
TORSDOF 4
ENDMDL
MODEL 9
REMARK VINA RESULT:      -7.5      5.393     10.363
REMARK  Name = 
REMARK  5 active torsions:
REMARK  status: ('A' for Active; 'I' for Inactive)
REMARK    1  A    between atoms: C_1  and  O_2
REMARK    2  A    between atoms: O_2  and  C_3
REMARK    3  A    between atoms: C_6  and  N_7
REMARK    4  A    between atoms: C_8  and  C_10
REMARK    5  A    between atoms: C_10  and  N_11
REMARK                            x       y       z     vdW  Elec       q    Type
REMARK                         _______ _______ _______ _____ _____    ______ ____
ROOT
ATOM      1  N   UNL     1       0.406  11.323  20.002  0.00  0.00    +0.000 N 
ATOM      2  N   UNL     1      -0.820  11.952  19.748  0.00  0.00    +0.000 NA
ATOM      3  C   UNL     1      -1.420  11.923  20.908  0.00  0.00    +0.000 A 
ATOM      4  C   UNL     1      -2.680  12.426  21.326  0.00  0.00    +0.000 A 
ATOM      5  S   UNL     1      -3.825  13.278  20.424  0.00  0.00    +0.000 S 
ATOM      6  C   UNL     1      -4.851  13.397  21.842  0.00  0.00    +0.000 A 
ATOM      7  N   UNL     1      -6.062  14.050  21.893  0.00  0.00    +0.000 N 
ATOM      8  C   UNL     1      -6.877  14.274  20.704  0.00  0.00    +0.000 C 
ATOM      9  C   UNL     1      -6.990  15.771  20.408  0.00  0.00    +0.000 C 
ATOM     10  C   UNL     1      -7.908  16.554  21.349  0.00  0.00    +0.000 C 
ATOM     11  C   UNL     1      -7.609  16.394  22.839  0.00  0.00    +0.000 C 
ATOM     12  C   UNL     1      -7.910  14.986  23.347  0.00  0.00    +0.000 C 
ATOM     13  C   UNL     1      -6.754  13.997  23.191  0.00  0.00    +0.000 C 
ATOM     14  N   UNL     1      -4.321  12.820  22.905  0.00  0.00    +0.000 NA
ATOM     15  C   UNL     1      -3.105  12.269  22.623  0.00  0.00    +0.000 A 
ATOM     16  N   UNL     1      -2.341  11.598  23.603  0.00  0.00    +0.000 NA
ATOM     17  C   UNL     1      -1.197  11.156  23.181  0.00  0.00    +0.000 A 
ATOM     18  N   UNL     1      -0.724  11.302  21.895  0.00  0.00    +0.000 N 
ATOM     19  C   UNL     1       0.451  10.865  21.332  0.00  0.00    +0.000 A 
ATOM     20  O   UNL     1       1.315  10.180  21.854  0.00  0.00    +0.000 OA
ENDROOT
BRANCH   1  21
ATOM     21  C   UNL     1       1.354  10.874  19.001  0.00  0.00    +0.000 C 
BRANCH  21  23
ATOM     22  N   UNL     1       2.021   8.558  19.442  0.00  0.00    +0.000 N 
ATOM     23  C   UNL     1       1.360   9.408  18.579  0.00  0.00    +0.000 C 
ATOM     24  O   UNL     1       0.830   9.092  17.514  0.00  0.00    +0.000 OA
ATOM     25  H   UNL     1       2.457   9.012  20.244  0.00  0.00    +0.000 HD
BRANCH  22  29
ATOM     26  C   UNL     1       2.421   4.356  19.189  0.00  0.00    +0.000 A 
ATOM     27  C   UNL     1       2.790   5.150  18.107  0.00  0.00    +0.000 A 
ATOM     28  C   UNL     1       2.675   6.542  18.171  0.00  0.00    +0.000 A 
ATOM     29  C   UNL     1       2.176   7.163  19.315  0.00  0.00    +0.000 A 
ATOM     30  C   UNL     1       1.795   6.361  20.398  0.00  0.00    +0.000 A 
ATOM     31  C   UNL     1       1.914   4.964  20.337  0.00  0.00    +0.000 A 
BRANCH  26  33
ATOM     32  C   UNL     1       1.366   2.273  18.810  0.00  0.00    +0.000 C 
ATOM     33  O   UNL     1       2.566   3.012  18.991  0.00  0.00    +0.000 OA
ENDBRANCH  26  33
ENDBRANCH  22  29
ENDBRANCH  21  23
ENDBRANCH   1  21
TORSDOF 4
ENDMDL
