MODEL 1
REMARK VINA RESULT:      -6.6      0.000      0.000
REMARK  Name = 
REMARK  4 active torsions:
REMARK  status: ('A' for Active; 'I' for Inactive)
REMARK    1  A    between atoms: C_1  and  S_2
REMARK    2  A    between atoms: S_2  and  C_5
REMARK    3  A    between atoms: C_5  and  C_6
REMARK    4  A    between atoms: C_9  and  C_10
REMARK                            x       y       z     vdW  Elec       q    Type
REMARK                         _______ _______ _______ _____ _____    ______ ____
ROOT
ATOM      1  C   UNL     1       4.352   4.815  17.243  0.00  0.00    +0.000 A 
ATOM      2  C   UNL     1       4.242   3.416  17.227  0.00  0.00    +0.000 A 
ATOM      3  C   UNL     1       3.131   2.779  17.784  0.00  0.00    +0.000 A 
ATOM      4  C   UNL     1       2.121   3.530  18.390  0.00  0.00    +0.000 A 
ATOM      5  C   UNL     1       2.223   4.923  18.425  0.00  0.00    +0.000 A 
ATOM      6  C   UNL     1       3.332   5.561  17.855  0.00  0.00    +0.000 A 
ENDROOT
BRANCH   4   7
ATOM      7  C   UNL     1       0.943   2.835  18.979  0.00  0.00    +0.000 C 
ATOM      8  N   UNL     1       0.321   1.870  18.377  0.00  0.00    +0.000 NA
ATOM      9  N   UNL     1       0.471   3.197  20.205  0.00  0.00    +0.000 N 
ATOM     10  H   UNL     1       0.711   1.698  17.448  0.00  0.00    +0.000 HD
ATOM     11  H   UNL     1       1.171   3.457  20.890  0.00  0.00    +0.000 HD
ATOM     12  H   UNL     1      -0.183   2.505  20.559  0.00  0.00    +0.000 HD
ENDBRANCH   4   7
BRANCH   1  13
ATOM     13  C   UNL     1       5.556   5.510  16.657  0.00  0.00    +0.000 C 
BRANCH  13  15
ATOM     14  C   UNL     1       7.714   6.818  17.821  0.00  0.00    +0.000 C 
ATOM     15  S   UNL     1       7.015   5.196  17.653  0.00  0.00    +0.000 S 
ATOM     16  O   UNL     1       7.957   4.409  16.877  0.00  0.00    +0.000 OA
ATOM     17  O   UNL     1       6.609   4.781  18.983  0.00  0.00    +0.000 OA
ENDBRANCH  13  15
ENDBRANCH   1  13
TORSDOF 3
ENDMDL
MODEL 2
REMARK VINA RESULT:      -6.6      0.221      1.299
REMARK  Name = 
REMARK  4 active torsions:
REMARK  status: ('A' for Active; 'I' for Inactive)
REMARK    1  A    between atoms: C_1  and  S_2
REMARK    2  A    between atoms: S_2  and  C_5
REMARK    3  A    between atoms: C_5  and  C_6
REMARK    4  A    between atoms: C_9  and  C_10
REMARK                            x       y       z     vdW  Elec       q    Type
REMARK                         _______ _______ _______ _____ _____    ______ ____
ROOT
ATOM      1  C   UNL     1       4.301   4.896  17.189  0.00  0.00    +0.000 A 
ATOM      2  C   UNL     1       3.387   5.599  17.988  0.00  0.00    +0.000 A 
ATOM      3  C   UNL     1       2.305   4.945  18.583  0.00  0.00    +0.000 A 
ATOM      4  C   UNL     1       2.106   3.579  18.367  0.00  0.00    +0.000 A 
ATOM      5  C   UNL     1       3.001   2.869  17.563  0.00  0.00    +0.000 A 
ATOM      6  C   UNL     1       4.091   3.524  16.978  0.00  0.00    +0.000 A 
ENDROOT
BRANCH   4   7
ATOM      7  C   UNL     1       0.948   2.897  19.009  0.00  0.00    +0.000 C 
ATOM      8  N   UNL     1       0.348   1.878  18.478  0.00  0.00    +0.000 NA
ATOM      9  N   UNL     1       0.471   3.330  20.209  0.00  0.00    +0.000 N 
ATOM     10  H   UNL     1       0.738   1.652  17.560  0.00  0.00    +0.000 HD
ATOM     11  H   UNL     1       1.167   3.654  20.871  0.00  0.00    +0.000 HD
ATOM     12  H   UNL     1      -0.164   2.648  20.613  0.00  0.00    +0.000 HD
ENDBRANCH   4   7
BRANCH   1  13
ATOM     13  C   UNL     1       5.463   5.598  16.531  0.00  0.00    +0.000 C 
BRANCH  13  15
ATOM     14  C   UNL     1       7.619   6.877  17.731  0.00  0.00    +0.000 C 
ATOM     15  S   UNL     1       6.991   5.250  17.404  0.00  0.00    +0.000 S 
ATOM     16  O   UNL     1       7.923   4.613  16.492  0.00  0.00    +0.000 OA
ATOM     17  O   UNL     1       6.683   4.660  18.694  0.00  0.00    +0.000 OA
ENDBRANCH  13  15
ENDBRANCH   1  13
TORSDOF 3
ENDMDL
MODEL 3
REMARK VINA RESULT:      -6.4      1.032      1.971
REMARK  Name = 
REMARK  4 active torsions:
REMARK  status: ('A' for Active; 'I' for Inactive)
REMARK    1  A    between atoms: C_1  and  S_2
REMARK    2  A    between atoms: S_2  and  C_5
REMARK    3  A    between atoms: C_5  and  C_6
REMARK    4  A    between atoms: C_9  and  C_10
REMARK                            x       y       z     vdW  Elec       q    Type
REMARK                         _______ _______ _______ _____ _____    ______ ____
ROOT
ATOM      1  C   UNL     1       4.313   5.354  16.994  0.00  0.00    +0.000 A 
ATOM      2  C   UNL     1       3.378   5.996  17.821  0.00  0.00    +0.000 A 
ATOM      3  C   UNL     1       2.404   5.264  18.503  0.00  0.00    +0.000 A 
ATOM      4  C   UNL     1       2.332   3.877  18.350  0.00  0.00    +0.000 A 
ATOM      5  C   UNL     1       3.248   3.226  17.520  0.00  0.00    +0.000 A 
ATOM      6  C   UNL     1       4.232   3.960  16.847  0.00  0.00    +0.000 A 
ENDROOT
BRANCH   4   7
ATOM      7  C   UNL     1       1.287   3.112  19.085  0.00  0.00    +0.000 C 
ATOM      8  N   UNL     1       0.667   3.582  20.122  0.00  0.00    +0.000 NA
ATOM      9  N   UNL     1       0.935   1.860  18.678  0.00  0.00    +0.000 N 
ATOM     10  H   UNL     1       1.027   4.503  20.384  0.00  0.00    +0.000 HD
ATOM     11  H   UNL     1       0.917   1.709  17.676  0.00  0.00    +0.000 HD
ATOM     12  H   UNL     1       0.079   1.560  19.133  0.00  0.00    +0.000 HD
ENDBRANCH   4   7
BRANCH   1  13
ATOM     13  C   UNL     1       5.359   6.139  16.242  0.00  0.00    +0.000 C 
BRANCH  13  15
ATOM     14  C   UNL     1       6.613   5.669  18.677  0.00  0.00    +0.000 C 
ATOM     15  S   UNL     1       6.984   5.873  16.953  0.00  0.00    +0.000 S 
ATOM     16  O   UNL     1       7.760   7.094  16.830  0.00  0.00    +0.000 OA
ATOM     17  O   UNL     1       7.508   4.601  16.491  0.00  0.00    +0.000 OA
ENDBRANCH  13  15
ENDBRANCH   1  13
TORSDOF 3
ENDMDL
MODEL 4
REMARK VINA RESULT:      -6.3      1.048      1.256
REMARK  Name = 
REMARK  4 active torsions:
REMARK  status: ('A' for Active; 'I' for Inactive)
REMARK    1  A    between atoms: C_1  and  S_2
REMARK    2  A    between atoms: S_2  and  C_5
REMARK    3  A    between atoms: C_5  and  C_6
REMARK    4  A    between atoms: C_9  and  C_10
REMARK                            x       y       z     vdW  Elec       q    Type
REMARK                         _______ _______ _______ _____ _____    ______ ____
ROOT
ATOM      1  C   UNL     1       4.312   5.374  16.981  0.00  0.00    +0.000 A 
ATOM      2  C   UNL     1       4.252   3.984  16.803  0.00  0.00    +0.000 A 
ATOM      3  C   UNL     1       3.291   3.218  17.467  0.00  0.00    +0.000 A 
ATOM      4  C   UNL     1       2.389   3.828  18.342  0.00  0.00    +0.000 A 
ATOM      5  C   UNL     1       2.446   5.210  18.540  0.00  0.00    +0.000 A 
ATOM      6  C   UNL     1       3.402   5.978  17.864  0.00  0.00    +0.000 A 
ENDROOT
BRANCH   4   7
ATOM      7  C   UNL     1       1.371   2.997  19.043  0.00  0.00    +0.000 C 
ATOM      8  N   UNL     1       1.107   1.774  18.704  0.00  0.00    +0.000 NA
ATOM      9  N   UNL     1       0.669   3.506  20.093  0.00  0.00    +0.000 N 
ATOM     10  H   UNL     1       1.642   1.491  17.881  0.00  0.00    +0.000 HD
ATOM     11  H   UNL     1       1.183   4.122  20.712  0.00  0.00    +0.000 HD
ATOM     12  H   UNL     1       0.182   2.769  20.593  0.00  0.00    +0.000 HD
ENDBRANCH   4   7
BRANCH   1  13
ATOM     13  C   UNL     1       5.357   6.207  16.279  0.00  0.00    +0.000 C 
BRANCH  13  15
ATOM     14  C   UNL     1       6.634   5.646  18.683  0.00  0.00    +0.000 C 
ATOM     15  S   UNL     1       6.985   5.886  16.960  0.00  0.00    +0.000 S 
ATOM     16  O   UNL     1       7.788   7.091  16.856  0.00  0.00    +0.000 OA
ATOM     17  O   UNL     1       7.474   4.614  16.458  0.00  0.00    +0.000 OA
ENDBRANCH  13  15
ENDBRANCH   1  13
TORSDOF 3
ENDMDL
MODEL 5
REMARK VINA RESULT:      -6.3      1.141      1.409
REMARK  Name = 
REMARK  4 active torsions:
REMARK  status: ('A' for Active; 'I' for Inactive)
REMARK    1  A    between atoms: C_1  and  S_2
REMARK    2  A    between atoms: S_2  and  C_5
REMARK    3  A    between atoms: C_5  and  C_6
REMARK    4  A    between atoms: C_9  and  C_10
REMARK                            x       y       z     vdW  Elec       q    Type
REMARK                         _______ _______ _______ _____ _____    ______ ____
ROOT
ATOM      1  C   UNL     1       4.043   5.344  17.157  0.00  0.00    +0.000 A 
ATOM      2  C   UNL     1       3.972   3.961  16.931  0.00  0.00    +0.000 A 
ATOM      3  C   UNL     1       2.985   3.185  17.544  0.00  0.00    +0.000 A 
ATOM      4  C   UNL     1       2.066   3.778  18.414  0.00  0.00    +0.000 A 
ATOM      5  C   UNL     1       2.133   5.152  18.659  0.00  0.00    +0.000 A 
ATOM      6  C   UNL     1       3.116   5.929  18.034  0.00  0.00    +0.000 A 
ENDROOT
BRANCH   4   7
ATOM      7  C   UNL     1       1.020   2.936  19.060  0.00  0.00    +0.000 C 
ATOM      8  N   UNL     1       0.446   1.942  18.458  0.00  0.00    +0.000 NA
ATOM      9  N   UNL     1       0.626   3.187  20.339  0.00  0.00    +0.000 N 
ATOM     10  H   UNL     1       0.766   1.856  17.491  0.00  0.00    +0.000 HD
ATOM     11  H   UNL     1       1.355   3.486  20.977  0.00  0.00    +0.000 HD
ATOM     12  H   UNL     1       0.078   2.415  20.707  0.00  0.00    +0.000 HD
ENDBRANCH   4   7
BRANCH   1  13
ATOM     13  C   UNL     1       5.115   6.186  16.511  0.00  0.00    +0.000 C 
BRANCH  13  15
ATOM     14  C   UNL     1       7.361   4.563  16.714  0.00  0.00    +0.000 C 
ATOM     15  S   UNL     1       6.662   6.039  17.407  0.00  0.00    +0.000 S 
ATOM     16  O   UNL     1       6.375   5.757  18.802  0.00  0.00    +0.000 OA
ATOM     17  O   UNL     1       7.542   7.130  17.029  0.00  0.00    +0.000 OA
ENDBRANCH  13  15
ENDBRANCH   1  13
TORSDOF 3
ENDMDL
MODEL 6
REMARK VINA RESULT:      -6.2      1.380      2.053
REMARK  Name = 
REMARK  4 active torsions:
REMARK  status: ('A' for Active; 'I' for Inactive)
REMARK    1  A    between atoms: C_1  and  S_2
REMARK    2  A    between atoms: S_2  and  C_5
REMARK    3  A    between atoms: C_5  and  C_6
REMARK    4  A    between atoms: C_9  and  C_10
REMARK                            x       y       z     vdW  Elec       q    Type
REMARK                         _______ _______ _______ _____ _____    ______ ____
ROOT
ATOM      1  C   UNL     1       4.438   4.382  17.722  0.00  0.00    +0.000 A 
ATOM      2  C   UNL     1       4.034   5.261  18.738  0.00  0.00    +0.000 A 
ATOM      3  C   UNL     1       3.251   4.812  19.804  0.00  0.00    +0.000 A 
ATOM      4  C   UNL     1       2.837   3.479  19.858  0.00  0.00    +0.000 A 
ATOM      5  C   UNL     1       3.221   2.595  18.847  0.00  0.00    +0.000 A 
ATOM      6  C   UNL     1       4.016   3.044  17.786  0.00  0.00    +0.000 A 
ENDROOT
BRANCH   4   7
ATOM      7  C   UNL     1       2.002   3.016  21.002  0.00  0.00    +0.000 C 
ATOM      8  N   UNL     1       2.508   2.557  22.103  0.00  0.00    +0.000 NA
ATOM      9  N   UNL     1       0.643   3.065  20.927  0.00  0.00    +0.000 N 
ATOM     10  H   UNL     1       3.529   2.511  22.054  0.00  0.00    +0.000 HD
ATOM     11  H   UNL     1       0.254   3.865  20.441  0.00  0.00    +0.000 HD
ATOM     12  H   UNL     1       0.226   2.925  21.842  0.00  0.00    +0.000 HD
ENDBRANCH   4   7
BRANCH   1  13
ATOM     13  C   UNL     1       5.271   4.863  16.560  0.00  0.00    +0.000 C 
BRANCH  13  15
ATOM     14  C   UNL     1       7.216   6.710  17.287  0.00  0.00    +0.000 C 
ATOM     15  S   UNL     1       7.001   4.969  17.021  0.00  0.00    +0.000 S 
ATOM     16  O   UNL     1       7.820   4.612  15.876  0.00  0.00    +0.000 OA
ATOM     17  O   UNL     1       7.195   4.328  18.309  0.00  0.00    +0.000 OA
ENDBRANCH  13  15
ENDBRANCH   1  13
TORSDOF 3
ENDMDL
MODEL 7
REMARK VINA RESULT:      -6.2      1.130      1.908
REMARK  Name = 
REMARK  4 active torsions:
REMARK  status: ('A' for Active; 'I' for Inactive)
REMARK    1  A    between atoms: C_1  and  S_2
REMARK    2  A    between atoms: S_2  and  C_5
REMARK    3  A    between atoms: C_5  and  C_6
REMARK    4  A    between atoms: C_9  and  C_10
REMARK                            x       y       z     vdW  Elec       q    Type
REMARK                         _______ _______ _______ _____ _____    ______ ____
ROOT
ATOM      1  C   UNL     1       4.090   5.432  17.170  0.00  0.00    +0.000 A 
ATOM      2  C   UNL     1       3.319   5.932  18.230  0.00  0.00    +0.000 A 
ATOM      3  C   UNL     1       2.380   5.124  18.875  0.00  0.00    +0.000 A 
ATOM      4  C   UNL     1       2.177   3.808  18.452  0.00  0.00    +0.000 A 
ATOM      5  C   UNL     1       2.928   3.301  17.388  0.00  0.00    +0.000 A 
ATOM      6  C   UNL     1       3.878   4.109  16.751  0.00  0.00    +0.000 A 
ENDROOT
BRANCH   4   7
ATOM      7  C   UNL     1       1.171   2.960  19.150  0.00  0.00    +0.000 C 
ATOM      8  N   UNL     1       0.830   1.782  18.731  0.00  0.00    +0.000 NA
ATOM      9  N   UNL     1       0.564   3.404  20.286  0.00  0.00    +0.000 N 
ATOM     10  H   UNL     1       1.297   1.550  17.851  0.00  0.00    +0.000 HD
ATOM     11  H   UNL     1       1.145   3.944  20.916  0.00  0.00    +0.000 HD
ATOM     12  H   UNL     1       0.078   2.647  20.756  0.00  0.00    +0.000 HD
ENDBRANCH   4   7
BRANCH   1  13
ATOM     13  C   UNL     1       5.096   6.303  16.458  0.00  0.00    +0.000 C 
BRANCH  13  15
ATOM     14  C   UNL     1       7.088   4.652  15.444  0.00  0.00    +0.000 C 
ATOM     15  S   UNL     1       6.768   5.749  16.801  0.00  0.00    +0.000 S 
ATOM     16  O   UNL     1       6.760   4.940  18.006  0.00  0.00    +0.000 OA
ATOM     17  O   UNL     1       7.683   6.866  16.654  0.00  0.00    +0.000 OA
ENDBRANCH  13  15
ENDBRANCH   1  13
TORSDOF 3
ENDMDL
MODEL 8
REMARK VINA RESULT:      -6.2      1.413      1.672
REMARK  Name = 
REMARK  4 active torsions:
REMARK  status: ('A' for Active; 'I' for Inactive)
REMARK    1  A    between atoms: C_1  and  S_2
REMARK    2  A    between atoms: S_2  and  C_5
REMARK    3  A    between atoms: C_5  and  C_6
REMARK    4  A    between atoms: C_9  and  C_10
REMARK                            x       y       z     vdW  Elec       q    Type
REMARK                         _______ _______ _______ _____ _____    ______ ____
ROOT
ATOM      1  C   UNL     1       4.251   5.138  17.547  0.00  0.00    +0.000 A 
ATOM      2  C   UNL     1       3.671   3.872  17.373  0.00  0.00    +0.000 A 
ATOM      3  C   UNL     1       2.957   3.263  18.408  0.00  0.00    +0.000 A 
ATOM      4  C   UNL     1       2.834   3.900  19.645  0.00  0.00    +0.000 A 
ATOM      5  C   UNL     1       3.417   5.155  19.837  0.00  0.00    +0.000 A 
ATOM      6  C   UNL     1       4.122   5.769  18.795  0.00  0.00    +0.000 A 
ENDROOT
BRANCH   4   7
ATOM      7  C   UNL     1       2.069   3.237  20.738  0.00  0.00    +0.000 C 
ATOM      8  N   UNL     1       2.629   2.793  21.820  0.00  0.00    +0.000 NA
ATOM      9  N   UNL     1       0.720   3.076  20.636  0.00  0.00    +0.000 N 
ATOM     10  H   UNL     1       3.644   2.912  21.790  0.00  0.00    +0.000 HD
ATOM     11  H   UNL     1       0.216   3.835  20.193  0.00  0.00    +0.000 HD
ATOM     12  H   UNL     1       0.320   2.811  21.531  0.00  0.00    +0.000 HD
ENDBRANCH   4   7
BRANCH   1  13
ATOM     13  C   UNL     1       5.037   5.796  16.440  0.00  0.00    +0.000 C 
BRANCH  13  15
ATOM     14  C   UNL     1       7.293   7.044  17.478  0.00  0.00    +0.000 C 
ATOM     15  S   UNL     1       6.797   5.541  16.674  0.00  0.00    +0.000 S 
ATOM     16  O   UNL     1       7.449   5.520  15.377  0.00  0.00    +0.000 OA
ATOM     17  O   UNL     1       7.004   4.472  17.634  0.00  0.00    +0.000 OA
ENDBRANCH  13  15
ENDBRANCH   1  13
TORSDOF 3
ENDMDL
MODEL 9
REMARK VINA RESULT:      -6.2      1.515      2.382
REMARK  Name = 
REMARK  4 active torsions:
REMARK  status: ('A' for Active; 'I' for Inactive)
REMARK    1  A    between atoms: C_1  and  S_2
REMARK    2  A    between atoms: S_2  and  C_5
REMARK    3  A    between atoms: C_5  and  C_6
REMARK    4  A    between atoms: C_9  and  C_10
REMARK                            x       y       z     vdW  Elec       q    Type
REMARK                         _______ _______ _______ _____ _____    ______ ____
ROOT
ATOM      1  C   UNL     1       4.121   5.279  17.587  0.00  0.00    +0.000 A 
ATOM      2  C   UNL     1       3.980   5.884  18.846  0.00  0.00    +0.000 A 
ATOM      3  C   UNL     1       3.220   5.279  19.849  0.00  0.00    +0.000 A 
ATOM      4  C   UNL     1       2.565   4.071  19.602  0.00  0.00    +0.000 A 
ATOM      5  C   UNL     1       2.685   3.464  18.349  0.00  0.00    +0.000 A 
ATOM      6  C   UNL     1       3.457   4.065  17.349  0.00  0.00    +0.000 A 
ENDROOT
BRANCH   4   7
ATOM      7  C   UNL     1       1.758   3.440  20.683  0.00  0.00    +0.000 C 
ATOM      8  N   UNL     1       2.228   3.207  21.869  0.00  0.00    +0.000 NA
ATOM      9  N   UNL     1       0.463   3.081  20.458  0.00  0.00    +0.000 N 
ATOM     10  H   UNL     1       3.216   3.462  21.934  0.00  0.00    +0.000 HD
ATOM     11  H   UNL     1      -0.073   3.706  19.866  0.00  0.00    +0.000 HD
ATOM     12  H   UNL     1      -0.011   2.870  21.331  0.00  0.00    +0.000 HD
ENDBRANCH   4   7
BRANCH   1  13
ATOM     13  C   UNL     1       4.928   5.933  16.492  0.00  0.00    +0.000 C 
BRANCH  13  15
ATOM     14  C   UNL     1       6.559   4.216  15.039  0.00  0.00    +0.000 C 
ATOM     15  S   UNL     1       6.598   5.278  16.460  0.00  0.00    +0.000 S 
ATOM     16  O   UNL     1       6.795   4.426  17.619  0.00  0.00    +0.000 OA
ATOM     17  O   UNL     1       7.527   6.348  16.150  0.00  0.00    +0.000 OA
ENDBRANCH  13  15
ENDBRANCH   1  13
TORSDOF 3
ENDMDL
