MODEL 1
REMARK VINA RESULT:      -8.7      0.000      0.000
REMARK  Name = 
REMARK  5 active torsions:
REMARK  status: ('A' for Active; 'I' for Inactive)
REMARK    1  A    between atoms: C_2  and  C_22
REMARK    2  A    between atoms: N_3  and  C_4
REMARK    3  A    between atoms: C_10  and  N_11
REMARK    4  A    between atoms: C_15  and  C_16
REMARK    5  A    between atoms: C_27  and  N_28
REMARK                            x       y       z     vdW  Elec       q    Type
REMARK                         _______ _______ _______ _____ _____    ______ ____
ROOT
ATOM      1  C   UNL     1       2.347   4.494  19.097  0.00  0.00    +0.000 C 
ATOM      2  C   UNL     1       1.035   3.722  19.198  0.00  0.00    +0.000 C 
ATOM      3  C   UNL     1       1.526   2.300  19.126  0.00  0.00    +0.000 C 
ATOM      4  F   UNL     1       0.533   1.430  18.871  0.00  0.00    +0.000 F 
ATOM      5  F   UNL     1       2.072   1.950  20.320  0.00  0.00    +0.000 F 
ATOM      6  C   UNL     1       2.593   2.271  18.056  0.00  0.00    +0.000 C 
ATOM      7  C   UNL     1       3.208   3.681  18.084  0.00  0.00    +0.000 C 
ENDROOT
BRANCH   7   8
ATOM      8  N   UNL     1       4.612   3.588  18.477  0.00  0.00    +0.000 N 
ATOM      9  C   UNL     1       5.403   4.705  18.315  0.00  0.00    +0.000 A 
ATOM     10  N   UNL     1       6.535   4.737  19.028  0.00  0.00    +0.000 NA
ATOM     11  C   UNL     1       7.338   5.809  18.858  0.00  0.00    +0.000 A 
ATOM     12  C   UNL     1       7.033   6.861  18.031  0.00  0.00    +0.000 A 
ATOM     13  C   UNL     1       5.831   6.756  17.380  0.00  0.00    +0.000 A 
ATOM     14  N   UNL     1       5.019   5.692  17.499  0.00  0.00    +0.000 NA
ATOM     15  H   UNL     1       4.850   3.135  19.352  0.00  0.00    +0.000 HD
BRANCH  12  16
ATOM     16  C   UNL     1       7.918   8.031  17.836  0.00  0.00    +0.000 C 
ATOM     17  F   UNL     1       7.260   9.218  17.806  0.00  0.00    +0.000 F 
ATOM     18  F   UNL     1       8.856   8.143  18.816  0.00  0.00    +0.000 F 
ATOM     19  F   UNL     1       8.616   7.961  16.666  0.00  0.00    +0.000 F 
ENDBRANCH  12  16
ENDBRANCH   7   8
BRANCH   1  22
ATOM     20  O   UNL     1       1.882   6.632  20.958  0.00  0.00    +0.000 OA
ATOM     21  C   UNL     1       1.989   6.884  19.761  0.00  0.00    +0.000 C 
ATOM     22  N   UNL     1       2.175   5.911  18.802  0.00  0.00    +0.000 N 
ATOM     23  H   UNL     1       2.135   6.170  17.828  0.00  0.00    +0.000 HD
BRANCH  21  24
ATOM     24  C   UNL     1       1.821   8.298  19.295  0.00  0.00    +0.000 A 
ATOM     25  C   UNL     1       2.247   8.551  17.976  0.00  0.00    +0.000 A 
ATOM     26  C   UNL     1       2.238   9.845  17.445  0.00  0.00    +0.000 A 
ATOM     27  C   UNL     1       1.837  10.916  18.234  0.00  0.00    +0.000 A 
ATOM     28  C   UNL     1       1.407  10.689  19.542  0.00  0.00    +0.000 A 
ATOM     29  C   UNL     1       1.352   9.377  20.065  0.00  0.00    +0.000 A 
BRANCH  29  30
ATOM     30  N   UNL     1       0.721   9.210  21.320  0.00  0.00    +0.000 N 
ATOM     31  N   UNL     1       1.327   9.601  22.478  0.00  0.00    +0.000 NA
ATOM     32  C   UNL     1       0.398   9.325  23.394  0.00  0.00    +0.000 A 
ATOM     33  C   UNL     1      -0.744   8.819  22.773  0.00  0.00    +0.000 A 
ATOM     34  N   UNL     1      -0.537   8.725  21.459  0.00  0.00    +0.000 NA
ENDBRANCH  29  30
ENDBRANCH  21  24
ENDBRANCH   1  22
TORSDOF 5
ENDMDL
MODEL 2
REMARK VINA RESULT:      -8.1      3.192      5.157
REMARK  Name = 
REMARK  5 active torsions:
REMARK  status: ('A' for Active; 'I' for Inactive)
REMARK    1  A    between atoms: C_2  and  C_22
REMARK    2  A    between atoms: N_3  and  C_4
REMARK    3  A    between atoms: C_10  and  N_11
REMARK    4  A    between atoms: C_15  and  C_16
REMARK    5  A    between atoms: C_27  and  N_28
REMARK                            x       y       z     vdW  Elec       q    Type
REMARK                         _______ _______ _______ _____ _____    ______ ____
ROOT
ATOM      1  C   UNL     1       5.424   4.175  16.726  0.00  0.00    +0.000 C 
ATOM      2  C   UNL     1       5.025   3.845  15.291  0.00  0.00    +0.000 C 
ATOM      3  C   UNL     1       6.158   4.469  14.521  0.00  0.00    +0.000 C 
ATOM      4  F   UNL     1       5.876   4.595  13.211  0.00  0.00    +0.000 F 
ATOM      5  F   UNL     1       7.260   3.683  14.622  0.00  0.00    +0.000 F 
ATOM      6  C   UNL     1       6.430   5.805  15.172  0.00  0.00    +0.000 C 
ATOM      7  C   UNL     1       6.038   5.605  16.646  0.00  0.00    +0.000 C 
ENDROOT
BRANCH   7   8
ATOM      8  N   UNL     1       7.224   5.762  17.487  0.00  0.00    +0.000 N 
ATOM      9  C   UNL     1       7.651   7.041  17.767  0.00  0.00    +0.000 A 
ATOM     10  N   UNL     1       8.457   7.177  18.827  0.00  0.00    +0.000 NA
ATOM     11  C   UNL     1       8.911   8.419  19.098  0.00  0.00    +0.000 A 
ATOM     12  C   UNL     1       8.561   9.530  18.372  0.00  0.00    +0.000 A 
ATOM     13  C   UNL     1       7.695   9.294  17.335  0.00  0.00    +0.000 A 
ATOM     14  N   UNL     1       7.246   8.069  17.014  0.00  0.00    +0.000 NA
ATOM     15  H   UNL     1       7.318   5.189  18.318  0.00  0.00    +0.000 HD
BRANCH  12  16
ATOM     16  C   UNL     1       9.068  10.889  18.661  0.00  0.00    +0.000 C 
ATOM     17  F   UNL     1      10.392  11.047  18.406  0.00  0.00    +0.000 F 
ATOM     18  F   UNL     1       8.427  11.849  17.938  0.00  0.00    +0.000 F 
ATOM     19  F   UNL     1       8.895  11.238  19.969  0.00  0.00    +0.000 F 
ENDBRANCH  12  16
ENDBRANCH   7   8
BRANCH   1  22
ATOM     20  O   UNL     1       5.646   3.991  19.584  0.00  0.00    +0.000 OA
ATOM     21  C   UNL     1       4.537   3.946  19.058  0.00  0.00    +0.000 C 
ATOM     22  N   UNL     1       4.349   3.991  17.694  0.00  0.00    +0.000 N 
ATOM     23  H   UNL     1       3.426   3.829  17.321  0.00  0.00    +0.000 HD
BRANCH  21  24
ATOM     24  C   UNL     1       3.329   3.744  19.921  0.00  0.00    +0.000 A 
ATOM     25  C   UNL     1       3.319   2.551  20.671  0.00  0.00    +0.000 A 
ATOM     26  C   UNL     1       2.212   2.189  21.445  0.00  0.00    +0.000 A 
ATOM     27  C   UNL     1       1.079   2.993  21.455  0.00  0.00    +0.000 A 
ATOM     28  C   UNL     1       1.067   4.181  20.723  0.00  0.00    +0.000 A 
ATOM     29  C   UNL     1       2.205   4.587  19.991  0.00  0.00    +0.000 A 
BRANCH  29  30
ATOM     30  N   UNL     1       2.186   5.890  19.441  0.00  0.00    +0.000 N 
ATOM     31  N   UNL     1       2.036   6.993  20.229  0.00  0.00    +0.000 NA
ATOM     32  C   UNL     1       2.126   7.990  19.347  0.00  0.00    +0.000 A 
ATOM     33  C   UNL     1       2.365   7.474  18.074  0.00  0.00    +0.000 A 
ATOM     34  N   UNL     1       2.384   6.142  18.123  0.00  0.00    +0.000 NA
ENDBRANCH  29  30
ENDBRANCH  21  24
ENDBRANCH   1  22
TORSDOF 5
ENDMDL
MODEL 3
REMARK VINA RESULT:      -8.1      3.030      4.371
REMARK  Name = 
REMARK  5 active torsions:
REMARK  status: ('A' for Active; 'I' for Inactive)
REMARK    1  A    between atoms: C_2  and  C_22
REMARK    2  A    between atoms: N_3  and  C_4
REMARK    3  A    between atoms: C_10  and  N_11
REMARK    4  A    between atoms: C_15  and  C_16
REMARK    5  A    between atoms: C_27  and  N_28
REMARK                            x       y       z     vdW  Elec       q    Type
REMARK                         _______ _______ _______ _____ _____    ______ ____
ROOT
ATOM      1  C   UNL     1       4.801   4.964  16.767  0.00  0.00    +0.000 C 
ATOM      2  C   UNL     1       4.305   4.283  15.495  0.00  0.00    +0.000 C 
ATOM      3  C   UNL     1       5.602   4.030  14.774  0.00  0.00    +0.000 C 
ATOM      4  F   UNL     1       5.413   3.727  13.477  0.00  0.00    +0.000 F 
ATOM      5  F   UNL     1       6.237   2.975  15.346  0.00  0.00    +0.000 F 
ATOM      6  C   UNL     1       6.438   5.276  14.949  0.00  0.00    +0.000 C 
ATOM      7  C   UNL     1       5.989   5.858  16.301  0.00  0.00    +0.000 C 
ENDROOT
BRANCH   7   8
ATOM      8  N   UNL     1       7.115   5.839  17.232  0.00  0.00    +0.000 N 
ATOM      9  C   UNL     1       7.606   7.048  17.675  0.00  0.00    +0.000 A 
ATOM     10  N   UNL     1       8.337   7.015  18.795  0.00  0.00    +0.000 NA
ATOM     11  C   UNL     1       8.853   8.185  19.227  0.00  0.00    +0.000 A 
ATOM     12  C   UNL     1       8.636   9.386  18.599  0.00  0.00    +0.000 A 
ATOM     13  C   UNL     1       7.838   9.323  17.487  0.00  0.00    +0.000 A 
ATOM     14  N   UNL     1       7.331   8.174  17.009  0.00  0.00    +0.000 NA
ATOM     15  H   UNL     1       7.106   5.180  18.003  0.00  0.00    +0.000 HD
BRANCH  12  16
ATOM     16  C   UNL     1       9.211  10.668  19.065  0.00  0.00    +0.000 C 
ATOM     17  F   UNL     1       8.737  11.755  18.403  0.00  0.00    +0.000 F 
ATOM     18  F   UNL     1       8.973  10.896  20.386  0.00  0.00    +0.000 F 
ATOM     19  F   UNL     1      10.568  10.707  18.925  0.00  0.00    +0.000 F 
ENDBRANCH  12  16
ENDBRANCH   7   8
BRANCH   1  22
ATOM     20  O   UNL     1       4.766   5.553  19.579  0.00  0.00    +0.000 OA
ATOM     21  C   UNL     1       3.826   5.910  18.873  0.00  0.00    +0.000 C 
ATOM     22  N   UNL     1       3.751   5.634  17.525  0.00  0.00    +0.000 N 
ATOM     23  H   UNL     1       2.901   5.851  17.028  0.00  0.00    +0.000 HD
BRANCH  21  24
ATOM     24  C   UNL     1       2.658   6.602  19.509  0.00  0.00    +0.000 A 
ATOM     25  C   UNL     1       2.486   7.951  19.141  0.00  0.00    +0.000 A 
ATOM     26  C   UNL     1       1.496   8.743  19.730  0.00  0.00    +0.000 A 
ATOM     27  C   UNL     1       0.682   8.212  20.724  0.00  0.00    +0.000 A 
ATOM     28  C   UNL     1       0.832   6.878  21.101  0.00  0.00    +0.000 A 
ATOM     29  C   UNL     1       1.787   6.052  20.465  0.00  0.00    +0.000 A 
BRANCH  29  30
ATOM     30  N   UNL     1       1.742   4.670  20.762  0.00  0.00    +0.000 N 
ATOM     31  N   UNL     1       1.009   3.803  20.006  0.00  0.00    +0.000 NA
ATOM     32  C   UNL     1       1.279   2.627  20.576  0.00  0.00    +0.000 A 
ATOM     33  C   UNL     1       2.186   2.805  21.620  0.00  0.00    +0.000 A 
ATOM     34  N   UNL     1       2.468   4.101  21.756  0.00  0.00    +0.000 NA
ENDBRANCH  29  30
ENDBRANCH  21  24
ENDBRANCH   1  22
TORSDOF 5
ENDMDL
MODEL 4
REMARK VINA RESULT:      -7.7      4.972      8.292
REMARK  Name = 
REMARK  5 active torsions:
REMARK  status: ('A' for Active; 'I' for Inactive)
REMARK    1  A    between atoms: C_2  and  C_22
REMARK    2  A    between atoms: N_3  and  C_4
REMARK    3  A    between atoms: C_10  and  N_11
REMARK    4  A    between atoms: C_15  and  C_16
REMARK    5  A    between atoms: C_27  and  N_28
REMARK                            x       y       z     vdW  Elec       q    Type
REMARK                         _______ _______ _______ _____ _____    ______ ____
ROOT
ATOM      1  C   UNL     1      -0.596  13.155  18.525  0.00  0.00    +0.000 C 
ATOM      2  C   UNL     1      -0.408  14.468  19.279  0.00  0.00    +0.000 C 
ATOM      3  C   UNL     1       1.082  14.472  19.493  0.00  0.00    +0.000 C 
ATOM      4  F   UNL     1       1.461  15.371  20.419  0.00  0.00    +0.000 F 
ATOM      5  F   UNL     1       1.704  14.802  18.333  0.00  0.00    +0.000 F 
ATOM      6  C   UNL     1       1.460  13.062  19.885  0.00  0.00    +0.000 C 
ATOM      7  C   UNL     1       0.420  12.173  19.182  0.00  0.00    +0.000 C 
ENDROOT
BRANCH   7   8
ATOM      8  N   UNL     1       1.095  11.317  18.208  0.00  0.00    +0.000 N 
ATOM      9  C   UNL     1       1.397  10.027  18.584  0.00  0.00    +0.000 A 
ATOM     10  N   UNL     1       1.635   9.162  17.591  0.00  0.00    +0.000 NA
ATOM     11  C   UNL     1       1.964   7.900  17.940  0.00  0.00    +0.000 A 
ATOM     12  C   UNL     1       2.029   7.466  19.241  0.00  0.00    +0.000 A 
ATOM     13  C   UNL     1       1.725   8.414  20.183  0.00  0.00    +0.000 A 
ATOM     14  N   UNL     1       1.423   9.687  19.877  0.00  0.00    +0.000 NA
ATOM     15  H   UNL     1       0.776  11.319  17.246  0.00  0.00    +0.000 HD
BRANCH  12  16
ATOM     16  C   UNL     1       2.401   6.087  19.625  0.00  0.00    +0.000 C 
ATOM     17  F   UNL     1       1.835   5.669  20.786  0.00  0.00    +0.000 F 
ATOM     18  F   UNL     1       2.048   5.170  18.681  0.00  0.00    +0.000 F 
ATOM     19  F   UNL     1       3.747   5.942  19.792  0.00  0.00    +0.000 F 
ENDBRANCH  12  16
ENDBRANCH   7   8
BRANCH   1  22
ATOM     20  O   UNL     1      -2.343  12.548  20.723  0.00  0.00    +0.000 OA
ATOM     21  C   UNL     1      -2.765  12.464  19.573  0.00  0.00    +0.000 C 
ATOM     22  N   UNL     1      -1.980  12.702  18.465  0.00  0.00    +0.000 N 
ATOM     23  H   UNL     1      -2.352  12.501  17.549  0.00  0.00    +0.000 HD
BRANCH  21  24
ATOM     24  C   UNL     1      -4.169  11.995  19.344  0.00  0.00    +0.000 A 
ATOM     25  C   UNL     1      -5.118  12.463  20.274  0.00  0.00    +0.000 A 
ATOM     26  C   UNL     1      -6.447  12.029  20.237  0.00  0.00    +0.000 A 
ATOM     27  C   UNL     1      -6.845  11.091  19.292  0.00  0.00    +0.000 A 
ATOM     28  C   UNL     1      -5.923  10.617  18.358  0.00  0.00    +0.000 A 
ATOM     29  C   UNL     1      -4.595  11.099  18.347  0.00  0.00    +0.000 A 
BRANCH  29  30
ATOM     30  N   UNL     1      -3.782  10.722  17.253  0.00  0.00    +0.000 N 
ATOM     31  N   UNL     1      -3.881  11.345  16.044  0.00  0.00    +0.000 NA
ATOM     32  C   UNL     1      -2.928  10.742  15.332  0.00  0.00    +0.000 A 
ATOM     33  C   UNL     1      -2.260   9.811  16.127  0.00  0.00    +0.000 A 
ATOM     34  N   UNL     1      -2.810   9.780  17.341  0.00  0.00    +0.000 NA
ENDBRANCH  29  30
ENDBRANCH  21  24
ENDBRANCH   1  22
TORSDOF 5
ENDMDL
MODEL 5
REMARK VINA RESULT:      -7.6      7.158     10.705
REMARK  Name = 
REMARK  5 active torsions:
REMARK  status: ('A' for Active; 'I' for Inactive)
REMARK    1  A    between atoms: C_2  and  C_22
REMARK    2  A    between atoms: N_3  and  C_4
REMARK    3  A    between atoms: C_10  and  N_11
REMARK    4  A    between atoms: C_15  and  C_16
REMARK    5  A    between atoms: C_27  and  N_28
REMARK                            x       y       z     vdW  Elec       q    Type
REMARK                         _______ _______ _______ _____ _____    ______ ____
ROOT
ATOM      1  C   UNL     1      -3.386  14.886  22.876  0.00  0.00    +0.000 C 
ATOM      2  C   UNL     1      -4.107  15.872  23.788  0.00  0.00    +0.000 C 
ATOM      3  C   UNL     1      -2.969  16.371  24.638  0.00  0.00    +0.000 C 
ATOM      4  F   UNL     1      -3.398  17.016  25.738  0.00  0.00    +0.000 F 
ATOM      5  F   UNL     1      -2.223  17.251  23.922  0.00  0.00    +0.000 F 
ATOM      6  C   UNL     1      -2.131  15.161  24.981  0.00  0.00    +0.000 C 
ATOM      7  C   UNL     1      -2.321  14.208  23.789  0.00  0.00    +0.000 C 
ENDROOT
BRANCH   7   8
ATOM      8  N   UNL     1      -1.037  14.013  23.117  0.00  0.00    +0.000 N 
ATOM      9  C   UNL     1      -0.710  12.740  22.707  0.00  0.00    +0.000 A 
ATOM     10  N   UNL     1       0.240  12.645  21.769  0.00  0.00    +0.000 NA
ATOM     11  C   UNL     1       0.596  11.404  21.377  0.00  0.00    +0.000 A 
ATOM     12  C   UNL     1       0.012  10.260  21.862  0.00  0.00    +0.000 A 
ATOM     13  C   UNL     1      -0.981  10.462  22.785  0.00  0.00    +0.000 A 
ATOM     14  N   UNL     1      -1.342  11.680  23.223  0.00  0.00    +0.000 NA
ATOM     15  H   UNL     1      -0.746  14.677  22.409  0.00  0.00    +0.000 HD
BRANCH  12  16
ATOM     16  C   UNL     1       0.410   8.898  21.442  0.00  0.00    +0.000 C 
ATOM     17  F   UNL     1       1.494   8.414  22.103  0.00  0.00    +0.000 F 
ATOM     18  F   UNL     1      -0.583   7.985  21.627  0.00  0.00    +0.000 F 
ATOM     19  F   UNL     1       0.723   8.836  20.115  0.00  0.00    +0.000 F 
ENDBRANCH  12  16
ENDBRANCH   7   8
BRANCH   1  22
ATOM     20  O   UNL     1      -2.969  13.686  20.299  0.00  0.00    +0.000 OA
ATOM     21  C   UNL     1      -3.989  13.425  20.931  0.00  0.00    +0.000 C 
ATOM     22  N   UNL     1      -4.280  13.987  22.155  0.00  0.00    +0.000 N 
ATOM     23  H   UNL     1      -5.186  13.824  22.566  0.00  0.00    +0.000 HD
BRANCH  21  24
ATOM     24  C   UNL     1      -5.018  12.524  20.317  0.00  0.00    +0.000 A 
ATOM     25  C   UNL     1      -4.618  11.878  19.130  0.00  0.00    +0.000 A 
ATOM     26  C   UNL     1      -5.509  11.086  18.400  0.00  0.00    +0.000 A 
ATOM     27  C   UNL     1      -6.827  10.952  18.822  0.00  0.00    +0.000 A 
ATOM     28  C   UNL     1      -7.243  11.580  19.997  0.00  0.00    +0.000 A 
ATOM     29  C   UNL     1      -6.333  12.329  20.775  0.00  0.00    +0.000 A 
BRANCH  29  30
ATOM     30  N   UNL     1      -6.777  12.765  22.045  0.00  0.00    +0.000 N 
ATOM     31  N   UNL     1      -7.429  13.953  22.202  0.00  0.00    +0.000 NA
ATOM     32  C   UNL     1      -7.714  13.954  23.505  0.00  0.00    +0.000 A 
ATOM     33  C   UNL     1      -7.269  12.766  24.087  0.00  0.00    +0.000 A 
ATOM     34  N   UNL     1      -6.657  12.017  23.170  0.00  0.00    +0.000 NA
ENDBRANCH  29  30
ENDBRANCH  21  24
ENDBRANCH   1  22
TORSDOF 5
ENDMDL
MODEL 6
REMARK VINA RESULT:      -7.6      2.879      4.226
REMARK  Name = 
REMARK  5 active torsions:
REMARK  status: ('A' for Active; 'I' for Inactive)
REMARK    1  A    between atoms: C_2  and  C_22
REMARK    2  A    between atoms: N_3  and  C_4
REMARK    3  A    between atoms: C_10  and  N_11
REMARK    4  A    between atoms: C_15  and  C_16
REMARK    5  A    between atoms: C_27  and  N_28
REMARK                            x       y       z     vdW  Elec       q    Type
REMARK                         _______ _______ _______ _____ _____    ______ ____
ROOT
ATOM      1  C   UNL     1       4.802   5.057  17.525  0.00  0.00    +0.000 C 
ATOM      2  C   UNL     1       4.174   4.333  16.339  0.00  0.00    +0.000 C 
ATOM      3  C   UNL     1       5.359   4.194  15.420  0.00  0.00    +0.000 C 
ATOM      4  F   UNL     1       4.997   3.872  14.165  0.00  0.00    +0.000 F 
ATOM      5  F   UNL     1       6.167   3.201  15.873  0.00  0.00    +0.000 F 
ATOM      6  C   UNL     1       6.098   5.510  15.477  0.00  0.00    +0.000 C 
ATOM      7  C   UNL     1       5.818   6.052  16.889  0.00  0.00    +0.000 C 
ENDROOT
BRANCH   7   8
ATOM      8  N   UNL     1       7.074   6.136  17.632  0.00  0.00    +0.000 N 
ATOM      9  C   UNL     1       7.598   7.387  17.874  0.00  0.00    +0.000 A 
ATOM     10  N   UNL     1       8.492   7.472  18.866  0.00  0.00    +0.000 NA
ATOM     11  C   UNL     1       9.041   8.683  19.096  0.00  0.00    +0.000 A 
ATOM     12  C   UNL     1       8.701   9.814  18.397  0.00  0.00    +0.000 A 
ATOM     13  C   UNL     1       7.744   9.634  17.433  0.00  0.00    +0.000 A 
ATOM     14  N   UNL     1       7.197   8.439  17.152  0.00  0.00    +0.000 NA
ATOM     15  H   UNL     1       7.199   5.557  18.455  0.00  0.00    +0.000 HD
BRANCH  12  16
ATOM     16  C   UNL     1       9.311  11.141  18.641  0.00  0.00    +0.000 C 
ATOM     17  F   UNL     1       8.979  12.076  17.714  0.00  0.00    +0.000 F 
ATOM     18  F   UNL     1       8.956  11.663  19.848  0.00  0.00    +0.000 F 
ATOM     19  F   UNL     1      10.674  11.090  18.650  0.00  0.00    +0.000 F 
ENDBRANCH  12  16
ENDBRANCH   7   8
BRANCH   1  22
ATOM     20  O   UNL     1       3.424   7.566  17.282  0.00  0.00    +0.000 OA
ATOM     21  C   UNL     1       3.185   6.833  18.238  0.00  0.00    +0.000 C 
ATOM     22  N   UNL     1       3.829   5.633  18.446  0.00  0.00    +0.000 N 
ATOM     23  H   UNL     1       3.674   5.137  19.310  0.00  0.00    +0.000 HD
BRANCH  21  24
ATOM     24  C   UNL     1       2.215   7.293  19.284  0.00  0.00    +0.000 A 
ATOM     25  C   UNL     1       1.868   8.657  19.224  0.00  0.00    +0.000 A 
ATOM     26  C   UNL     1       1.049   9.242  20.195  0.00  0.00    +0.000 A 
ATOM     27  C   UNL     1       0.589   8.482  21.264  0.00  0.00    +0.000 A 
ATOM     28  C   UNL     1       0.917   7.129  21.342  0.00  0.00    +0.000 A 
ATOM     29  C   UNL     1       1.690   6.515  20.331  0.00  0.00    +0.000 A 
BRANCH  29  30
ATOM     30  N   UNL     1       1.810   5.107  20.378  0.00  0.00    +0.000 N 
ATOM     31  N   UNL     1       2.493   4.483  21.381  0.00  0.00    +0.000 NA
ATOM     32  C   UNL     1       2.322   3.194  21.087  0.00  0.00    +0.000 A 
ATOM     33  C   UNL     1       1.519   3.070  19.953  0.00  0.00    +0.000 A 
ATOM     34  N   UNL     1       1.208   4.280  19.487  0.00  0.00    +0.000 NA
ENDBRANCH  29  30
ENDBRANCH  21  24
ENDBRANCH   1  22
TORSDOF 5
ENDMDL
MODEL 7
REMARK VINA RESULT:      -7.4      4.694      7.243
REMARK  Name = 
REMARK  5 active torsions:
REMARK  status: ('A' for Active; 'I' for Inactive)
REMARK    1  A    between atoms: C_2  and  C_22
REMARK    2  A    between atoms: N_3  and  C_4
REMARK    3  A    between atoms: C_10  and  N_11
REMARK    4  A    between atoms: C_15  and  C_16
REMARK    5  A    between atoms: C_27  and  N_28
REMARK                            x       y       z     vdW  Elec       q    Type
REMARK                         _______ _______ _______ _____ _____    ______ ____
ROOT
ATOM      1  C   UNL     1      -0.976  10.241  17.631  0.00  0.00    +0.000 C 
ATOM      2  C   UNL     1      -2.419   9.778  17.453  0.00  0.00    +0.000 C 
ATOM      3  C   UNL     1      -3.128  11.094  17.272  0.00  0.00    +0.000 C 
ATOM      4  F   UNL     1      -4.461  10.978  17.418  0.00  0.00    +0.000 F 
ATOM      5  F   UNL     1      -2.899  11.562  16.019  0.00  0.00    +0.000 F 
ATOM      6  C   UNL     1      -2.529  12.044  18.283  0.00  0.00    +0.000 C 
ATOM      7  C   UNL     1      -1.082  11.554  18.465  0.00  0.00    +0.000 C 
ENDROOT
BRANCH   7   8
ATOM      8  N   UNL     1      -0.159  12.592  18.011  0.00  0.00    +0.000 N 
ATOM      9  C   UNL     1       0.811  13.022  18.889  0.00  0.00    +0.000 A 
ATOM     10  N   UNL     1       1.862  13.650  18.348  0.00  0.00    +0.000 NA
ATOM     11  C   UNL     1       2.808  14.107  19.196  0.00  0.00    +0.000 A 
ATOM     12  C   UNL     1       2.758  13.926  20.555  0.00  0.00    +0.000 A 
ATOM     13  C   UNL     1       1.666  13.232  21.008  0.00  0.00    +0.000 A 
ATOM     14  N   UNL     1       0.688  12.789  20.199  0.00  0.00    +0.000 NA
ATOM     15  H   UNL     1       0.238  12.526  17.080  0.00  0.00    +0.000 HD
BRANCH  12  16
ATOM     16  C   UNL     1       3.788  14.437  21.487  0.00  0.00    +0.000 C 
ATOM     17  F   UNL     1       3.280  15.093  22.561  0.00  0.00    +0.000 F 
ATOM     18  F   UNL     1       4.575  13.444  21.988  0.00  0.00    +0.000 F 
ATOM     19  F   UNL     1       4.643  15.312  20.883  0.00  0.00    +0.000 F 
ENDBRANCH  12  16
ENDBRANCH   7   8
BRANCH   1  22
ATOM     20  O   UNL     1       1.893  10.170  17.517  0.00  0.00    +0.000 OA
ATOM     21  C   UNL     1       1.287   9.271  18.094  0.00  0.00    +0.000 C 
ATOM     22  N   UNL     1      -0.088   9.214  18.161  0.00  0.00    +0.000 N 
ATOM     23  H   UNL     1      -0.526   8.390  18.544  0.00  0.00    +0.000 HD
BRANCH  21  24
ATOM     24  C   UNL     1       2.061   8.129  18.681  0.00  0.00    +0.000 A 
ATOM     25  C   UNL     1       2.987   7.521  17.810  0.00  0.00    +0.000 A 
ATOM     26  C   UNL     1       3.706   6.385  18.195  0.00  0.00    +0.000 A 
ATOM     27  C   UNL     1       3.489   5.815  19.443  0.00  0.00    +0.000 A 
ATOM     28  C   UNL     1       2.580   6.403  20.323  0.00  0.00    +0.000 A 
ATOM     29  C   UNL     1       1.896   7.587  19.968  0.00  0.00    +0.000 A 
BRANCH  29  30
ATOM     30  N   UNL     1       1.148   8.228  20.982  0.00  0.00    +0.000 N 
ATOM     31  N   UNL     1       1.722   9.131  21.829  0.00  0.00    +0.000 NA
ATOM     32  C   UNL     1       0.687   9.525  22.572  0.00  0.00    +0.000 A 
ATOM     33  C   UNL     1      -0.476   8.891  22.138  0.00  0.00    +0.000 A 
ATOM     34  N   UNL     1      -0.187   8.052  21.143  0.00  0.00    +0.000 NA
ENDBRANCH  29  30
ENDBRANCH  21  24
ENDBRANCH   1  22
TORSDOF 5
ENDMDL
MODEL 8
REMARK VINA RESULT:      -7.4      5.089      8.250
REMARK  Name = 
REMARK  5 active torsions:
REMARK  status: ('A' for Active; 'I' for Inactive)
REMARK    1  A    between atoms: C_2  and  C_22
REMARK    2  A    between atoms: N_3  and  C_4
REMARK    3  A    between atoms: C_10  and  N_11
REMARK    4  A    between atoms: C_15  and  C_16
REMARK    5  A    between atoms: C_27  and  N_28
REMARK                            x       y       z     vdW  Elec       q    Type
REMARK                         _______ _______ _______ _____ _____    ______ ____
ROOT
ATOM      1  C   UNL     1      -0.708  13.223  19.265  0.00  0.00    +0.000 C 
ATOM      2  C   UNL     1      -0.581  14.286  20.352  0.00  0.00    +0.000 C 
ATOM      3  C   UNL     1       0.880  14.177  20.699  0.00  0.00    +0.000 C 
ATOM      4  F   UNL     1       1.175  14.789  21.861  0.00  0.00    +0.000 F 
ATOM      5  F   UNL     1       1.620  14.775  19.730  0.00  0.00    +0.000 F 
ATOM      6  C   UNL     1       1.200  12.701  20.740  0.00  0.00    +0.000 C 
ATOM      7  C   UNL     1       0.225  12.065  19.734  0.00  0.00    +0.000 C 
ENDROOT
BRANCH   7   8
ATOM      8  N   UNL     1       0.984  11.468  18.637  0.00  0.00    +0.000 N 
ATOM      9  C   UNL     1       1.350  10.144  18.751  0.00  0.00    +0.000 A 
ATOM     10  N   UNL     1       1.673   9.520  17.613  0.00  0.00    +0.000 NA
ATOM     11  C   UNL     1       2.065   8.232  17.709  0.00  0.00    +0.000 A 
ATOM     12  C   UNL     1       2.109   7.539  18.893  0.00  0.00    +0.000 A 
ATOM     13  C   UNL     1       1.716   8.252  19.996  0.00  0.00    +0.000 A 
ATOM     14  N   UNL     1       1.350   9.544  19.946  0.00  0.00    +0.000 NA
ATOM     15  H   UNL     1       0.700  11.654  17.682  0.00  0.00    +0.000 HD
BRANCH  12  16
ATOM     16  C   UNL     1       2.550   6.130  19.001  0.00  0.00    +0.000 C 
ATOM     17  F   UNL     1       2.041   5.321  18.036  0.00  0.00    +0.000 F 
ATOM     18  F   UNL     1       3.903   6.001  18.928  0.00  0.00    +0.000 F 
ATOM     19  F   UNL     1       2.191   5.566  20.190  0.00  0.00    +0.000 F 
ENDBRANCH  12  16
ENDBRANCH   7   8
BRANCH   1  22
ATOM     20  O   UNL     1      -2.765  12.427  21.106  0.00  0.00    +0.000 OA
ATOM     21  C   UNL     1      -3.024  12.515  19.908  0.00  0.00    +0.000 C 
ATOM     22  N   UNL     1      -2.084  12.854  18.959  0.00  0.00    +0.000 N 
ATOM     23  H   UNL     1      -2.331  12.793  17.982  0.00  0.00    +0.000 HD
BRANCH  21  24
ATOM     24  C   UNL     1      -4.398  12.154  19.431  0.00  0.00    +0.000 A 
ATOM     25  C   UNL     1      -5.457  12.666  20.205  0.00  0.00    +0.000 A 
ATOM     26  C   UNL     1      -6.786  12.329  19.931  0.00  0.00    +0.000 A 
ATOM     27  C   UNL     1      -7.080  11.445  18.899  0.00  0.00    +0.000 A 
ATOM     28  C   UNL     1      -6.047  10.928  18.117  0.00  0.00    +0.000 A 
ATOM     29  C   UNL     1      -4.707  11.314  18.346  0.00  0.00    +0.000 A 
BRANCH  29  30
ATOM     30  N   UNL     1      -3.747  10.906  17.391  0.00  0.00    +0.000 N 
ATOM     31  N   UNL     1      -2.744  10.039  17.715  0.00  0.00    +0.000 NA
ATOM     32  C   UNL     1      -2.115   9.880  16.549  0.00  0.00    +0.000 A 
ATOM     33  C   UNL     1      -2.767  10.612  15.556  0.00  0.00    +0.000 A 
ATOM     34  N   UNL     1      -3.791  11.280  16.088  0.00  0.00    +0.000 NA
ENDBRANCH  29  30
ENDBRANCH  21  24
ENDBRANCH   1  22
TORSDOF 5
ENDMDL
MODEL 9
REMARK VINA RESULT:      -7.4      6.532      9.693
REMARK  Name = 
REMARK  5 active torsions:
REMARK  status: ('A' for Active; 'I' for Inactive)
REMARK    1  A    between atoms: C_2  and  C_22
REMARK    2  A    between atoms: N_3  and  C_4
REMARK    3  A    between atoms: C_10  and  N_11
REMARK    4  A    between atoms: C_15  and  C_16
REMARK    5  A    between atoms: C_27  and  N_28
REMARK                            x       y       z     vdW  Elec       q    Type
REMARK                         _______ _______ _______ _____ _____    ______ ____
ROOT
ATOM      1  C   UNL     1      -2.905  11.245  18.289  0.00  0.00    +0.000 C 
ATOM      2  C   UNL     1      -4.106  10.547  17.660  0.00  0.00    +0.000 C 
ATOM      3  C   UNL     1      -5.182  11.582  17.855  0.00  0.00    +0.000 C 
ATOM      4  F   UNL     1      -6.415  11.077  17.672  0.00  0.00    +0.000 F 
ATOM      5  F   UNL     1      -5.017  12.581  16.950  0.00  0.00    +0.000 F 
ATOM      6  C   UNL     1      -4.996  12.131  19.251  0.00  0.00    +0.000 C 
ATOM      7  C   UNL     1      -3.488  12.002  19.521  0.00  0.00    +0.000 C 
ENDROOT
BRANCH   7   8
ATOM      8  N   UNL     1      -2.912  13.334  19.695  0.00  0.00    +0.000 N 
ATOM      9  C   UNL     1      -2.718  13.790  20.980  0.00  0.00    +0.000 A 
ATOM     10  N   UNL     1      -1.850  14.797  21.126  0.00  0.00    +0.000 NA
ATOM     11  C   UNL     1      -1.671  15.279  22.374  0.00  0.00    +0.000 A 
ATOM     12  C   UNL     1      -2.300  14.767  23.481  0.00  0.00    +0.000 A 
ATOM     13  C   UNL     1      -3.135  13.708  23.235  0.00  0.00    +0.000 A 
ATOM     14  N   UNL     1      -3.363  13.221  22.004  0.00  0.00    +0.000 NA
ATOM     15  H   UNL     1      -2.123  13.608  19.121  0.00  0.00    +0.000 HD
BRANCH  12  16
ATOM     16  C   UNL     1      -2.114  15.302  24.849  0.00  0.00    +0.000 C 
ATOM     17  F   UNL     1      -2.538  16.583  24.999  0.00  0.00    +0.000 F 
ATOM     18  F   UNL     1      -2.776  14.572  25.788  0.00  0.00    +0.000 F 
ATOM     19  F   UNL     1      -0.805  15.294  25.233  0.00  0.00    +0.000 F 
ENDBRANCH  12  16
ENDBRANCH   7   8
BRANCH   1  22
ATOM     20  O   UNL     1      -0.138  11.958  18.592  0.00  0.00    +0.000 OA
ATOM     21  C   UNL     1      -0.480  10.785  18.720  0.00  0.00    +0.000 C 
ATOM     22  N   UNL     1      -1.779  10.358  18.554  0.00  0.00    +0.000 N 
ATOM     23  H   UNL     1      -1.973   9.368  18.556  0.00  0.00    +0.000 HD
BRANCH  21  24
ATOM     24  C   UNL     1       0.568   9.745  18.981  0.00  0.00    +0.000 A 
ATOM     25  C   UNL     1       1.322   9.357  17.857  0.00  0.00    +0.000 A 
ATOM     26  C   UNL     1       2.266   8.328  17.936  0.00  0.00    +0.000 A 
ATOM     27  C   UNL     1       2.449   7.644  19.131  0.00  0.00    +0.000 A 
ATOM     28  C   UNL     1       1.716   8.014  20.259  0.00  0.00    +0.000 A 
ATOM     29  C   UNL     1       0.807   9.094  20.205  0.00  0.00    +0.000 A 
BRANCH  29  30
ATOM     30  N   UNL     1       0.254   9.533  21.430  0.00  0.00    +0.000 N 
ATOM     31  N   UNL     1       0.676   9.026  22.625  0.00  0.00    +0.000 NA
ATOM     32  C   UNL     1      -0.040   9.728  23.504  0.00  0.00    +0.000 A 
ATOM     33  C   UNL     1      -0.837  10.655  22.832  0.00  0.00    +0.000 A 
ATOM     34  N   UNL     1      -0.670  10.522  21.516  0.00  0.00    +0.000 NA
ENDBRANCH  29  30
ENDBRANCH  21  24
ENDBRANCH   1  22
TORSDOF 5
ENDMDL
