MODEL 1
REMARK VINA RESULT:      -9.4      0.000      0.000
REMARK  Name = 
REMARK  6 active torsions:
REMARK  status: ('A' for Active; 'I' for Inactive)
REMARK    1  A    between atoms: C_1  and  C_2
REMARK    2  A    between atoms: C_12  and  C_13
REMARK    3  A    between atoms: C_21  and  C_22
REMARK    4  A    between atoms: C_24  and  C_26
REMARK    5  A    between atoms: C_29  and  O_30
REMARK    6  A    between atoms: C_32  and  O_33
REMARK                            x       y       z     vdW  Elec       q    Type
REMARK                         _______ _______ _______ _____ _____    ______ ____
ROOT
ATOM      1  C   UNL     1       1.003  10.160  19.276  0.00  0.00    +0.000 A 
ATOM      2  C   UNL     1       1.794  10.080  18.140  0.00  0.00    +0.000 A 
ATOM      3  C   UNL     1       2.471   8.846  17.811  0.00  0.00    +0.000 A 
ATOM      4  C   UNL     1       2.384   7.688  18.614  0.00  0.00    +0.000 A 
ATOM      5  C   UNL     1       1.735   7.886  19.831  0.00  0.00    +0.000 A 
ATOM      6  C   UNL     1       1.140   9.106  20.168  0.00  0.00    +0.000 A 
ATOM      7  C   UNL     1       1.609   6.881  20.905  0.00  0.00    +0.000 C 
ATOM      8  C   UNL     1       1.516   5.548  20.279  0.00  0.00    +0.000 C 
ATOM      9  C   UNL     1       2.702   5.232  19.346  0.00  0.00    +0.000 C 
ATOM     10  C   UNL     1       2.363   3.724  19.115  0.00  0.00    +0.000 C 
ATOM     11  N   UNL     1       2.944   6.316  18.241  0.00  0.00    +0.000 N 
ATOM     12  C   UNL     1       4.233   6.464  17.578  0.00  0.00    +0.000 C 
ATOM     13  O   UNL     1       4.883   7.513  17.751  0.00  0.00    +0.000 OA
ENDROOT
BRANCH   1  25
ATOM     14  C   UNL     1      -1.583  10.259  17.681  0.00  0.00    +0.000 C 
ATOM     15  C   UNL     1      -1.344  11.064  18.925  0.00  0.00    +0.000 A 
ATOM     16  C   UNL     1      -2.443  11.679  19.554  0.00  0.00    +0.000 A 
ATOM     17  C   UNL     1      -2.321  12.265  20.823  0.00  0.00    +0.000 A 
ATOM     18  C   UNL     1      -3.417  12.847  21.492  0.00  0.00    +0.000 A 
ATOM     19  C   UNL     1      -3.251  13.383  22.768  0.00  0.00    +0.000 A 
ATOM     20 CL   UNL     1      -4.570  14.166  23.551  0.00  0.00    +0.000 Cl
ATOM     21  C   UNL     1      -2.021  13.300  23.402  0.00  0.00    +0.000 A 
ATOM     22  C   UNL     1      -0.941  12.719  22.728  0.00  0.00    +0.000 A 
ATOM     23  C   UNL     1      -1.058  12.232  21.427  0.00  0.00    +0.000 A 
ATOM     24  N   UNL     1       0.013  11.712  20.803  0.00  0.00    +0.000 NA
ATOM     25  C   UNL     1      -0.111  11.102  19.581  0.00  0.00    +0.000 A 
ENDBRANCH   1  25
BRANCH  12  26
ATOM     26  C   UNL     1       4.933   5.524  16.610  0.00  0.00    +0.000 A 
ATOM     27  C   UNL     1       4.976   5.960  15.251  0.00  0.00    +0.000 A 
ATOM     28  C   UNL     1       5.549   5.206  14.214  0.00  0.00    +0.000 A 
ATOM     29  C   UNL     1       6.125   3.989  14.512  0.00  0.00    +0.000 A 
ATOM     30  C   UNL     1       6.111   3.524  15.816  0.00  0.00    +0.000 A 
ATOM     31  C   UNL     1       5.488   4.270  16.833  0.00  0.00    +0.000 A 
BRANCH  29  32
ATOM     32  O   UNL     1       6.673   3.193  13.555  0.00  0.00    +0.000 OA
ATOM     33  H   UNL     1       7.130   3.755  12.908  0.00  0.00    +0.000 HD
ENDBRANCH  29  32
BRANCH  31  34
ATOM     34  O   UNL     1       5.385   3.653  18.029  0.00  0.00    +0.000 OA
ATOM     35  H   UNL     1       5.613   2.713  17.918  0.00  0.00    +0.000 HD
ENDBRANCH  31  34
ENDBRANCH  12  26
TORSDOF 4
ENDMDL
MODEL 2
REMARK VINA RESULT:      -9.3      1.494      2.438
REMARK  Name = 
REMARK  6 active torsions:
REMARK  status: ('A' for Active; 'I' for Inactive)
REMARK    1  A    between atoms: C_1  and  C_2
REMARK    2  A    between atoms: C_12  and  C_13
REMARK    3  A    between atoms: C_21  and  C_22
REMARK    4  A    between atoms: C_24  and  C_26
REMARK    5  A    between atoms: C_29  and  O_30
REMARK    6  A    between atoms: C_32  and  O_33
REMARK                            x       y       z     vdW  Elec       q    Type
REMARK                         _______ _______ _______ _____ _____    ______ ____
ROOT
ATOM      1  C   UNL     1       1.545   8.619  19.741  0.00  0.00    +0.000 A 
ATOM      2  C   UNL     1       2.218   8.910  18.565  0.00  0.00    +0.000 A 
ATOM      3  C   UNL     1       2.940   7.872  17.863  0.00  0.00    +0.000 A 
ATOM      4  C   UNL     1       3.016   6.543  18.331  0.00  0.00    +0.000 A 
ATOM      5  C   UNL     1       2.485   6.357  19.607  0.00  0.00    +0.000 A 
ATOM      6  C   UNL     1       1.846   7.386  20.304  0.00  0.00    +0.000 A 
ATOM      7  C   UNL     1       2.540   5.100  20.379  0.00  0.00    +0.000 C 
ATOM      8  C   UNL     1       2.474   3.973  19.429  0.00  0.00    +0.000 C 
ATOM      9  C   UNL     1       3.575   4.023  18.352  0.00  0.00    +0.000 C 
ATOM     10  C   UNL     1       3.318   2.601  17.755  0.00  0.00    +0.000 C 
ATOM     11  N   UNL     1       3.627   5.373  17.561  0.00  0.00    +0.000 N 
ATOM     12  C   UNL     1       4.828   5.808  16.859  0.00  0.00    +0.000 C 
ATOM     13  O   UNL     1       5.418   6.832  17.252  0.00  0.00    +0.000 OA
ENDROOT
BRANCH   1  25
ATOM     14  C   UNL     1       1.426   9.261  22.709  0.00  0.00    +0.000 C 
ATOM     15  C   UNL     1       0.409   9.740  21.716  0.00  0.00    +0.000 A 
ATOM     16  C   UNL     1      -0.484  10.758  22.099  0.00  0.00    +0.000 A 
ATOM     17  C   UNL     1      -1.313  11.391  21.162  0.00  0.00    +0.000 A 
ATOM     18  C   UNL     1      -2.184  12.442  21.513  0.00  0.00    +0.000 A 
ATOM     19  C   UNL     1      -2.960  13.063  20.536  0.00  0.00    +0.000 A 
ATOM     20 CL   UNL     1      -4.081  14.292  20.979  0.00  0.00    +0.000 Cl
ATOM     21  C   UNL     1      -2.840  12.682  19.209  0.00  0.00    +0.000 A 
ATOM     22  C   UNL     1      -1.972  11.637  18.871  0.00  0.00    +0.000 A 
ATOM     23  C   UNL     1      -1.231  10.953  19.833  0.00  0.00    +0.000 A 
ATOM     24  N   UNL     1      -0.435   9.933  19.471  0.00  0.00    +0.000 NA
ATOM     25  C   UNL     1       0.407   9.340  20.377  0.00  0.00    +0.000 A 
ENDBRANCH   1  25
BRANCH  12  26
ATOM     26  C   UNL     1       5.485   5.222  15.620  0.00  0.00    +0.000 A 
ATOM     27  C   UNL     1       4.671   4.340  14.848  0.00  0.00    +0.000 A 
ATOM     28  C   UNL     1       5.122   3.680  13.694  0.00  0.00    +0.000 A 
ATOM     29  C   UNL     1       6.411   3.903  13.258  0.00  0.00    +0.000 A 
ATOM     30  C   UNL     1       7.239   4.752  13.971  0.00  0.00    +0.000 A 
ATOM     31  C   UNL     1       6.786   5.366  15.153  0.00  0.00    +0.000 A 
BRANCH  29  32
ATOM     32  O   UNL     1       6.925   3.277  12.165  0.00  0.00    +0.000 OA
ATOM     33  H   UNL     1       6.226   3.203  11.493  0.00  0.00    +0.000 HD
ENDBRANCH  29  32
BRANCH  31  34
ATOM     34  O   UNL     1       7.721   6.038  15.856  0.00  0.00    +0.000 OA
ATOM     35  H   UNL     1       8.461   6.259  15.264  0.00  0.00    +0.000 HD
ENDBRANCH  31  34
ENDBRANCH  12  26
TORSDOF 4
ENDMDL
MODEL 3
REMARK VINA RESULT:      -9.0      1.823      2.544
REMARK  Name = 
REMARK  6 active torsions:
REMARK  status: ('A' for Active; 'I' for Inactive)
REMARK    1  A    between atoms: C_1  and  C_2
REMARK    2  A    between atoms: C_12  and  C_13
REMARK    3  A    between atoms: C_21  and  C_22
REMARK    4  A    between atoms: C_24  and  C_26
REMARK    5  A    between atoms: C_29  and  O_30
REMARK    6  A    between atoms: C_32  and  O_33
REMARK                            x       y       z     vdW  Elec       q    Type
REMARK                         _______ _______ _______ _____ _____    ______ ____
ROOT
ATOM      1  C   UNL     1       1.079   9.396  19.156  0.00  0.00    +0.000 A 
ATOM      2  C   UNL     1       1.808   9.521  17.984  0.00  0.00    +0.000 A 
ATOM      3  C   UNL     1       2.622   8.423  17.512  0.00  0.00    +0.000 A 
ATOM      4  C   UNL     1       2.732   7.200  18.206  0.00  0.00    +0.000 A 
ATOM      5  C   UNL     1       2.132   7.202  19.465  0.00  0.00    +0.000 A 
ATOM      6  C   UNL     1       1.403   8.297  19.939  0.00  0.00    +0.000 A 
ATOM      7  C   UNL     1       2.200   6.100  20.444  0.00  0.00    +0.000 C 
ATOM      8  C   UNL     1       2.247   4.826  19.702  0.00  0.00    +0.000 C 
ATOM      9  C   UNL     1       3.409   4.756  18.691  0.00  0.00    +0.000 C 
ATOM     10  C   UNL     1       3.258   3.242  18.336  0.00  0.00    +0.000 C 
ATOM     11  N   UNL     1       3.445   5.954  17.682  0.00  0.00    +0.000 N 
ATOM     12  C   UNL     1       4.664   6.332  16.980  0.00  0.00    +0.000 C 
ATOM     13  O   UNL     1       5.179   7.440  17.221  0.00  0.00    +0.000 OA
ENDROOT
BRANCH   1  25
ATOM     14  C   UNL     1       1.204  11.881  20.902  0.00  0.00    +0.000 C 
ATOM     15  C   UNL     1      -0.065  11.355  20.296  0.00  0.00    +0.000 A 
ATOM     16  C   UNL     1      -1.204  12.182  20.289  0.00  0.00    +0.000 A 
ATOM     17  C   UNL     1      -2.351  11.835  19.560  0.00  0.00    +0.000 A 
ATOM     18  C   UNL     1      -3.487  12.667  19.501  0.00  0.00    +0.000 A 
ATOM     19  C   UNL     1      -4.587  12.294  18.731  0.00  0.00    +0.000 A 
ATOM     20 CL   UNL     1      -6.005  13.270  18.724  0.00  0.00    +0.000 Cl
ATOM     21  C   UNL     1      -4.547  11.128  17.982  0.00  0.00    +0.000 A 
ATOM     22  C   UNL     1      -3.413  10.310  18.048  0.00  0.00    +0.000 A 
ATOM     23  C   UNL     1      -2.323  10.623  18.858  0.00  0.00    +0.000 A 
ATOM     24  N   UNL     1      -1.268   9.792  18.919  0.00  0.00    +0.000 NA
ATOM     25  C   UNL     1      -0.130  10.148  19.597  0.00  0.00    +0.000 A 
ENDBRANCH   1  25
BRANCH  12  26
ATOM     26  C   UNL     1       5.425   5.583  15.898  0.00  0.00    +0.000 A 
ATOM     27  C   UNL     1       4.649   4.676  15.114  0.00  0.00    +0.000 A 
ATOM     28  C   UNL     1       5.190   3.875  14.095  0.00  0.00    +0.000 A 
ATOM     29  C   UNL     1       6.535   3.975  13.810  0.00  0.00    +0.000 A 
ATOM     30  C   UNL     1       7.329   4.841  14.541  0.00  0.00    +0.000 A 
ATOM     31  C   UNL     1       6.780   5.600  15.592  0.00  0.00    +0.000 A 
BRANCH  29  32
ATOM     32  O   UNL     1       7.133   3.210  12.857  0.00  0.00    +0.000 OA
ATOM     33  H   UNL     1       7.891   2.752  13.257  0.00  0.00    +0.000 HD
ENDBRANCH  29  32
BRANCH  31  34
ATOM     34  O   UNL     1       7.668   6.283  16.343  0.00  0.00    +0.000 OA
ATOM     35  H   UNL     1       7.730   7.194  16.006  0.00  0.00    +0.000 HD
ENDBRANCH  31  34
ENDBRANCH  12  26
TORSDOF 4
ENDMDL
MODEL 4
REMARK VINA RESULT:      -8.9      2.636      4.005
REMARK  Name = 
REMARK  6 active torsions:
REMARK  status: ('A' for Active; 'I' for Inactive)
REMARK    1  A    between atoms: C_1  and  C_2
REMARK    2  A    between atoms: C_12  and  C_13
REMARK    3  A    between atoms: C_21  and  C_22
REMARK    4  A    between atoms: C_24  and  C_26
REMARK    5  A    between atoms: C_29  and  O_30
REMARK    6  A    between atoms: C_32  and  O_33
REMARK                            x       y       z     vdW  Elec       q    Type
REMARK                         _______ _______ _______ _____ _____    ______ ____
ROOT
ATOM      1  C   UNL     1      -0.110  10.581  21.731  0.00  0.00    +0.000 A 
ATOM      2  C   UNL     1       0.183   9.424  22.435  0.00  0.00    +0.000 A 
ATOM      3  C   UNL     1       0.882   8.336  21.789  0.00  0.00    +0.000 A 
ATOM      4  C   UNL     1       1.280   8.378  20.436  0.00  0.00    +0.000 A 
ATOM      5  C   UNL     1       0.793   9.480  19.733  0.00  0.00    +0.000 A 
ATOM      6  C   UNL     1       0.060  10.495  20.356  0.00  0.00    +0.000 A 
ATOM      7  C   UNL     1       0.957   9.708  18.284  0.00  0.00    +0.000 C 
ATOM      8  C   UNL     1       2.257   9.143  17.873  0.00  0.00    +0.000 C 
ATOM      9  C   UNL     1       2.410   7.652  18.231  0.00  0.00    +0.000 C 
ATOM     10  C   UNL     1       3.733   7.403  17.437  0.00  0.00    +0.000 C 
ATOM     11  N   UNL     1       2.154   7.333  19.743  0.00  0.00    +0.000 N 
ATOM     12  C   UNL     1       1.791   5.997  20.197  0.00  0.00    +0.000 C 
ATOM     13  O   UNL     1       0.666   5.815  20.697  0.00  0.00    +0.000 OA
ENDROOT
BRANCH   1  25
ATOM     14  C   UNL     1       1.314  13.064  20.708  0.00  0.00    +0.000 C 
ATOM     15  C   UNL     1       0.182  13.103  21.692  0.00  0.00    +0.000 A 
ATOM     16  C   UNL     1      -0.448  14.335  21.950  0.00  0.00    +0.000 A 
ATOM     17  C   UNL     1      -1.635  14.405  22.693  0.00  0.00    +0.000 A 
ATOM     18  C   UNL     1      -2.308  15.621  22.927  0.00  0.00    +0.000 A 
ATOM     19  C   UNL     1      -3.505  15.631  23.640  0.00  0.00    +0.000 A 
ATOM     20 CL   UNL     1      -4.284  17.125  23.995  0.00  0.00    +0.000 Cl
ATOM     21  C   UNL     1      -4.063  14.440  24.077  0.00  0.00    +0.000 A 
ATOM     22  C   UNL     1      -3.387  13.238  23.839  0.00  0.00    +0.000 A 
ATOM     23  C   UNL     1      -2.156  13.201  23.185  0.00  0.00    +0.000 A 
ATOM     24  N   UNL     1      -1.523  12.029  23.006  0.00  0.00    +0.000 NA
ATOM     25  C   UNL     1      -0.384  11.952  22.246  0.00  0.00    +0.000 A 
ENDBRANCH   1  25
BRANCH  12  26
ATOM     26  C   UNL     1       2.626   4.727  20.218  0.00  0.00    +0.000 A 
ATOM     27  C   UNL     1       3.894   4.812  19.567  0.00  0.00    +0.000 A 
ATOM     28  C   UNL     1       4.783   3.730  19.458  0.00  0.00    +0.000 A 
ATOM     29  C   UNL     1       4.436   2.521  20.024  0.00  0.00    +0.000 A 
ATOM     30  C   UNL     1       3.218   2.389  20.668  0.00  0.00    +0.000 A 
ATOM     31  C   UNL     1       2.319   3.470  20.724  0.00  0.00    +0.000 A 
BRANCH  29  32
ATOM     32  O   UNL     1       5.233   1.423  19.932  0.00  0.00    +0.000 OA
ATOM     33  H   UNL     1       5.244   1.123  19.007  0.00  0.00    +0.000 HD
ENDBRANCH  29  32
BRANCH  31  34
ATOM     34  O   UNL     1       1.099   3.188  21.227  0.00  0.00    +0.000 OA
ATOM     35  H   UNL     1       0.423   3.454  20.579  0.00  0.00    +0.000 HD
ENDBRANCH  31  34
ENDBRANCH  12  26
TORSDOF 4
ENDMDL
MODEL 5
REMARK VINA RESULT:      -8.8      2.469      3.917
REMARK  Name = 
REMARK  6 active torsions:
REMARK  status: ('A' for Active; 'I' for Inactive)
REMARK    1  A    between atoms: C_1  and  C_2
REMARK    2  A    between atoms: C_12  and  C_13
REMARK    3  A    between atoms: C_21  and  C_22
REMARK    4  A    between atoms: C_24  and  C_26
REMARK    5  A    between atoms: C_29  and  O_30
REMARK    6  A    between atoms: C_32  and  O_33
REMARK                            x       y       z     vdW  Elec       q    Type
REMARK                         _______ _______ _______ _____ _____    ______ ____
ROOT
ATOM      1  C   UNL     1      -0.271  10.333  21.810  0.00  0.00    +0.000 A 
ATOM      2  C   UNL     1       0.167   9.185  22.451  0.00  0.00    +0.000 A 
ATOM      3  C   UNL     1       0.934   8.195  21.729  0.00  0.00    +0.000 A 
ATOM      4  C   UNL     1       1.259   8.328  20.361  0.00  0.00    +0.000 A 
ATOM      5  C   UNL     1       0.633   9.401  19.729  0.00  0.00    +0.000 A 
ATOM      6  C   UNL     1      -0.162  10.316  20.427  0.00  0.00    +0.000 A 
ATOM      7  C   UNL     1       0.702   9.699  18.285  0.00  0.00    +0.000 C 
ATOM      8  C   UNL     1       2.028   9.281  17.792  0.00  0.00    +0.000 C 
ATOM      9  C   UNL     1       2.343   7.800  18.079  0.00  0.00    +0.000 C 
ATOM     10  C   UNL     1       3.642   7.713  17.215  0.00  0.00    +0.000 C 
ATOM     11  N   UNL     1       2.194   7.401  19.586  0.00  0.00    +0.000 N 
ATOM     12  C   UNL     1       1.985   6.019  19.999  0.00  0.00    +0.000 C 
ATOM     13  O   UNL     1       0.908   5.708  20.542  0.00  0.00    +0.000 OA
ENDROOT
BRANCH   1  25
ATOM     14  C   UNL     1       1.006  12.961  20.973  0.00  0.00    +0.000 C 
ATOM     15  C   UNL     1      -0.150  12.867  21.925  0.00  0.00    +0.000 A 
ATOM     16  C   UNL     1      -0.868  14.037  22.235  0.00  0.00    +0.000 A 
ATOM     17  C   UNL     1      -2.076  13.984  22.946  0.00  0.00    +0.000 A 
ATOM     18  C   UNL     1      -2.835  15.137  23.230  0.00  0.00    +0.000 A 
ATOM     19  C   UNL     1      -4.048  15.025  23.907  0.00  0.00    +0.000 A 
ATOM     20 CL   UNL     1      -4.935  16.441  24.324  0.00  0.00    +0.000 Cl
ATOM     21  C   UNL     1      -4.535  13.776  24.259  0.00  0.00    +0.000 A 
ATOM     22  C   UNL     1      -3.772  12.638  23.972  0.00  0.00    +0.000 A 
ATOM     23  C   UNL     1      -2.526  12.721  23.353  0.00  0.00    +0.000 A 
ATOM     24  N   UNL     1      -1.810  11.606  23.126  0.00  0.00    +0.000 NA
ATOM     25  C   UNL     1      -0.651  11.650  22.395  0.00  0.00    +0.000 A 
ENDBRANCH   1  25
BRANCH  12  26
ATOM     26  C   UNL     1       2.939   4.838  19.928  0.00  0.00    +0.000 A 
ATOM     27  C   UNL     1       2.404   3.587  20.360  0.00  0.00    +0.000 A 
ATOM     28  C   UNL     1       3.150   2.397  20.397  0.00  0.00    +0.000 A 
ATOM     29  C   UNL     1       4.463   2.419  19.975  0.00  0.00    +0.000 A 
ATOM     30  C   UNL     1       5.026   3.607  19.544  0.00  0.00    +0.000 A 
ATOM     31  C   UNL     1       4.279   4.799  19.562  0.00  0.00    +0.000 A 
BRANCH  29  32
ATOM     32  O   UNL     1       5.253   1.312  20.010  0.00  0.00    +0.000 OA
ATOM     33  H   UNL     1       5.546   1.168  20.925  0.00  0.00    +0.000 HD
ENDBRANCH  29  32
BRANCH  31  34
ATOM     34  O   UNL     1       4.969   5.924  19.281  0.00  0.00    +0.000 OA
ATOM     35  H   UNL     1       5.356   6.270  20.104  0.00  0.00    +0.000 HD
ENDBRANCH  31  34
ENDBRANCH  12  26
TORSDOF 4
ENDMDL
MODEL 6
REMARK VINA RESULT:      -8.7      4.729     10.589
REMARK  Name = 
REMARK  6 active torsions:
REMARK  status: ('A' for Active; 'I' for Inactive)
REMARK    1  A    between atoms: C_1  and  C_2
REMARK    2  A    between atoms: C_12  and  C_13
REMARK    3  A    between atoms: C_21  and  C_22
REMARK    4  A    between atoms: C_24  and  C_26
REMARK    5  A    between atoms: C_29  and  O_30
REMARK    6  A    between atoms: C_32  and  O_33
REMARK                            x       y       z     vdW  Elec       q    Type
REMARK                         _______ _______ _______ _____ _____    ______ ____
ROOT
ATOM      1  C   UNL     1       1.836   8.492  19.641  0.00  0.00    +0.000 A 
ATOM      2  C   UNL     1       1.456   8.942  20.896  0.00  0.00    +0.000 A 
ATOM      3  C   UNL     1       0.308   9.808  21.043  0.00  0.00    +0.000 A 
ATOM      4  C   UNL     1      -0.461  10.250  19.945  0.00  0.00    +0.000 A 
ATOM      5  C   UNL     1       0.079   9.922  18.702  0.00  0.00    +0.000 A 
ATOM      6  C   UNL     1       1.229   9.138  18.574  0.00  0.00    +0.000 A 
ATOM      7  C   UNL     1      -0.456  10.361  17.398  0.00  0.00    +0.000 C 
ATOM      8  C   UNL     1      -1.924  10.460  17.512  0.00  0.00    +0.000 C 
ATOM      9  C   UNL     1      -2.381  11.392  18.651  0.00  0.00    +0.000 C 
ATOM     10  C   UNL     1      -3.898  11.416  18.276  0.00  0.00    +0.000 C 
ATOM     11  N   UNL     1      -1.770  11.032  20.048  0.00  0.00    +0.000 N 
ATOM     12  C   UNL     1      -1.686  12.010  21.125  0.00  0.00    +0.000 C 
ATOM     13  O   UNL     1      -0.564  12.379  21.518  0.00  0.00    +0.000 OA
ENDROOT
BRANCH   1  25
ATOM     14  C   UNL     1       1.132   5.674  20.536  0.00  0.00    +0.000 C 
ATOM     15  C   UNL     1       2.250   5.987  19.585  0.00  0.00    +0.000 A 
ATOM     16  C   UNL     1       2.826   4.936  18.849  0.00  0.00    +0.000 A 
ATOM     17  C   UNL     1       3.724   5.187  17.801  0.00  0.00    +0.000 A 
ATOM     18  C   UNL     1       4.280   4.154  17.020  0.00  0.00    +0.000 A 
ATOM     19  C   UNL     1       5.138   4.459  15.965  0.00  0.00    +0.000 A 
ATOM     20 CL   UNL     1       5.880   3.194  15.063  0.00  0.00    +0.000 Cl
ATOM     21  C   UNL     1       5.407   5.782  15.650  0.00  0.00    +0.000 A 
ATOM     22  C   UNL     1       4.849   6.800  16.432  0.00  0.00    +0.000 A 
ATOM     23  C   UNL     1       4.039   6.526  17.532  0.00  0.00    +0.000 A 
ATOM     24  N   UNL     1       3.550   7.532  18.278  0.00  0.00    +0.000 NA
ATOM     25  C   UNL     1       2.641   7.293  19.276  0.00  0.00    +0.000 A 
ENDBRANCH   1  25
BRANCH  12  26
ATOM     26  C   UNL     1      -2.802  12.647  21.937  0.00  0.00    +0.000 A 
ATOM     27  C   UNL     1      -3.004  12.102  23.241  0.00  0.00    +0.000 A 
ATOM     28  C   UNL     1      -4.011  12.542  24.116  0.00  0.00    +0.000 A 
ATOM     29  C   UNL     1      -4.841  13.569  23.718  0.00  0.00    +0.000 A 
ATOM     30  C   UNL     1      -4.682  14.131  22.463  0.00  0.00    +0.000 A 
ATOM     31  C   UNL     1      -3.701  13.644  21.580  0.00  0.00    +0.000 A 
BRANCH  29  32
ATOM     32  O   UNL     1      -5.854  14.026  24.501  0.00  0.00    +0.000 OA
ATOM     33  H   UNL     1      -6.040  13.363  25.187  0.00  0.00    +0.000 HD
ENDBRANCH  29  32
BRANCH  31  34
ATOM     34  O   UNL     1      -3.741  14.148  20.330  0.00  0.00    +0.000 OA
ATOM     35  H   UNL     1      -3.387  15.055  20.344  0.00  0.00    +0.000 HD
ENDBRANCH  31  34
ENDBRANCH  12  26
TORSDOF 4
ENDMDL
MODEL 7
REMARK VINA RESULT:      -8.7      4.908     10.690
REMARK  Name = 
REMARK  6 active torsions:
REMARK  status: ('A' for Active; 'I' for Inactive)
REMARK    1  A    between atoms: C_1  and  C_2
REMARK    2  A    between atoms: C_12  and  C_13
REMARK    3  A    between atoms: C_21  and  C_22
REMARK    4  A    between atoms: C_24  and  C_26
REMARK    5  A    between atoms: C_29  and  O_30
REMARK    6  A    between atoms: C_32  and  O_33
REMARK                            x       y       z     vdW  Elec       q    Type
REMARK                         _______ _______ _______ _____ _____    ______ ____
ROOT
ATOM      1  C   UNL     1       1.321   9.407  19.115  0.00  0.00    +0.000 A 
ATOM      2  C   UNL     1       1.065  10.263  20.174  0.00  0.00    +0.000 A 
ATOM      3  C   UNL     1      -0.194  10.968  20.252  0.00  0.00    +0.000 A 
ATOM      4  C   UNL     1      -1.203  10.844  19.272  0.00  0.00    +0.000 A 
ATOM      5  C   UNL     1      -0.814  10.123  18.144  0.00  0.00    +0.000 A 
ATOM      6  C   UNL     1       0.434   9.500  18.052  0.00  0.00    +0.000 A 
ATOM      7  C   UNL     1      -1.628   9.943  16.925  0.00  0.00    +0.000 C 
ATOM      8  C   UNL     1      -3.048   9.898  17.322  0.00  0.00    +0.000 C 
ATOM      9  C   UNL     1      -3.494  11.138  18.121  0.00  0.00    +0.000 C 
ATOM     10  C   UNL     1      -5.026  10.826  18.113  0.00  0.00    +0.000 C 
ATOM     11  N   UNL     1      -2.608  11.436  19.377  0.00  0.00    +0.000 N 
ATOM     12  C   UNL     1      -2.550  12.760  19.981  0.00  0.00    +0.000 C 
ATOM     13  O   UNL     1      -1.476  13.390  19.952  0.00  0.00    +0.000 OA
ENDROOT
BRANCH   1  25
ATOM     14  C   UNL     1       1.087   6.904  20.823  0.00  0.00    +0.000 C 
ATOM     15  C   UNL     1       2.103   7.071  19.732  0.00  0.00    +0.000 A 
ATOM     16  C   UNL     1       2.799   5.936  19.275  0.00  0.00    +0.000 A 
ATOM     17  C   UNL     1       3.603   5.987  18.127  0.00  0.00    +0.000 A 
ATOM     18  C   UNL     1       4.274   4.854  17.625  0.00  0.00    +0.000 A 
ATOM     19  C   UNL     1       5.030   4.949  16.459  0.00  0.00    +0.000 A 
ATOM     20 CL   UNL     1       5.915   3.585  15.891  0.00  0.00    +0.000 Cl
ATOM     21  C   UNL     1       5.084   6.147  15.762  0.00  0.00    +0.000 A 
ATOM     22  C   UNL     1       4.413   7.265  16.270  0.00  0.00    +0.000 A 
ATOM     23  C   UNL     1       3.702   7.219  17.467  0.00  0.00    +0.000 A 
ATOM     24  N   UNL     1       3.100   8.325  17.937  0.00  0.00    +0.000 NA
ATOM     25  C   UNL     1       2.280   8.269  19.035  0.00  0.00    +0.000 A 
ENDBRANCH   1  25
BRANCH  12  26
ATOM     26  C   UNL     1      -3.626  13.522  20.737  0.00  0.00    +0.000 A 
ATOM     27  C   UNL     1      -4.636  12.720  21.347  0.00  0.00    +0.000 A 
ATOM     28  C   UNL     1      -5.726  13.253  22.055  0.00  0.00    +0.000 A 
ATOM     29  C   UNL     1      -5.826  14.621  22.196  0.00  0.00    +0.000 A 
ATOM     30  C   UNL     1      -4.870  15.442  21.624  0.00  0.00    +0.000 A 
ATOM     31  C   UNL     1      -3.812  14.892  20.876  0.00  0.00    +0.000 A 
BRANCH  29  32
ATOM     32  O   UNL     1      -6.869  15.208  22.843  0.00  0.00    +0.000 OA
ATOM     33  H   UNL     1      -6.516  15.791  23.536  0.00  0.00    +0.000 HD
ENDBRANCH  29  32
BRANCH  31  34
ATOM     34  O   UNL     1      -3.034  15.783  20.227  0.00  0.00    +0.000 OA
ATOM     35  H   UNL     1      -3.598  16.490  19.867  0.00  0.00    +0.000 HD
ENDBRANCH  31  34
ENDBRANCH  12  26
TORSDOF 4
ENDMDL
MODEL 8
REMARK VINA RESULT:      -8.6      4.808     10.488
REMARK  Name = 
REMARK  6 active torsions:
REMARK  status: ('A' for Active; 'I' for Inactive)
REMARK    1  A    between atoms: C_1  and  C_2
REMARK    2  A    between atoms: C_12  and  C_13
REMARK    3  A    between atoms: C_21  and  C_22
REMARK    4  A    between atoms: C_24  and  C_26
REMARK    5  A    between atoms: C_29  and  O_30
REMARK    6  A    between atoms: C_32  and  O_33
REMARK                            x       y       z     vdW  Elec       q    Type
REMARK                         _______ _______ _______ _____ _____    ______ ____
ROOT
ATOM      1  C   UNL     1       1.750   8.193  19.793  0.00  0.00    +0.000 A 
ATOM      2  C   UNL     1       1.709   8.703  21.081  0.00  0.00    +0.000 A 
ATOM      3  C   UNL     1       0.799   9.777  21.410  0.00  0.00    +0.000 A 
ATOM      4  C   UNL     1      -0.065  10.365  20.461  0.00  0.00    +0.000 A 
ATOM      5  C   UNL     1       0.155   9.942  19.151  0.00  0.00    +0.000 A 
ATOM      6  C   UNL     1       1.087   8.948  18.836  0.00  0.00    +0.000 A 
ATOM      7  C   UNL     1      -0.523  10.481  17.955  0.00  0.00    +0.000 C 
ATOM      8  C   UNL     1      -1.895  10.865  18.338  0.00  0.00    +0.000 C 
ATOM      9  C   UNL     1      -1.940  11.864  19.511  0.00  0.00    +0.000 C 
ATOM     10  C   UNL     1      -3.467  12.186  19.426  0.00  0.00    +0.000 C 
ATOM     11  N   UNL     1      -1.155  11.387  20.780  0.00  0.00    +0.000 N 
ATOM     12  C   UNL     1      -0.681  12.326  21.789  0.00  0.00    +0.000 C 
ATOM     13  O   UNL     1       0.545  12.467  21.952  0.00  0.00    +0.000 OA
ENDROOT
BRANCH   1  25
ATOM     14  C   UNL     1       3.627   7.825  17.431  0.00  0.00    +0.000 C 
ATOM     15  C   UNL     1       3.179   6.700  18.317  0.00  0.00    +0.000 A 
ATOM     16  C   UNL     1       3.860   5.471  18.246  0.00  0.00    +0.000 A 
ATOM     17  C   UNL     1       3.630   4.455  19.185  0.00  0.00    +0.000 A 
ATOM     18  C   UNL     1       4.332   3.233  19.161  0.00  0.00    +0.000 A 
ATOM     19  C   UNL     1       4.093   2.270  20.140  0.00  0.00    +0.000 A 
ATOM     20 CL   UNL     1       4.890   0.746  20.063  0.00  0.00    +0.000 Cl
ATOM     21  C   UNL     1       3.201   2.533  21.169  0.00  0.00    +0.000 A 
ATOM     22  C   UNL     1       2.511   3.751  21.183  0.00  0.00    +0.000 A 
ATOM     23  C   UNL     1       2.680   4.707  20.183  0.00  0.00    +0.000 A 
ATOM     24  N   UNL     1       1.972   5.849  20.216  0.00  0.00    +0.000 NA
ATOM     25  C   UNL     1       2.224   6.860  19.324  0.00  0.00    +0.000 A 
ENDBRANCH   1  25
BRANCH  12  26
ATOM     26  C   UNL     1      -1.479  13.166  22.773  0.00  0.00    +0.000 A 
ATOM     27  C   UNL     1      -2.809  12.717  23.031  0.00  0.00    +0.000 A 
ATOM     28  C   UNL     1      -3.701  13.388  23.884  0.00  0.00    +0.000 A 
ATOM     29  C   UNL     1      -3.276  14.529  24.531  0.00  0.00    +0.000 A 
ATOM     30  C   UNL     1      -1.994  15.003  24.315  0.00  0.00    +0.000 A 
ATOM     31  C   UNL     1      -1.131  14.346  23.419  0.00  0.00    +0.000 A 
BRANCH  29  32
ATOM     32  O   UNL     1      -4.094  15.245  25.348  0.00  0.00    +0.000 OA
ATOM     33  H   UNL     1      -3.971  16.191  25.159  0.00  0.00    +0.000 HD
ENDBRANCH  29  32
BRANCH  31  34
ATOM     34  O   UNL     1       0.030  14.982  23.157  0.00  0.00    +0.000 OA
ATOM     35  H   UNL     1       0.744  14.556  23.664  0.00  0.00    +0.000 HD
ENDBRANCH  31  34
ENDBRANCH  12  26
TORSDOF 4
ENDMDL
MODEL 9
REMARK VINA RESULT:      -8.6      2.866      4.480
REMARK  Name = 
REMARK  6 active torsions:
REMARK  status: ('A' for Active; 'I' for Inactive)
REMARK    1  A    between atoms: C_1  and  C_2
REMARK    2  A    between atoms: C_12  and  C_13
REMARK    3  A    between atoms: C_21  and  C_22
REMARK    4  A    between atoms: C_24  and  C_26
REMARK    5  A    between atoms: C_29  and  O_30
REMARK    6  A    between atoms: C_32  and  O_33
REMARK                            x       y       z     vdW  Elec       q    Type
REMARK                         _______ _______ _______ _____ _____    ______ ____
ROOT
ATOM      1  C   UNL     1      -0.008  10.732  21.211  0.00  0.00    +0.000 A 
ATOM      2  C   UNL     1       0.251   9.636  22.019  0.00  0.00    +0.000 A 
ATOM      3  C   UNL     1       0.948   8.487  21.486  0.00  0.00    +0.000 A 
ATOM      4  C   UNL     1       1.378   8.408  20.144  0.00  0.00    +0.000 A 
ATOM      5  C   UNL     1       0.925   9.451  19.338  0.00  0.00    +0.000 A 
ATOM      6  C   UNL     1       0.193  10.526  19.853  0.00  0.00    +0.000 A 
ATOM      7  C   UNL     1       1.126   9.552  17.880  0.00  0.00    +0.000 C 
ATOM      8  C   UNL     1       2.427   8.937  17.551  0.00  0.00    +0.000 C 
ATOM      9  C   UNL     1       2.549   7.480  18.039  0.00  0.00    +0.000 C 
ATOM     10  C   UNL     1       3.886   7.147  17.302  0.00  0.00    +0.000 C 
ATOM     11  N   UNL     1       2.252   7.296  19.566  0.00  0.00    +0.000 N 
ATOM     12  C   UNL     1       1.859   6.008  20.123  0.00  0.00    +0.000 C 
ATOM     13  O   UNL     1       0.719   5.884  20.608  0.00  0.00    +0.000 OA
ENDROOT
BRANCH   1  25
ATOM     14  C   UNL     1      -2.079  11.530  23.288  0.00  0.00    +0.000 C 
ATOM     15  C   UNL     1      -1.138  12.502  22.639  0.00  0.00    +0.000 A 
ATOM     16  C   UNL     1      -0.997  13.785  23.199  0.00  0.00    +0.000 A 
ATOM     17  C   UNL     1       0.011  14.661  22.771  0.00  0.00    +0.000 A 
ATOM     18  C   UNL     1       0.199  15.934  23.347  0.00  0.00    +0.000 A 
ATOM     19  C   UNL     1       1.240  16.751  22.910  0.00  0.00    +0.000 A 
ATOM     20 CL   UNL     1       1.420  18.337  23.558  0.00  0.00    +0.000 Cl
ATOM     21  C   UNL     1       2.122  16.295  21.942  0.00  0.00    +0.000 A 
ATOM     22  C   UNL     1       1.925  15.030  21.378  0.00  0.00    +0.000 A 
ATOM     23  C   UNL     1       0.857  14.215  21.747  0.00  0.00    +0.000 A 
ATOM     24  N   UNL     1       0.684  13.020  21.155  0.00  0.00    +0.000 NA
ATOM     25  C   UNL     1      -0.273  12.145  21.600  0.00  0.00    +0.000 A 
ENDBRANCH   1  25
BRANCH  12  26
ATOM     26  C   UNL     1       2.674   4.734  20.273  0.00  0.00    +0.000 A 
ATOM     27  C   UNL     1       3.952   4.741  19.637  0.00  0.00    +0.000 A 
ATOM     28  C   UNL     1       4.825   3.641  19.641  0.00  0.00    +0.000 A 
ATOM     29  C   UNL     1       4.452   2.495  20.309  0.00  0.00    +0.000 A 
ATOM     30  C   UNL     1       3.223   2.439  20.944  0.00  0.00    +0.000 A 
ATOM     31  C   UNL     1       2.340   3.534  20.887  0.00  0.00    +0.000 A 
BRANCH  29  32
ATOM     32  O   UNL     1       5.233   1.382  20.331  0.00  0.00    +0.000 OA
ATOM     33  H   UNL     1       5.254   1.035  21.239  0.00  0.00    +0.000 HD
ENDBRANCH  29  32
BRANCH  31  34
ATOM     34  O   UNL     1       1.109   3.315  21.394  0.00  0.00    +0.000 OA
ATOM     35  H   UNL     1       1.105   3.573  22.332  0.00  0.00    +0.000 HD
ENDBRANCH  31  34
ENDBRANCH  12  26
TORSDOF 4
ENDMDL
