MODEL 1
REMARK VINA RESULT:      -7.5      0.000      0.000
REMARK  Name = 
REMARK  4 active torsions:
REMARK  status: ('A' for Active; 'I' for Inactive)
REMARK    1  A    between atoms: C_12  and  O_13
REMARK    2  A    between atoms: C_14  and  C_15
REMARK    3  A    between atoms: C_15  and  O_16
REMARK    4  A    between atoms: C_18  and  O_19
REMARK                            x       y       z     vdW  Elec       q    Type
REMARK                         _______ _______ _______ _____ _____    ______ ____
ROOT
ATOM      1  O   UNL     1       2.753   6.815  19.143  0.00  0.00    +0.000 OA
ATOM      2  C   UNL     1       3.101   5.698  18.784  0.00  0.00    +0.000 C 
ATOM      3  C   UNL     1       2.595   4.539  19.547  0.00  0.00    +0.000 A 
ATOM      4  C   UNL     1       1.767   4.747  20.658  0.00  0.00    +0.000 A 
ATOM      5  C   UNL     1       1.287   3.661  21.390  0.00  0.00    +0.000 A 
ATOM      6  C   UNL     1       1.630   2.363  21.015  0.00  0.00    +0.000 A 
ATOM      7  C   UNL     1       2.453   2.152  19.907  0.00  0.00    +0.000 A 
ATOM      8  C   UNL     1       2.936   3.245  19.174  0.00  0.00    +0.000 A 
ATOM      9  C   UNL     1       3.809   3.019  18.013  0.00  0.00    +0.000 C 
ATOM     10  O   UNL     1       4.083   1.876  17.656  0.00  0.00    +0.000 OA
ATOM     11  C   UNL     1       4.366   4.168  17.267  0.00  0.00    +0.000 A 
ATOM     12  C   UNL     1       5.259   3.943  16.196  0.00  0.00    +0.000 A 
ATOM     13  C   UNL     1       5.812   5.007  15.471  0.00  0.00    +0.000 A 
ATOM     14  C   UNL     1       5.428   6.310  15.828  0.00  0.00    +0.000 A 
ATOM     15  C   UNL     1       4.545   6.540  16.888  0.00  0.00    +0.000 A 
ATOM     16  C   UNL     1       4.013   5.474  17.627  0.00  0.00    +0.000 A 
ENDROOT
BRANCH  12  17
ATOM     17  O   UNL     1       5.629   2.671  15.824  0.00  0.00    +0.000 OA
ATOM     18  H   UNL     1       5.944   2.188  16.626  0.00  0.00    +0.000 HD
ENDBRANCH  12  17
BRANCH  15  19
ATOM     19  O   UNL     1       4.220   7.833  17.183  0.00  0.00    +0.000 OA
ATOM     20  H   UNL     1       4.956   8.433  16.993  0.00  0.00    +0.000 HD
ENDBRANCH  15  19
BRANCH  13  21
ATOM     21  C   UNL     1       6.805   4.870  14.332  0.00  0.00    +0.000 C 
BRANCH  21  22
ATOM     22  O   UNL     1       8.001   5.624  14.425  0.00  0.00    +0.000 OA
ATOM     23  H   UNL     1       7.770   6.489  14.817  0.00  0.00    +0.000 HD
ENDBRANCH  21  22
ENDBRANCH  13  21
TORSDOF 4
ENDMDL
MODEL 2
REMARK VINA RESULT:      -7.3      1.487      5.456
REMARK  Name = 
REMARK  4 active torsions:
REMARK  status: ('A' for Active; 'I' for Inactive)
REMARK    1  A    between atoms: C_12  and  O_13
REMARK    2  A    between atoms: C_14  and  C_15
REMARK    3  A    between atoms: C_15  and  O_16
REMARK    4  A    between atoms: C_18  and  O_19
REMARK                            x       y       z     vdW  Elec       q    Type
REMARK                         _______ _______ _______ _____ _____    ______ ____
ROOT
ATOM      1  O   UNL     1       4.043   7.344  17.462  0.00  0.00    +0.000 OA
ATOM      2  C   UNL     1       4.063   6.121  17.497  0.00  0.00    +0.000 C 
ATOM      3  C   UNL     1       4.831   5.413  16.453  0.00  0.00    +0.000 A 
ATOM      4  C   UNL     1       5.483   6.147  15.453  0.00  0.00    +0.000 A 
ATOM      5  C   UNL     1       6.207   5.490  14.457  0.00  0.00    +0.000 A 
ATOM      6  C   UNL     1       6.286   4.099  14.458  0.00  0.00    +0.000 A 
ATOM      7  C   UNL     1       5.640   3.365  15.455  0.00  0.00    +0.000 A 
ATOM      8  C   UNL     1       4.911   4.027  16.452  0.00  0.00    +0.000 A 
ATOM      9  C   UNL     1       4.226   3.249  17.495  0.00  0.00    +0.000 C 
ATOM     10  O   UNL     1       4.324   2.025  17.522  0.00  0.00    +0.000 OA
ATOM     11  C   UNL     1       3.410   3.937  18.519  0.00  0.00    +0.000 A 
ATOM     12  C   UNL     1       2.699   3.178  19.476  0.00  0.00    +0.000 A 
ATOM     13  C   UNL     1       1.912   3.795  20.457  0.00  0.00    +0.000 A 
ATOM     14  C   UNL     1       1.871   5.198  20.475  0.00  0.00    +0.000 A 
ATOM     15  C   UNL     1       2.572   5.956  19.531  0.00  0.00    +0.000 A 
ATOM     16  C   UNL     1       3.340   5.335  18.536  0.00  0.00    +0.000 A 
ENDROOT
BRANCH  12  17
ATOM     17  O   UNL     1       2.745   1.803  19.480  0.00  0.00    +0.000 OA
ATOM     18  H   UNL     1       2.312   1.476  20.304  0.00  0.00    +0.000 HD
ENDBRANCH  12  17
BRANCH  15  19
ATOM     19  O   UNL     1       2.484   7.316  19.605  0.00  0.00    +0.000 OA
ATOM     20  H   UNL     1       1.707   7.645  19.129  0.00  0.00    +0.000 HD
ENDBRANCH  15  19
BRANCH  13  21
ATOM     21  C   UNL     1       1.085   3.070  21.502  0.00  0.00    +0.000 C 
BRANCH  21  22
ATOM     22  O   UNL     1       1.760   2.134  22.324  0.00  0.00    +0.000 OA
ATOM     23  H   UNL     1       2.591   1.894  21.868  0.00  0.00    +0.000 HD
ENDBRANCH  21  22
ENDBRANCH  13  21
TORSDOF 4
ENDMDL
MODEL 3
REMARK VINA RESULT:      -7.2      1.974      3.722
REMARK  Name = 
REMARK  4 active torsions:
REMARK  status: ('A' for Active; 'I' for Inactive)
REMARK    1  A    between atoms: C_12  and  O_13
REMARK    2  A    between atoms: C_14  and  C_15
REMARK    3  A    between atoms: C_15  and  O_16
REMARK    4  A    between atoms: C_18  and  O_19
REMARK                            x       y       z     vdW  Elec       q    Type
REMARK                         _______ _______ _______ _____ _____    ______ ____
ROOT
ATOM      1  O   UNL     1       3.308   4.544  20.499  0.00  0.00    +0.000 OA
ATOM      2  C   UNL     1       3.370   5.372  19.599  0.00  0.00    +0.000 C 
ATOM      3  C   UNL     1       2.551   6.594  19.727  0.00  0.00    +0.000 A 
ATOM      4  C   UNL     1       1.719   6.758  20.843  0.00  0.00    +0.000 A 
ATOM      5  C   UNL     1       0.936   7.906  20.973  0.00  0.00    +0.000 A 
ATOM      6  C   UNL     1       0.983   8.894  19.992  0.00  0.00    +0.000 A 
ATOM      7  C   UNL     1       1.812   8.735  18.880  0.00  0.00    +0.000 A 
ATOM      8  C   UNL     1       2.596   7.580  18.750  0.00  0.00    +0.000 A 
ATOM      9  C   UNL     1       3.463   7.413  17.574  0.00  0.00    +0.000 C 
ATOM     10  O   UNL     1       3.536   8.299  16.726  0.00  0.00    +0.000 OA
ATOM     11  C   UNL     1       4.252   6.174  17.403  0.00  0.00    +0.000 A 
ATOM     12  C   UNL     1       5.028   5.992  16.236  0.00  0.00    +0.000 A 
ATOM     13  C   UNL     1       5.782   4.828  16.037  0.00  0.00    +0.000 A 
ATOM     14  C   UNL     1       5.764   3.855  17.050  0.00  0.00    +0.000 A 
ATOM     15  C   UNL     1       4.997   4.029  18.207  0.00  0.00    +0.000 A 
ATOM     16  C   UNL     1       4.224   5.184  18.392  0.00  0.00    +0.000 A 
ENDROOT
BRANCH  12  17
ATOM     17  O   UNL     1       5.069   6.945  15.245  0.00  0.00    +0.000 OA
ATOM     18  H   UNL     1       5.432   7.780  15.627  0.00  0.00    +0.000 HD
ENDBRANCH  12  17
BRANCH  15  19
ATOM     19  O   UNL     1       5.022   3.040  19.148  0.00  0.00    +0.000 OA
ATOM     20  H   UNL     1       4.688   2.204  18.789  0.00  0.00    +0.000 HD
ENDBRANCH  15  19
BRANCH  13  21
ATOM     21  C   UNL     1       6.617   4.524  14.807  0.00  0.00    +0.000 C 
BRANCH  21  22
ATOM     22  O   UNL     1       7.643   5.444  14.479  0.00  0.00    +0.000 OA
ATOM     23  H   UNL     1       8.449   4.924  14.290  0.00  0.00    +0.000 HD
ENDBRANCH  21  22
ENDBRANCH  13  21
TORSDOF 4
ENDMDL
MODEL 4
REMARK VINA RESULT:      -6.9      1.753      6.080
REMARK  Name = 
REMARK  4 active torsions:
REMARK  status: ('A' for Active; 'I' for Inactive)
REMARK    1  A    between atoms: C_12  and  O_13
REMARK    2  A    between atoms: C_14  and  C_15
REMARK    3  A    between atoms: C_15  and  O_16
REMARK    4  A    between atoms: C_18  and  O_19
REMARK                            x       y       z     vdW  Elec       q    Type
REMARK                         _______ _______ _______ _____ _____    ______ ____
ROOT
ATOM      1  O   UNL     1       4.057   2.552  18.342  0.00  0.00    +0.000 OA
ATOM      2  C   UNL     1       3.989   3.747  18.085  0.00  0.00    +0.000 C 
ATOM      3  C   UNL     1       4.747   4.246  16.920  0.00  0.00    +0.000 A 
ATOM      4  C   UNL     1       5.530   3.359  16.169  0.00  0.00    +0.000 A 
ATOM      5  C   UNL     1       6.255   3.819  15.069  0.00  0.00    +0.000 A 
ATOM      6  C   UNL     1       6.199   5.165  14.712  0.00  0.00    +0.000 A 
ATOM      7  C   UNL     1       5.418   6.051  15.457  0.00  0.00    +0.000 A 
ATOM      8  C   UNL     1       4.692   5.587  16.563  0.00  0.00    +0.000 A 
ATOM      9  C   UNL     1       3.877   6.526  17.348  0.00  0.00    +0.000 C 
ATOM     10  O   UNL     1       3.794   7.705  17.015  0.00  0.00    +0.000 OA
ATOM     11  C   UNL     1       3.152   6.055  18.548  0.00  0.00    +0.000 A 
ATOM     12  C   UNL     1       2.427   6.977  19.337  0.00  0.00    +0.000 A 
ATOM     13  C   UNL     1       1.734   6.569  20.483  0.00  0.00    +0.000 A 
ATOM     14  C   UNL     1       1.760   5.204  20.812  0.00  0.00    +0.000 A 
ATOM     15  C   UNL     1       2.476   4.286  20.036  0.00  0.00    +0.000 A 
ATOM     16  C   UNL     1       3.189   4.702  18.903  0.00  0.00    +0.000 A 
ENDROOT
BRANCH  12  17
ATOM     17  O   UNL     1       2.378   8.314  19.015  0.00  0.00    +0.000 OA
ATOM     18  H   UNL     1       1.625   8.727  19.501  0.00  0.00    +0.000 HD
ENDBRANCH  12  17
BRANCH  15  19
ATOM     19  O   UNL     1       2.462   2.975  20.417  0.00  0.00    +0.000 OA
ATOM     20  H   UNL     1       1.823   2.822  21.130  0.00  0.00    +0.000 HD
ENDBRANCH  15  19
BRANCH  13  21
ATOM     21  C   UNL     1       0.959   7.485  21.413  0.00  0.00    +0.000 C 
BRANCH  21  22
ATOM     22  O   UNL     1       1.655   8.594  21.953  0.00  0.00    +0.000 OA
ATOM     23  H   UNL     1       2.572   8.553  21.617  0.00  0.00    +0.000 HD
ENDBRANCH  21  22
ENDBRANCH  13  21
TORSDOF 4
ENDMDL
MODEL 5
REMARK VINA RESULT:      -6.6      2.650      4.954
REMARK  Name = 
REMARK  4 active torsions:
REMARK  status: ('A' for Active; 'I' for Inactive)
REMARK    1  A    between atoms: C_12  and  O_13
REMARK    2  A    between atoms: C_14  and  C_15
REMARK    3  A    between atoms: C_15  and  O_16
REMARK    4  A    between atoms: C_18  and  O_19
REMARK                            x       y       z     vdW  Elec       q    Type
REMARK                         _______ _______ _______ _____ _____    ______ ____
ROOT
ATOM      1  O   UNL     1       3.712   7.697  16.414  0.00  0.00    +0.000 OA
ATOM      2  C   UNL     1       3.257   7.277  17.470  0.00  0.00    +0.000 C 
ATOM      3  C   UNL     1       2.443   8.200  18.286  0.00  0.00    +0.000 A 
ATOM      4  C   UNL     1       2.239   9.517  17.850  0.00  0.00    +0.000 A 
ATOM      5  C   UNL     1       1.477  10.400  18.615  0.00  0.00    +0.000 A 
ATOM      6  C   UNL     1       0.914   9.974  19.816  0.00  0.00    +0.000 A 
ATOM      7  C   UNL     1       1.113   8.662  20.252  0.00  0.00    +0.000 A 
ATOM      8  C   UNL     1       1.881   7.777  19.483  0.00  0.00    +0.000 A 
ATOM      9  C   UNL     1       2.094   6.398  19.951  0.00  0.00    +0.000 C 
ATOM     10  O   UNL     1       1.567   6.007  20.989  0.00  0.00    +0.000 OA
ATOM     11  C   UNL     1       2.947   5.475  19.172  0.00  0.00    +0.000 A 
ATOM     12  C   UNL     1       3.203   4.175  19.663  0.00  0.00    +0.000 A 
ATOM     13  C   UNL     1       4.012   3.275  18.957  0.00  0.00    +0.000 A 
ATOM     14  C   UNL     1       4.542   3.698  17.727  0.00  0.00    +0.000 A 
ATOM     15  C   UNL     1       4.293   4.984  17.235  0.00  0.00    +0.000 A 
ATOM     16  C   UNL     1       3.503   5.890  17.957  0.00  0.00    +0.000 A 
ENDROOT
BRANCH  12  17
ATOM     17  O   UNL     1       2.676   3.741  20.858  0.00  0.00    +0.000 OA
ATOM     18  H   UNL     1       2.747   2.758  20.895  0.00  0.00    +0.000 HD
ENDBRANCH  12  17
BRANCH  15  19
ATOM     19  O   UNL     1       4.844   5.330  16.035  0.00  0.00    +0.000 OA
ATOM     20  H   UNL     1       4.438   4.836  15.307  0.00  0.00    +0.000 HD
ENDBRANCH  15  19
BRANCH  13  21
ATOM     21  C   UNL     1       4.375   1.875  19.416  0.00  0.00    +0.000 C 
BRANCH  21  22
ATOM     22  O   UNL     1       5.255   1.766  20.522  0.00  0.00    +0.000 OA
ATOM     23  H   UNL     1       4.771   2.082  21.310  0.00  0.00    +0.000 HD
ENDBRANCH  21  22
ENDBRANCH  13  21
TORSDOF 4
ENDMDL
MODEL 6
REMARK VINA RESULT:      -6.5      2.024      2.153
REMARK  Name = 
REMARK  4 active torsions:
REMARK  status: ('A' for Active; 'I' for Inactive)
REMARK    1  A    between atoms: C_12  and  O_13
REMARK    2  A    between atoms: C_14  and  C_15
REMARK    3  A    between atoms: C_15  and  O_16
REMARK    4  A    between atoms: C_18  and  O_19
REMARK                            x       y       z     vdW  Elec       q    Type
REMARK                         _______ _______ _______ _____ _____    ______ ____
ROOT
ATOM      1  O   UNL     1       5.604   4.345  20.345  0.00  0.00    +0.000 OA
ATOM      2  C   UNL     1       4.952   4.143  19.329  0.00  0.00    +0.000 C 
ATOM      3  C   UNL     1       3.554   3.694  19.483  0.00  0.00    +0.000 A 
ATOM      4  C   UNL     1       3.028   3.489  20.765  0.00  0.00    +0.000 A 
ATOM      5  C   UNL     1       1.710   3.059  20.924  0.00  0.00    +0.000 A 
ATOM      6  C   UNL     1       0.912   2.835  19.805  0.00  0.00    +0.000 A 
ATOM      7  C   UNL     1       1.432   3.040  18.525  0.00  0.00    +0.000 A 
ATOM      8  C   UNL     1       2.757   3.469  18.368  0.00  0.00    +0.000 A 
ATOM      9  C   UNL     1       3.303   3.677  17.018  0.00  0.00    +0.000 C 
ATOM     10  O   UNL     1       2.591   3.518  16.029  0.00  0.00    +0.000 OA
ATOM     11  C   UNL     1       4.716   4.078  16.842  0.00  0.00    +0.000 A 
ATOM     12  C   UNL     1       5.251   4.208  15.541  0.00  0.00    +0.000 A 
ATOM     13  C   UNL     1       6.586   4.580  15.336  0.00  0.00    +0.000 A 
ATOM     14  C   UNL     1       7.372   4.845  16.469  0.00  0.00    +0.000 A 
ATOM     15  C   UNL     1       6.849   4.718  17.760  0.00  0.00    +0.000 A 
ATOM     16  C   UNL     1       5.519   4.322  17.962  0.00  0.00    +0.000 A 
ENDROOT
BRANCH  12  17
ATOM     17  O   UNL     1       4.486   3.969  14.423  0.00  0.00    +0.000 OA
ATOM     18  H   UNL     1       3.977   4.787  14.209  0.00  0.00    +0.000 HD
ENDBRANCH  12  17
BRANCH  15  19
ATOM     19  O   UNL     1       7.672   4.987  18.816  0.00  0.00    +0.000 OA
ATOM     20  H   UNL     1       7.259   5.609  19.434  0.00  0.00    +0.000 HD
ENDBRANCH  15  19
BRANCH  13  21
ATOM     21  C   UNL     1       7.263   4.711  13.984  0.00  0.00    +0.000 C 
BRANCH  21  22
ATOM     22  O   UNL     1       8.257   5.712  13.855  0.00  0.00    +0.000 OA
ATOM     23  H   UNL     1       8.145   6.121  12.974  0.00  0.00    +0.000 HD
ENDBRANCH  21  22
ENDBRANCH  13  21
TORSDOF 4
ENDMDL
MODEL 7
REMARK VINA RESULT:      -6.5      5.393      7.317
REMARK  Name = 
REMARK  4 active torsions:
REMARK  status: ('A' for Active; 'I' for Inactive)
REMARK    1  A    between atoms: C_12  and  O_13
REMARK    2  A    between atoms: C_14  and  C_15
REMARK    3  A    between atoms: C_15  and  O_16
REMARK    4  A    between atoms: C_18  and  O_19
REMARK                            x       y       z     vdW  Elec       q    Type
REMARK                         _______ _______ _______ _____ _____    ______ ____
ROOT
ATOM      1  O   UNL     1       0.570  12.172  18.744  0.00  0.00    +0.000 OA
ATOM      2  C   UNL     1       0.500  11.280  19.580  0.00  0.00    +0.000 C 
ATOM      3  C   UNL     1      -0.253  11.555  20.820  0.00  0.00    +0.000 A 
ATOM      4  C   UNL     1      -0.834  12.815  21.015  0.00  0.00    +0.000 A 
ATOM      5  C   UNL     1      -1.543  13.089  22.185  0.00  0.00    +0.000 A 
ATOM      6  C   UNL     1      -1.678  12.106  23.163  0.00  0.00    +0.000 A 
ATOM      7  C   UNL     1      -1.102  10.848  22.971  0.00  0.00    +0.000 A 
ATOM      8  C   UNL     1      -0.388  10.576  21.796  0.00  0.00    +0.000 A 
ATOM      9  C   UNL     1       0.224   9.252  21.602  0.00  0.00    +0.000 C 
ATOM     10  O   UNL     1       0.075   8.371  22.444  0.00  0.00    +0.000 OA
ATOM     11  C   UNL     1       1.024   8.975  20.390  0.00  0.00    +0.000 A 
ATOM     12  C   UNL     1       1.665   7.724  20.243  0.00  0.00    +0.000 A 
ATOM     13  C   UNL     1       2.436   7.429  19.112  0.00  0.00    +0.000 A 
ATOM     14  C   UNL     1       2.532   8.409  18.111  0.00  0.00    +0.000 A 
ATOM     15  C   UNL     1       1.900   9.650  18.250  0.00  0.00    +0.000 A 
ATOM     16  C   UNL     1       1.149   9.951  19.395  0.00  0.00    +0.000 A 
ENDROOT
BRANCH  12  17
ATOM     17  O   UNL     1       1.564   6.749  21.208  0.00  0.00    +0.000 OA
ATOM     18  H   UNL     1       2.248   6.059  21.031  0.00  0.00    +0.000 HD
ENDBRANCH  12  17
BRANCH  15  19
ATOM     19  O   UNL     1       2.040  10.558  17.240  0.00  0.00    +0.000 OA
ATOM     20  H   UNL     1       1.187  10.949  16.998  0.00  0.00    +0.000 HD
ENDBRANCH  15  19
BRANCH  13  21
ATOM     21  C   UNL     1       3.191   6.133  18.879  0.00  0.00    +0.000 C 
BRANCH  21  22
ATOM     22  O   UNL     1       3.790   5.523  20.009  0.00  0.00    +0.000 OA
ATOM     23  H   UNL     1       4.730   5.790  20.020  0.00  0.00    +0.000 HD
ENDBRANCH  21  22
ENDBRANCH  13  21
TORSDOF 4
ENDMDL
MODEL 8
REMARK VINA RESULT:      -6.3      1.473      1.476
REMARK  Name = 
REMARK  4 active torsions:
REMARK  status: ('A' for Active; 'I' for Inactive)
REMARK    1  A    between atoms: C_12  and  O_13
REMARK    2  A    between atoms: C_14  and  C_15
REMARK    3  A    between atoms: C_15  and  O_16
REMARK    4  A    between atoms: C_18  and  O_19
REMARK                            x       y       z     vdW  Elec       q    Type
REMARK                         _______ _______ _______ _____ _____    ______ ____
ROOT
ATOM      1  O   UNL     1       1.640   6.448  19.198  0.00  0.00    +0.000 OA
ATOM      2  C   UNL     1       2.553   5.632  19.204  0.00  0.00    +0.000 C 
ATOM      3  C   UNL     1       2.401   4.433  20.052  0.00  0.00    +0.000 A 
ATOM      4  C   UNL     1       1.248   4.276  20.833  0.00  0.00    +0.000 A 
ATOM      5  C   UNL     1       1.095   3.149  21.642  0.00  0.00    +0.000 A 
ATOM      6  C   UNL     1       2.090   2.175  21.673  0.00  0.00    +0.000 A 
ATOM      7  C   UNL     1       3.239   2.327  20.895  0.00  0.00    +0.000 A 
ATOM      8  C   UNL     1       3.392   3.460  20.084  0.00  0.00    +0.000 A 
ATOM      9  C   UNL     1       4.607   3.619  19.271  0.00  0.00    +0.000 C 
ATOM     10  O   UNL     1       5.470   2.744  19.266  0.00  0.00    +0.000 OA
ATOM     11  C   UNL     1       4.800   4.838  18.455  0.00  0.00    +0.000 A 
ATOM     12  C   UNL     1       6.001   5.014  17.732  0.00  0.00    +0.000 A 
ATOM     13  C   UNL     1       6.222   6.158  16.954  0.00  0.00    +0.000 A 
ATOM     14  C   UNL     1       5.197   7.116  16.894  0.00  0.00    +0.000 A 
ATOM     15  C   UNL     1       4.005   6.948  17.608  0.00  0.00    +0.000 A 
ATOM     16  C   UNL     1       3.798   5.813  18.405  0.00  0.00    +0.000 A 
ENDROOT
BRANCH  12  17
ATOM     17  O   UNL     1       7.006   4.075  17.767  0.00  0.00    +0.000 OA
ATOM     18  H   UNL     1       7.643   4.268  17.039  0.00  0.00    +0.000 HD
ENDBRANCH  12  17
BRANCH  15  19
ATOM     19  O   UNL     1       3.054   7.921  17.508  0.00  0.00    +0.000 OA
ATOM     20  H   UNL     1       2.749   8.208  18.382  0.00  0.00    +0.000 HD
ENDBRANCH  15  19
BRANCH  13  21
ATOM     21  C   UNL     1       7.488   6.457  16.172  0.00  0.00    +0.000 C 
BRANCH  21  22
ATOM     22  O   UNL     1       7.759   5.639  15.047  0.00  0.00    +0.000 OA
ATOM     23  H   UNL     1       6.906   5.274  14.741  0.00  0.00    +0.000 HD
ENDBRANCH  21  22
ENDBRANCH  13  21
TORSDOF 4
ENDMDL
MODEL 9
REMARK VINA RESULT:      -6.2      5.589      8.312
REMARK  Name = 
REMARK  4 active torsions:
REMARK  status: ('A' for Active; 'I' for Inactive)
REMARK    1  A    between atoms: C_12  and  O_13
REMARK    2  A    between atoms: C_14  and  C_15
REMARK    3  A    between atoms: C_15  and  O_16
REMARK    4  A    between atoms: C_18  and  O_19
REMARK                            x       y       z     vdW  Elec       q    Type
REMARK                         _______ _______ _______ _____ _____    ______ ____
ROOT
ATOM      1  O   UNL     1       1.906  10.207  17.411  0.00  0.00    +0.000 OA
ATOM      2  C   UNL     1       1.606   9.879  18.551  0.00  0.00    +0.000 C 
ATOM      3  C   UNL     1       1.896   8.493  18.970  0.00  0.00    +0.000 A 
ATOM      4  C   UNL     1       2.472   7.598  18.058  0.00  0.00    +0.000 A 
ATOM      5  C   UNL     1       2.747   6.284  18.440  0.00  0.00    +0.000 A 
ATOM      6  C   UNL     1       2.449   5.859  19.732  0.00  0.00    +0.000 A 
ATOM      7  C   UNL     1       1.876   6.748  20.644  0.00  0.00    +0.000 A 
ATOM      8  C   UNL     1       1.599   8.067  20.258  0.00  0.00    +0.000 A 
ATOM      9  C   UNL     1       0.989   8.998  21.220  0.00  0.00    +0.000 C 
ATOM     10  O   UNL     1       0.761   8.638  22.372  0.00  0.00    +0.000 OA
ATOM     11  C   UNL     1       0.645  10.375  20.804  0.00  0.00    +0.000 A 
ATOM     12  C   UNL     1      -0.004  11.240  21.713  0.00  0.00    +0.000 A 
ATOM     13  C   UNL     1      -0.351  12.549  21.352  0.00  0.00    +0.000 A 
ATOM     14  C   UNL     1      -0.010  12.983  20.061  0.00  0.00    +0.000 A 
ATOM     15  C   UNL     1       0.632  12.132  19.156  0.00  0.00    +0.000 A 
ATOM     16  C   UNL     1       0.956  10.815  19.512  0.00  0.00    +0.000 A 
ENDROOT
BRANCH  12  17
ATOM     17  O   UNL     1      -0.328  10.833  22.986  0.00  0.00    +0.000 OA
ATOM     18  H   UNL     1      -1.250  11.123  23.185  0.00  0.00    +0.000 HD
ENDBRANCH  12  17
BRANCH  15  19
ATOM     19  O   UNL     1       0.930  12.619  17.916  0.00  0.00    +0.000 OA
ATOM     20  H   UNL     1       1.465  13.425  17.974  0.00  0.00    +0.000 HD
ENDBRANCH  15  19
BRANCH  13  21
ATOM     21  C   UNL     1      -1.080  13.540  22.241  0.00  0.00    +0.000 C 
BRANCH  21  22
ATOM     22  O   UNL     1      -0.680  13.603  23.599  0.00  0.00    +0.000 OA
ATOM     23  H   UNL     1      -0.083  12.846  23.762  0.00  0.00    +0.000 HD
ENDBRANCH  21  22
ENDBRANCH  13  21
TORSDOF 4
ENDMDL
