MODEL 1
REMARK VINA RESULT:      -6.6      0.000      0.000
REMARK  Name = 
REMARK  3 active torsions:
REMARK  status: ('A' for Active; 'I' for Inactive)
REMARK    1  A    between atoms: C_3  and  N_4
REMARK    2  A    between atoms: N_13  and  C_14
REMARK    3  A    between atoms: C_14  and  C_15
REMARK                            x       y       z     vdW  Elec       q    Type
REMARK                         _______ _______ _______ _____ _____    ______ ____
ROOT
ATOM      1  O   UNL     1       0.768   7.049  21.182  0.00  0.00    +0.000 OA
ATOM      2  C   UNL     1       1.147   7.828  20.305  0.00  0.00    +0.000 C 
ATOM      3  C   UNL     1       0.456   9.209  20.190  0.00  0.00    +0.000 C 
ATOM      4  C   UNL     1       0.459   9.668  18.727  0.00  0.00    +0.000 C 
ATOM      5  C   UNL     1       1.852   9.606  18.120  0.00  0.00    +0.000 C 
ATOM      6  C   UNL     1       2.388   8.185  18.193  0.00  0.00    +0.000 C 
ATOM      7  N   UNL     1       2.254   7.571  19.505  0.00  0.00    +0.000 N 
ENDROOT
BRANCH   3   8
ATOM      8  N   UNL     1       1.089  10.212  21.106  0.00  0.00    +0.000 NA
ATOM      9  C   UNL     1       1.169   9.783  22.530  0.00  0.00    +0.000 C 
ATOM     10  C   UNL     1      -0.182   9.770  23.269  0.00  0.00    +0.000 C 
ATOM     11  O   UNL     1      -0.769  11.078  23.255  0.00  0.00    +0.000 OA
ATOM     12  C   UNL     1      -0.963  11.519  21.907  0.00  0.00    +0.000 C 
ATOM     13  C   UNL     1       0.354  11.507  21.101  0.00  0.00    +0.000 C 
ENDBRANCH   3   8
BRANCH   7  14
ATOM     14  C   UNL     1       3.077   6.380  19.795  0.00  0.00    +0.000 C 
BRANCH  14  15
ATOM     15  C   UNL     1       2.910   5.245  18.820  0.00  0.00    +0.000 A 
ATOM     16  C   UNL     1       1.849   4.346  18.996  0.00  0.00    +0.000 A 
ATOM     17  F   UNL     1       0.936   4.574  19.952  0.00  0.00    +0.000 F 
ATOM     18  C   UNL     1       1.693   3.216  18.193  0.00  0.00    +0.000 A 
ATOM     19  C   UNL     1       2.617   2.950  17.191  0.00  0.00    +0.000 A 
ATOM     20  C   UNL     1       3.648   3.856  16.953  0.00  0.00    +0.000 A 
ATOM     21  C   UNL     1       3.770   5.015  17.734  0.00  0.00    +0.000 A 
ATOM     22 CL   UNL     1       4.957   6.161  17.212  0.00  0.00    +0.000 Cl
ENDBRANCH  14  15
ENDBRANCH   7  14
TORSDOF 3
ENDMDL
MODEL 2
REMARK VINA RESULT:      -6.4      1.634      1.907
REMARK  Name = 
REMARK  3 active torsions:
REMARK  status: ('A' for Active; 'I' for Inactive)
REMARK    1  A    between atoms: C_3  and  N_4
REMARK    2  A    between atoms: N_13  and  C_14
REMARK    3  A    between atoms: C_14  and  C_15
REMARK                            x       y       z     vdW  Elec       q    Type
REMARK                         _______ _______ _______ _____ _____    ______ ____
ROOT
ATOM      1  O   UNL     1       1.204   6.648  21.130  0.00  0.00    +0.000 OA
ATOM      2  C   UNL     1       1.538   7.433  20.242  0.00  0.00    +0.000 C 
ATOM      3  C   UNL     1       0.814   8.800  20.149  0.00  0.00    +0.000 C 
ATOM      4  C   UNL     1       0.758   9.257  18.686  0.00  0.00    +0.000 C 
ATOM      5  C   UNL     1       2.131   9.224  18.033  0.00  0.00    +0.000 C 
ATOM      6  C   UNL     1       2.700   7.814  18.089  0.00  0.00    +0.000 C 
ATOM      7  N   UNL     1       2.623   7.200  19.405  0.00  0.00    +0.000 N 
ENDROOT
BRANCH   3   8
ATOM      8  N   UNL     1       1.455   9.817  21.042  0.00  0.00    +0.000 NA
ATOM      9  C   UNL     1       1.481   9.442  22.484  0.00  0.00    +0.000 C 
ATOM     10  C   UNL     1       0.111   9.503  23.184  0.00  0.00    +0.000 C 
ATOM     11  O   UNL     1      -0.430  10.829  23.102  0.00  0.00    +0.000 OA
ATOM     12  C   UNL     1      -0.572  11.222  21.734  0.00  0.00    +0.000 C 
ATOM     13  C   UNL     1       0.765  11.134  20.966  0.00  0.00    +0.000 C 
ENDBRANCH   3   8
BRANCH   7  14
ATOM     14  C   UNL     1       3.480   6.027  19.668  0.00  0.00    +0.000 C 
BRANCH  14  15
ATOM     15  C   UNL     1       2.950   4.724  19.130  0.00  0.00    +0.000 A 
ATOM     16  C   UNL     1       3.106   4.434  17.769  0.00  0.00    +0.000 A 
ATOM     17  F   UNL     1       3.822   5.260  16.991  0.00  0.00    +0.000 F 
ATOM     18  C   UNL     1       2.552   3.295  17.184  0.00  0.00    +0.000 A 
ATOM     19  C   UNL     1       1.807   2.416  17.959  0.00  0.00    +0.000 A 
ATOM     20  C   UNL     1       1.685   2.645  19.327  0.00  0.00    +0.000 A 
ATOM     21  C   UNL     1       2.285   3.768  19.916  0.00  0.00    +0.000 A 
ATOM     22 CL   UNL     1       2.241   3.833  21.645  0.00  0.00    +0.000 Cl
ENDBRANCH  14  15
ENDBRANCH   7  14
TORSDOF 3
ENDMDL
MODEL 3
REMARK VINA RESULT:      -6.3      1.637      1.929
REMARK  Name = 
REMARK  3 active torsions:
REMARK  status: ('A' for Active; 'I' for Inactive)
REMARK    1  A    between atoms: C_3  and  N_4
REMARK    2  A    between atoms: N_13  and  C_14
REMARK    3  A    between atoms: C_14  and  C_15
REMARK                            x       y       z     vdW  Elec       q    Type
REMARK                         _______ _______ _______ _____ _____    ______ ____
ROOT
ATOM      1  O   UNL     1       0.659   7.366  21.129  0.00  0.00    +0.000 OA
ATOM      2  C   UNL     1       1.081   8.050  20.195  0.00  0.00    +0.000 C 
ATOM      3  C   UNL     1       0.416   9.422  19.921  0.00  0.00    +0.000 C 
ATOM      4  C   UNL     1       0.476   9.735  18.421  0.00  0.00    +0.000 C 
ATOM      5  C   UNL     1       1.888   9.597  17.873  0.00  0.00    +0.000 C 
ATOM      6  C   UNL     1       2.399   8.183  18.103  0.00  0.00    +0.000 C 
ATOM      7  N   UNL     1       2.210   7.702  19.463  0.00  0.00    +0.000 N 
ENDROOT
BRANCH   3   8
ATOM      8  N   UNL     1       1.033  10.502  20.756  0.00  0.00    +0.000 NA
ATOM      9  C   UNL     1       0.863  10.318  22.225  0.00  0.00    +0.000 C 
ATOM     10  C   UNL     1      -0.569  10.563  22.737  0.00  0.00    +0.000 C 
ATOM     11  O   UNL     1      -0.985  11.900  22.427  0.00  0.00    +0.000 OA
ATOM     12  C   UNL     1      -0.936  12.119  21.014  0.00  0.00    +0.000 C 
ATOM     13  C   UNL     1       0.468  11.841  20.435  0.00  0.00    +0.000 C 
ENDBRANCH   3   8
BRANCH   7  14
ATOM     14  C   UNL     1       3.004   6.535  19.897  0.00  0.00    +0.000 C 
BRANCH  14  15
ATOM     15  C   UNL     1       2.915   5.338  18.988  0.00  0.00    +0.000 A 
ATOM     16  C   UNL     1       3.869   5.180  17.975  0.00  0.00    +0.000 A 
ATOM     17  F   UNL     1       4.908   6.025  17.901  0.00  0.00    +0.000 F 
ATOM     18  C   UNL     1       3.790   4.152  17.035  0.00  0.00    +0.000 A 
ATOM     19  C   UNL     1       2.730   3.255  17.081  0.00  0.00    +0.000 A 
ATOM     20  C   UNL     1       1.799   3.351  18.113  0.00  0.00    +0.000 A 
ATOM     21  C   UNL     1       1.913   4.359  19.082  0.00  0.00    +0.000 A 
ATOM     22 CL   UNL     1       0.824   4.248  20.423  0.00  0.00    +0.000 Cl
ENDBRANCH  14  15
ENDBRANCH   7  14
TORSDOF 3
ENDMDL
MODEL 4
REMARK VINA RESULT:      -6.3      2.291      2.826
REMARK  Name = 
REMARK  3 active torsions:
REMARK  status: ('A' for Active; 'I' for Inactive)
REMARK    1  A    between atoms: C_3  and  N_4
REMARK    2  A    between atoms: N_13  and  C_14
REMARK    3  A    between atoms: C_14  and  C_15
REMARK                            x       y       z     vdW  Elec       q    Type
REMARK                         _______ _______ _______ _____ _____    ______ ____
ROOT
ATOM      1  O   UNL     1       1.681   5.852  20.527  0.00  0.00    +0.000 OA
ATOM      2  C   UNL     1       2.100   6.672  19.710  0.00  0.00    +0.000 C 
ATOM      3  C   UNL     1       1.295   7.977  19.488  0.00  0.00    +0.000 C 
ATOM      4  C   UNL     1       1.460   8.446  18.037  0.00  0.00    +0.000 C 
ATOM      5  C   UNL     1       2.925   8.532  17.636  0.00  0.00    +0.000 C 
ATOM      6  C   UNL     1       3.587   7.172  17.794  0.00  0.00    +0.000 C 
ATOM      7  N   UNL     1       3.331   6.537  19.078  0.00  0.00    +0.000 N 
ENDROOT
BRANCH   3   8
ATOM      8  N   UNL     1       1.685   9.032  20.479  0.00  0.00    +0.000 NA
ATOM      9  C   UNL     1       1.280   8.738  21.883  0.00  0.00    +0.000 C 
ATOM     10  C   UNL     1      -0.231   8.863  22.150  0.00  0.00    +0.000 C 
ATOM     11  O   UNL     1      -0.681  10.192  21.850  0.00  0.00    +0.000 OA
ATOM     12  C   UNL     1      -0.408  10.509  20.482  0.00  0.00    +0.000 C 
ATOM     13  C   UNL     1       1.091  10.354  20.141  0.00  0.00    +0.000 C 
ENDBRANCH   3   8
BRANCH   7  14
ATOM     14  C   UNL     1       4.221   5.434  19.490  0.00  0.00    +0.000 C 
BRANCH  14  15
ATOM     15  C   UNL     1       5.156   4.942  18.417  0.00  0.00    +0.000 A 
ATOM     16  C   UNL     1       6.527   5.205  18.535  0.00  0.00    +0.000 A 
ATOM     17  F   UNL     1       7.000   5.783  19.649  0.00  0.00    +0.000 F 
ATOM     18  C   UNL     1       7.436   4.869  17.532  0.00  0.00    +0.000 A 
ATOM     19  C   UNL     1       6.983   4.266  16.365  0.00  0.00    +0.000 A 
ATOM     20  C   UNL     1       5.635   3.938  16.244  0.00  0.00    +0.000 A 
ATOM     21  C   UNL     1       4.735   4.236  17.278  0.00  0.00    +0.000 A 
ATOM     22 CL   UNL     1       3.137   3.596  17.102  0.00  0.00    +0.000 Cl
ENDBRANCH  14  15
ENDBRANCH   7  14
TORSDOF 3
ENDMDL
MODEL 5
REMARK VINA RESULT:      -6.1      3.002      6.736
REMARK  Name = 
REMARK  3 active torsions:
REMARK  status: ('A' for Active; 'I' for Inactive)
REMARK    1  A    between atoms: C_3  and  N_4
REMARK    2  A    between atoms: N_13  and  C_14
REMARK    3  A    between atoms: C_14  and  C_15
REMARK                            x       y       z     vdW  Elec       q    Type
REMARK                         _______ _______ _______ _____ _____    ______ ____
ROOT
ATOM      1  O   UNL     1       1.614   7.763  21.558  0.00  0.00    +0.000 OA
ATOM      2  C   UNL     1       1.775   7.825  20.338  0.00  0.00    +0.000 C 
ATOM      3  C   UNL     1       2.613   6.723  19.644  0.00  0.00    +0.000 C 
ATOM      4  C   UNL     1       3.332   7.312  18.423  0.00  0.00    +0.000 C 
ATOM      5  C   UNL     1       2.370   8.047  17.504  0.00  0.00    +0.000 C 
ATOM      6  C   UNL     1       1.683   9.172  18.263  0.00  0.00    +0.000 C 
ATOM      7  N   UNL     1       1.129   8.765  19.544  0.00  0.00    +0.000 N 
ENDROOT
BRANCH   3   8
ATOM      8  N   UNL     1       1.768   5.537  19.292  0.00  0.00    +0.000 NA
ATOM      9  C   UNL     1       1.223   4.798  20.467  0.00  0.00    +0.000 C 
ATOM     10  C   UNL     1       2.270   3.982  21.248  0.00  0.00    +0.000 C 
ATOM     11  O   UNL     1       2.887   3.014  20.389  0.00  0.00    +0.000 OA
ATOM     12  C   UNL     1       3.516   3.665  19.281  0.00  0.00    +0.000 C 
ATOM     13  C   UNL     1       2.522   4.539  18.485  0.00  0.00    +0.000 C 
ENDBRANCH   3   8
BRANCH   7  14
ATOM     14  C   UNL     1       0.120   9.644  20.168  0.00  0.00    +0.000 C 
BRANCH  14  15
ATOM     15  C   UNL     1      -0.025  10.997  19.522  0.00  0.00    +0.000 A 
ATOM     16  C   UNL     1       0.768  12.058  19.976  0.00  0.00    +0.000 A 
ATOM     17  F   UNL     1       1.721  11.831  20.893  0.00  0.00    +0.000 F 
ATOM     18  C   UNL     1       0.616  13.358  19.494  0.00  0.00    +0.000 A 
ATOM     19  C   UNL     1      -0.358  13.630  18.542  0.00  0.00    +0.000 A 
ATOM     20  C   UNL     1      -1.121  12.585  18.027  0.00  0.00    +0.000 A 
ATOM     21  C   UNL     1      -0.929  11.273  18.483  0.00  0.00    +0.000 A 
ATOM     22 CL   UNL     1      -1.785  10.038  17.624  0.00  0.00    +0.000 Cl
ENDBRANCH  14  15
ENDBRANCH   7  14
TORSDOF 3
ENDMDL
MODEL 6
REMARK VINA RESULT:      -6.0      2.079      2.813
REMARK  Name = 
REMARK  3 active torsions:
REMARK  status: ('A' for Active; 'I' for Inactive)
REMARK    1  A    between atoms: C_3  and  N_4
REMARK    2  A    between atoms: N_13  and  C_14
REMARK    3  A    between atoms: C_14  and  C_15
REMARK                            x       y       z     vdW  Elec       q    Type
REMARK                         _______ _______ _______ _____ _____    ______ ____
ROOT
ATOM      1  O   UNL     1       2.228   9.441  17.476  0.00  0.00    +0.000 OA
ATOM      2  C   UNL     1       1.865   8.959  18.550  0.00  0.00    +0.000 C 
ATOM      3  C   UNL     1       1.015   9.833  19.506  0.00  0.00    +0.000 C 
ATOM      4  C   UNL     1       1.311   9.447  20.960  0.00  0.00    +0.000 C 
ATOM      5  C   UNL     1       1.174   7.949  21.185  0.00  0.00    +0.000 C 
ATOM      6  C   UNL     1       2.129   7.197  20.270  0.00  0.00    +0.000 C 
ATOM      7  N   UNL     1       2.073   7.625  18.880  0.00  0.00    +0.000 N 
ENDROOT
BRANCH   3   8
ATOM      8  N   UNL     1      -0.444   9.741  19.175  0.00  0.00    +0.000 NA
ATOM      9  C   UNL     1      -0.847  10.490  17.951  0.00  0.00    +0.000 C 
ATOM     10  C   UNL     1      -0.849  12.021  18.112  0.00  0.00    +0.000 C 
ATOM     11  O   UNL     1      -1.748  12.409  19.160  0.00  0.00    +0.000 OA
ATOM     12  C   UNL     1      -1.362  11.798  20.395  0.00  0.00    +0.000 C 
ATOM     13  C   UNL     1      -1.295  10.259  20.281  0.00  0.00    +0.000 C 
ENDBRANCH   3   8
BRANCH   7  14
ATOM     14  C   UNL     1       2.641   6.723  17.859  0.00  0.00    +0.000 C 
BRANCH  14  15
ATOM     15  C   UNL     1       2.692   5.272  18.256  0.00  0.00    +0.000 A 
ATOM     16  C   UNL     1       1.645   4.424  17.873  0.00  0.00    +0.000 A 
ATOM     17  F   UNL     1       0.678   4.883  17.064  0.00  0.00    +0.000 F 
ATOM     18  C   UNL     1       1.576   3.094  18.290  0.00  0.00    +0.000 A 
ATOM     19  C   UNL     1       2.561   2.582  19.125  0.00  0.00    +0.000 A 
ATOM     20  C   UNL     1       3.645   3.383  19.474  0.00  0.00    +0.000 A 
ATOM     21  C   UNL     1       3.732   4.704  19.010  0.00  0.00    +0.000 A 
ATOM     22 CL   UNL     1       5.218   5.528  19.337  0.00  0.00    +0.000 Cl
ENDBRANCH  14  15
ENDBRANCH   7  14
TORSDOF 3
ENDMDL
MODEL 7
REMARK VINA RESULT:      -6.0      1.679      1.937
REMARK  Name = 
REMARK  3 active torsions:
REMARK  status: ('A' for Active; 'I' for Inactive)
REMARK    1  A    between atoms: C_3  and  N_4
REMARK    2  A    between atoms: N_13  and  C_14
REMARK    3  A    between atoms: C_14  and  C_15
REMARK                            x       y       z     vdW  Elec       q    Type
REMARK                         _______ _______ _______ _____ _____    ______ ____
ROOT
ATOM      1  O   UNL     1       0.296   8.151  21.264  0.00  0.00    +0.000 OA
ATOM      2  C   UNL     1       0.931   8.373  20.233  0.00  0.00    +0.000 C 
ATOM      3  C   UNL     1       0.604   9.651  19.421  0.00  0.00    +0.000 C 
ATOM      4  C   UNL     1       0.854   9.395  17.929  0.00  0.00    +0.000 C 
ATOM      5  C   UNL     1       2.243   8.827  17.681  0.00  0.00    +0.000 C 
ATOM      6  C   UNL     1       2.415   7.522  18.443  0.00  0.00    +0.000 C 
ATOM      7  N   UNL     1       2.016   7.598  19.840  0.00  0.00    +0.000 N 
ENDROOT
BRANCH   3   8
ATOM      8  N   UNL     1       1.368  10.833  19.934  0.00  0.00    +0.000 NA
ATOM      9  C   UNL     1       0.849  11.395  21.213  0.00  0.00    +0.000 C 
ATOM     10  C   UNL     1      -0.485  12.152  21.082  0.00  0.00    +0.000 C 
ATOM     11  O   UNL     1      -0.347  13.247  20.166  0.00  0.00    +0.000 OA
ATOM     12  C   UNL     1       0.061  12.768  18.881  0.00  0.00    +0.000 C 
ATOM     13  C   UNL     1       1.373  11.956  18.957  0.00  0.00    +0.000 C 
ENDBRANCH   3   8
BRANCH   7  14
ATOM     14  C   UNL     1       2.499   6.543  20.752  0.00  0.00    +0.000 C 
BRANCH  14  15
ATOM     15  C   UNL     1       2.474   5.151  20.178  0.00  0.00    +0.000 A 
ATOM     16  C   UNL     1       1.274   4.430  20.190  0.00  0.00    +0.000 A 
ATOM     17  F   UNL     1       0.144   5.025  20.602  0.00  0.00    +0.000 F 
ATOM     18  C   UNL     1       1.201   3.102  19.767  0.00  0.00    +0.000 A 
ATOM     19  C   UNL     1       2.350   2.454  19.331  0.00  0.00    +0.000 A 
ATOM     20  C   UNL     1       3.546   3.163  19.251  0.00  0.00    +0.000 A 
ATOM     21  C   UNL     1       3.600   4.512  19.632  0.00  0.00    +0.000 A 
ATOM     22 CL   UNL     1       5.082   5.338  19.292  0.00  0.00    +0.000 Cl
ENDBRANCH  14  15
ENDBRANCH   7  14
TORSDOF 3
ENDMDL
MODEL 8
REMARK VINA RESULT:      -5.9      2.011      2.785
REMARK  Name = 
REMARK  3 active torsions:
REMARK  status: ('A' for Active; 'I' for Inactive)
REMARK    1  A    between atoms: C_3  and  N_4
REMARK    2  A    between atoms: N_13  and  C_14
REMARK    3  A    between atoms: C_14  and  C_15
REMARK                            x       y       z     vdW  Elec       q    Type
REMARK                         _______ _______ _______ _____ _____    ______ ____
ROOT
ATOM      1  O   UNL     1       2.000   9.698  17.488  0.00  0.00    +0.000 OA
ATOM      2  C   UNL     1       1.708   9.205  18.578  0.00  0.00    +0.000 C 
ATOM      3  C   UNL     1       0.987  10.091  19.624  0.00  0.00    +0.000 C 
ATOM      4  C   UNL     1       1.389   9.653  21.038  0.00  0.00    +0.000 C 
ATOM      5  C   UNL     1       1.201   8.158  21.240  0.00  0.00    +0.000 C 
ATOM      6  C   UNL     1       2.036   7.388  20.228  0.00  0.00    +0.000 C 
ATOM      7  N   UNL     1       1.880   7.854  18.859  0.00  0.00    +0.000 N 
ENDROOT
BRANCH   3   8
ATOM      8  N   UNL     1      -0.498  10.074  19.421  0.00  0.00    +0.000 NA
ATOM      9  C   UNL     1      -0.958  10.764  18.183  0.00  0.00    +0.000 C 
ATOM     10  C   UNL     1      -0.854  12.299  18.232  0.00  0.00    +0.000 C 
ATOM     11  O   UNL     1      -1.634  12.815  19.318  0.00  0.00    +0.000 OA
ATOM     12  C   UNL     1      -1.182  12.264  20.559  0.00  0.00    +0.000 C 
ATOM     13  C   UNL     1      -1.219  10.720  20.551  0.00  0.00    +0.000 C 
ENDBRANCH   3   8
BRANCH   7  14
ATOM     14  C   UNL     1       2.315   6.955  17.772  0.00  0.00    +0.000 C 
BRANCH  14  15
ATOM     15  C   UNL     1       3.181   5.805  18.212  0.00  0.00    +0.000 A 
ATOM     16  C   UNL     1       2.573   4.640  18.698  0.00  0.00    +0.000 A 
ATOM     17  F   UNL     1       1.238   4.520  18.655  0.00  0.00    +0.000 F 
ATOM     18  C   UNL     1       3.313   3.577  19.216  0.00  0.00    +0.000 A 
ATOM     19  C   UNL     1       4.698   3.665  19.273  0.00  0.00    +0.000 A 
ATOM     20  C   UNL     1       5.334   4.784  18.743  0.00  0.00    +0.000 A 
ATOM     21  C   UNL     1       4.585   5.828  18.180  0.00  0.00    +0.000 A 
ATOM     22 CL   UNL     1       5.491   7.061  17.371  0.00  0.00    +0.000 Cl
ENDBRANCH  14  15
ENDBRANCH   7  14
TORSDOF 3
ENDMDL
MODEL 9
REMARK VINA RESULT:      -5.8      1.990      2.467
REMARK  Name = 
REMARK  3 active torsions:
REMARK  status: ('A' for Active; 'I' for Inactive)
REMARK    1  A    between atoms: C_3  and  N_4
REMARK    2  A    between atoms: N_13  and  C_14
REMARK    3  A    between atoms: C_14  and  C_15
REMARK                            x       y       z     vdW  Elec       q    Type
REMARK                         _______ _______ _______ _____ _____    ______ ____
ROOT
ATOM      1  O   UNL     1       1.909   5.799  20.294  0.00  0.00    +0.000 OA
ATOM      2  C   UNL     1       2.236   6.705  19.525  0.00  0.00    +0.000 C 
ATOM      3  C   UNL     1       1.336   7.963  19.435  0.00  0.00    +0.000 C 
ATOM      4  C   UNL     1       1.406   8.548  18.019  0.00  0.00    +0.000 C 
ATOM      5  C   UNL     1       2.842   8.766  17.570  0.00  0.00    +0.000 C 
ATOM      6  C   UNL     1       3.601   7.448  17.598  0.00  0.00    +0.000 C 
ATOM      7  N   UNL     1       3.444   6.704  18.838  0.00  0.00    +0.000 N 
ENDROOT
BRANCH   3   8
ATOM      8  N   UNL     1       1.697   8.967  20.488  0.00  0.00    +0.000 NA
ATOM      9  C   UNL     1       1.229   8.617  21.859  0.00  0.00    +0.000 C 
ATOM     10  C   UNL     1      -0.291   8.753  22.068  0.00  0.00    +0.000 C 
ATOM     11  O   UNL     1      -0.709  10.100  21.809  0.00  0.00    +0.000 OA
ATOM     12  C   UNL     1      -0.375  10.473  20.469  0.00  0.00    +0.000 C 
ATOM     13  C   UNL     1       1.135  10.311  20.185  0.00  0.00    +0.000 C 
ENDBRANCH   3   8
BRANCH   7  14
ATOM     14  C   UNL     1       4.424   5.638  19.130  0.00  0.00    +0.000 C 
BRANCH  14  15
ATOM     15  C   UNL     1       5.171   5.122  17.930  0.00  0.00    +0.000 A 
ATOM     16  C   UNL     1       4.480   4.383  16.962  0.00  0.00    +0.000 A 
ATOM     17  F   UNL     1       3.148   4.246  17.055  0.00  0.00    +0.000 F 
ATOM     18  C   UNL     1       5.127   3.790  15.878  0.00  0.00    +0.000 A 
ATOM     19  C   UNL     1       6.504   3.913  15.746  0.00  0.00    +0.000 A 
ATOM     20  C   UNL     1       7.211   4.691  16.660  0.00  0.00    +0.000 A 
ATOM     21  C   UNL     1       6.545   5.324  17.719  0.00  0.00    +0.000 A 
ATOM     22 CL   UNL     1       7.492   6.426  18.660  0.00  0.00    +0.000 Cl
ENDBRANCH  14  15
ENDBRANCH   7  14
TORSDOF 3
ENDMDL
