MODEL 1
REMARK VINA RESULT:      -7.7      0.000      0.000
REMARK  Name = 
REMARK  6 active torsions:
REMARK  status: ('A' for Active; 'I' for Inactive)
REMARK    1  A    between atoms: C_1  and  C_2
REMARK    2  A    between atoms: C_4  and  C_5
REMARK    3  A    between atoms: C_6  and  O_7
REMARK    4  A    between atoms: C_22  and  N_23
REMARK    5  A    between atoms: N_23  and  S_24
REMARK    6  A    between atoms: S_24  and  C_25
REMARK                            x       y       z     vdW  Elec       q    Type
REMARK                         _______ _______ _______ _____ _____    ______ ____
ROOT
ATOM      1  C   UNL     1       3.714   6.117  17.533  0.00  0.00    +0.000 A 
ATOM      2  C   UNL     1       4.784   6.460  16.651  0.00  0.00    +0.000 A 
ATOM      3  C   UNL     1       5.630   5.520  16.065  0.00  0.00    +0.000 A 
ATOM      4  C   UNL     1       5.499   4.186  16.391  0.00  0.00    +0.000 A 
ATOM      5  C   UNL     1       4.496   3.790  17.271  0.00  0.00    +0.000 A 
ATOM      6  N   UNL     1       4.508   2.434  17.641  0.00  0.00    +0.000 N 
ATOM      7  C   UNL     1       3.672   1.875  18.571  0.00  0.00    +0.000 A 
ATOM      8  O   UNL     1       3.809   0.694  18.884  0.00  0.00    +0.000 OA
ATOM      9  C   UNL     1       2.665   2.779  19.067  0.00  0.00    +0.000 A 
ATOM     10  S   UNL     1       1.527   2.255  20.221  0.00  0.00    +0.000 S 
ATOM     11  C   UNL     1       0.670   3.721  20.104  0.00  0.00    +0.000 A 
ATOM     12  C   UNL     1       1.228   4.560  19.159  0.00  0.00    +0.000 A 
ATOM     13  C   UNL     1       2.503   4.105  18.686  0.00  0.00    +0.000 A 
ATOM     14  C   UNL     1       3.548   4.716  17.818  0.00  0.00    +0.000 A 
ATOM     15  H   UNL     1       5.205   1.804  17.267  0.00  0.00    +0.000 HD
ENDROOT
BRANCH   1  19
ATOM     16  C   UNL     1       1.305   8.069  21.459  0.00  0.00    +0.000 C 
ATOM     17  C   UNL     1       1.719   8.263  20.026  0.00  0.00    +0.000 A 
ATOM     18  C   UNL     1       2.668   7.362  19.490  0.00  0.00    +0.000 A 
ATOM     19  C   UNL     1       2.874   7.219  18.109  0.00  0.00    +0.000 A 
ATOM     20  C   UNL     1       2.255   8.185  17.293  0.00  0.00    +0.000 A 
ATOM     21  C   UNL     1       1.484   9.221  17.834  0.00  0.00    +0.000 A 
ATOM     22  C   UNL     1       1.180   9.248  19.191  0.00  0.00    +0.000 A 
BRANCH  22  23
ATOM     23  N   UNL     1       0.305  10.274  19.659  0.00  0.00    +0.000 N 
ATOM     24  H   UNL     1      -0.565  10.411  19.140  0.00  0.00    +0.000 HD
BRANCH  23  25
ATOM     25  S   UNL     1       0.958  11.757  20.124  0.00  0.00    +0.000 S 
ATOM     26  C   UNL     1      -0.441  12.860  20.001  0.00  0.00    +0.000 C 
ATOM     27  O   UNL     1       1.380  11.690  21.503  0.00  0.00    +0.000 OA
ATOM     28  O   UNL     1       1.881  12.120  19.075  0.00  0.00    +0.000 OA
ENDBRANCH  23  25
ENDBRANCH  22  23
ENDBRANCH   1  19
BRANCH   2  29
ATOM     29  O   UNL     1       5.122   7.752  16.320  0.00  0.00    +0.000 OA
ATOM     30  H   UNL     1       6.091   7.812  16.267  0.00  0.00    +0.000 HD
ENDBRANCH   2  29
TORSDOF 4
ENDMDL
MODEL 2
REMARK VINA RESULT:      -7.7      3.046      7.147
REMARK  Name = 
REMARK  6 active torsions:
REMARK  status: ('A' for Active; 'I' for Inactive)
REMARK    1  A    between atoms: C_1  and  C_2
REMARK    2  A    between atoms: C_4  and  C_5
REMARK    3  A    between atoms: C_6  and  O_7
REMARK    4  A    between atoms: C_22  and  N_23
REMARK    5  A    between atoms: N_23  and  S_24
REMARK    6  A    between atoms: S_24  and  C_25
REMARK                            x       y       z     vdW  Elec       q    Type
REMARK                         _______ _______ _______ _____ _____    ______ ____
ROOT
ATOM      1  C   UNL     1       3.903   4.185  19.381  0.00  0.00    +0.000 A 
ATOM      2  C   UNL     1       3.865   2.996  20.172  0.00  0.00    +0.000 A 
ATOM      3  C   UNL     1       2.948   2.784  21.200  0.00  0.00    +0.000 A 
ATOM      4  C   UNL     1       2.066   3.786  21.547  0.00  0.00    +0.000 A 
ATOM      5  C   UNL     1       2.075   4.984  20.836  0.00  0.00    +0.000 A 
ATOM      6  N   UNL     1       1.229   5.993  21.329  0.00  0.00    +0.000 N 
ATOM      7  C   UNL     1       1.172   7.268  20.833  0.00  0.00    +0.000 A 
ATOM      8  O   UNL     1       0.454   8.104  21.379  0.00  0.00    +0.000 OA
ATOM      9  C   UNL     1       1.975   7.472  19.654  0.00  0.00    +0.000 A 
ATOM     10  S   UNL     1       2.017   8.994  18.891  0.00  0.00    +0.000 S 
ATOM     11  C   UNL     1       2.931   8.367  17.598  0.00  0.00    +0.000 A 
ATOM     12  C   UNL     1       3.145   7.011  17.740  0.00  0.00    +0.000 A 
ATOM     13  C   UNL     1       2.761   6.512  19.029  0.00  0.00    +0.000 A 
ATOM     14  C   UNL     1       2.937   5.200  19.711  0.00  0.00    +0.000 A 
ATOM     15  H   UNL     1       0.652   5.829  22.142  0.00  0.00    +0.000 HD
ENDROOT
BRANCH   1  19
ATOM     16  C   UNL     1       7.794   6.644  17.424  0.00  0.00    +0.000 C 
ATOM     17  C   UNL     1       6.904   5.436  17.325  0.00  0.00    +0.000 A 
ATOM     18  C   UNL     1       6.040   5.168  18.412  0.00  0.00    +0.000 A 
ATOM     19  C   UNL     1       4.941   4.301  18.304  0.00  0.00    +0.000 A 
ATOM     20  C   UNL     1       4.880   3.532  17.127  0.00  0.00    +0.000 A 
ATOM     21  C   UNL     1       5.858   3.631  16.131  0.00  0.00    +0.000 A 
ATOM     22  C   UNL     1       6.850   4.603  16.202  0.00  0.00    +0.000 A 
BRANCH  22  23
ATOM     23  N   UNL     1       7.755   4.716  15.102  0.00  0.00    +0.000 N 
ATOM     24  H   UNL     1       8.674   5.114  15.301  0.00  0.00    +0.000 HD
BRANCH  23  25
ATOM     25  S   UNL     1       7.174   5.272  13.620  0.00  0.00    +0.000 S 
ATOM     26  C   UNL     1       6.739   3.760  12.777  0.00  0.00    +0.000 C 
ATOM     27  O   UNL     1       5.977   6.051  13.829  0.00  0.00    +0.000 OA
ATOM     28  O   UNL     1       8.320   5.827  12.939  0.00  0.00    +0.000 OA
ENDBRANCH  23  25
ENDBRANCH  22  23
ENDBRANCH   1  19
BRANCH   2  29
ATOM     29  O   UNL     1       4.752   1.953  20.033  0.00  0.00    +0.000 OA
ATOM     30  H   UNL     1       5.003   1.643  20.919  0.00  0.00    +0.000 HD
ENDBRANCH   2  29
TORSDOF 4
ENDMDL
MODEL 3
REMARK VINA RESULT:      -7.6      1.541      2.080
REMARK  Name = 
REMARK  6 active torsions:
REMARK  status: ('A' for Active; 'I' for Inactive)
REMARK    1  A    between atoms: C_1  and  C_2
REMARK    2  A    between atoms: C_4  and  C_5
REMARK    3  A    between atoms: C_6  and  O_7
REMARK    4  A    between atoms: C_22  and  N_23
REMARK    5  A    between atoms: N_23  and  S_24
REMARK    6  A    between atoms: S_24  and  C_25
REMARK                            x       y       z     vdW  Elec       q    Type
REMARK                         _______ _______ _______ _____ _____    ______ ____
ROOT
ATOM      1  C   UNL     1       3.431   6.266  17.897  0.00  0.00    +0.000 A 
ATOM      2  C   UNL     1       4.405   6.774  16.984  0.00  0.00    +0.000 A 
ATOM      3  C   UNL     1       5.234   5.962  16.211  0.00  0.00    +0.000 A 
ATOM      4  C   UNL     1       5.187   4.593  16.367  0.00  0.00    +0.000 A 
ATOM      5  C   UNL     1       4.281   4.035  17.266  0.00  0.00    +0.000 A 
ATOM      6  N   UNL     1       4.381   2.645  17.450  0.00  0.00    +0.000 N 
ATOM      7  C   UNL     1       3.653   1.928  18.363  0.00  0.00    +0.000 A 
ATOM      8  O   UNL     1       3.865   0.726  18.503  0.00  0.00    +0.000 OA
ATOM      9  C   UNL     1       2.657   2.707  19.055  0.00  0.00    +0.000 A 
ATOM     10  S   UNL     1       1.648   1.981  20.218  0.00  0.00    +0.000 S 
ATOM     11  C   UNL     1       0.724   3.403  20.367  0.00  0.00    +0.000 A 
ATOM     12  C   UNL     1       1.163   4.384  19.499  0.00  0.00    +0.000 A 
ATOM     13  C   UNL     1       2.409   4.061  18.868  0.00  0.00    +0.000 A 
ATOM     14  C   UNL     1       3.348   4.833  18.006  0.00  0.00    +0.000 A 
ATOM     15  H   UNL     1       5.067   2.106  16.940  0.00  0.00    +0.000 HD
ENDROOT
BRANCH   1  19
ATOM     16  C   UNL     1       0.924  10.591  18.079  0.00  0.00    +0.000 C 
ATOM     17  C   UNL     1       1.295   9.331  18.813  0.00  0.00    +0.000 A 
ATOM     18  C   UNL     1       1.907   8.295  18.070  0.00  0.00    +0.000 A 
ATOM     19  C   UNL     1       2.601   7.239  18.681  0.00  0.00    +0.000 A 
ATOM     20  C   UNL     1       2.456   7.137  20.077  0.00  0.00    +0.000 A 
ATOM     21  C   UNL     1       1.668   8.036  20.804  0.00  0.00    +0.000 A 
ATOM     22  C   UNL     1       1.115   9.155  20.190  0.00  0.00    +0.000 A 
BRANCH  22  23
ATOM     23  N   UNL     1       0.409  10.087  21.010  0.00  0.00    +0.000 N 
ATOM     24  H   UNL     1       0.778  11.038  21.050  0.00  0.00    +0.000 HD
BRANCH  23  25
ATOM     25  S   UNL     1      -0.132   9.593  22.528  0.00  0.00    +0.000 S 
ATOM     26  C   UNL     1      -1.238  10.914  23.000  0.00  0.00    +0.000 C 
ATOM     27  O   UNL     1      -0.891   8.372  22.400  0.00  0.00    +0.000 OA
ATOM     28  O   UNL     1       1.021   9.672  23.394  0.00  0.00    +0.000 OA
ENDBRANCH  23  25
ENDBRANCH  22  23
ENDBRANCH   1  19
BRANCH   2  29
ATOM     29  O   UNL     1       4.660   8.114  16.802  0.00  0.00    +0.000 OA
ATOM     30  H   UNL     1       5.365   8.379  17.416  0.00  0.00    +0.000 HD
ENDBRANCH   2  29
TORSDOF 4
ENDMDL
MODEL 4
REMARK VINA RESULT:      -7.6      1.229      1.280
REMARK  Name = 
REMARK  6 active torsions:
REMARK  status: ('A' for Active; 'I' for Inactive)
REMARK    1  A    between atoms: C_1  and  C_2
REMARK    2  A    between atoms: C_4  and  C_5
REMARK    3  A    between atoms: C_6  and  O_7
REMARK    4  A    between atoms: C_22  and  N_23
REMARK    5  A    between atoms: N_23  and  S_24
REMARK    6  A    between atoms: S_24  and  C_25
REMARK                            x       y       z     vdW  Elec       q    Type
REMARK                         _______ _______ _______ _____ _____    ______ ____
ROOT
ATOM      1  C   UNL     1       4.047   6.374  18.266  0.00  0.00    +0.000 A 
ATOM      2  C   UNL     1       5.178   6.753  17.478  0.00  0.00    +0.000 A 
ATOM      3  C   UNL     1       6.242   5.898  17.198  0.00  0.00    +0.000 A 
ATOM      4  C   UNL     1       6.271   4.637  17.756  0.00  0.00    +0.000 A 
ATOM      5  C   UNL     1       5.215   4.219  18.562  0.00  0.00    +0.000 A 
ATOM      6  N   UNL     1       5.380   2.970  19.186  0.00  0.00    +0.000 N 
ATOM      7  C   UNL     1       4.504   2.433  20.093  0.00  0.00    +0.000 A 
ATOM      8  O   UNL     1       4.773   1.367  20.643  0.00  0.00    +0.000 OA
ATOM      9  C   UNL     1       3.303   3.208  20.271  0.00  0.00    +0.000 A 
ATOM     10  S   UNL     1       2.093   2.688  21.351  0.00  0.00    +0.000 S 
ATOM     11  C   UNL     1       1.046   3.931  20.844  0.00  0.00    +0.000 A 
ATOM     12  C   UNL     1       1.609   4.686  19.833  0.00  0.00    +0.000 A 
ATOM     13  C   UNL     1       2.998   4.399  19.623  0.00  0.00    +0.000 A 
ATOM     14  C   UNL     1       4.060   5.035  18.794  0.00  0.00    +0.000 A 
ATOM     15  H   UNL     1       6.217   2.425  19.033  0.00  0.00    +0.000 HD
ENDROOT
BRANCH   1  19
ATOM     16  C   UNL     1       0.732   8.449  21.385  0.00  0.00    +0.000 C 
ATOM     17  C   UNL     1       1.353   8.491  20.016  0.00  0.00    +0.000 A 
ATOM     18  C   UNL     1       2.505   7.701  19.794  0.00  0.00    +0.000 A 
ATOM     19  C   UNL     1       2.965   7.385  18.506  0.00  0.00    +0.000 A 
ATOM     20  C   UNL     1       2.358   8.088  17.449  0.00  0.00    +0.000 A 
ATOM     21  C   UNL     1       1.359   9.043  17.676  0.00  0.00    +0.000 A 
ATOM     22  C   UNL     1       0.825   9.224  18.947  0.00  0.00    +0.000 A 
BRANCH  22  23
ATOM     23  N   UNL     1      -0.262  10.139  19.091  0.00  0.00    +0.000 N 
ATOM     24  H   UNL     1      -1.022  10.063  18.412  0.00  0.00    +0.000 HD
BRANCH  23  25
ATOM     25  S   UNL     1       0.069  11.756  19.433  0.00  0.00    +0.000 S 
ATOM     26  C   UNL     1      -0.684  11.982  21.036  0.00  0.00    +0.000 C 
ATOM     27  O   UNL     1       1.495  11.943  19.556  0.00  0.00    +0.000 OA
ATOM     28  O   UNL     1      -0.708  12.519  18.484  0.00  0.00    +0.000 OA
ENDBRANCH  23  25
ENDBRANCH  22  23
ENDBRANCH   1  19
BRANCH   2  29
ATOM     29  O   UNL     1       5.357   8.010  16.949  0.00  0.00    +0.000 OA
ATOM     30  H   UNL     1       6.261   8.303  17.154  0.00  0.00    +0.000 HD
ENDBRANCH   2  29
TORSDOF 4
ENDMDL
MODEL 5
REMARK VINA RESULT:      -7.4      0.969      1.128
REMARK  Name = 
REMARK  6 active torsions:
REMARK  status: ('A' for Active; 'I' for Inactive)
REMARK    1  A    between atoms: C_1  and  C_2
REMARK    2  A    between atoms: C_4  and  C_5
REMARK    3  A    between atoms: C_6  and  O_7
REMARK    4  A    between atoms: C_22  and  N_23
REMARK    5  A    between atoms: N_23  and  S_24
REMARK    6  A    between atoms: S_24  and  C_25
REMARK                            x       y       z     vdW  Elec       q    Type
REMARK                         _______ _______ _______ _____ _____    ______ ____
ROOT
ATOM      1  C   UNL     1       3.737   6.124  17.526  0.00  0.00    +0.000 A 
ATOM      2  C   UNL     1       4.764   6.451  16.589  0.00  0.00    +0.000 A 
ATOM      3  C   UNL     1       5.551   5.498  15.944  0.00  0.00    +0.000 A 
ATOM      4  C   UNL     1       5.404   4.164  16.261  0.00  0.00    +0.000 A 
ATOM      5  C   UNL     1       4.443   3.781  17.193  0.00  0.00    +0.000 A 
ATOM      6  N   UNL     1       4.441   2.420  17.545  0.00  0.00    +0.000 N 
ATOM      7  C   UNL     1       3.644   1.870  18.515  0.00  0.00    +0.000 A 
ATOM      8  O   UNL     1       3.768   0.682  18.805  0.00  0.00    +0.000 OA
ATOM      9  C   UNL     1       2.690   2.792  19.077  0.00  0.00    +0.000 A 
ATOM     10  S   UNL     1       1.607   2.281  20.288  0.00  0.00    +0.000 S 
ATOM     11  C   UNL     1       0.782   3.770  20.237  0.00  0.00    +0.000 A 
ATOM     12  C   UNL     1       1.307   4.607  19.272  0.00  0.00    +0.000 A 
ATOM     13  C   UNL     1       2.541   4.127  18.722  0.00  0.00    +0.000 A 
ATOM     14  C   UNL     1       3.551   4.723  17.803  0.00  0.00    +0.000 A 
ATOM     15  H   UNL     1       5.099   1.778  17.125  0.00  0.00    +0.000 HD
ENDROOT
BRANCH   1  19
ATOM     16  C   UNL     1       1.134   7.852  21.433  0.00  0.00    +0.000 C 
ATOM     17  C   UNL     1       1.719   8.170  20.083  0.00  0.00    +0.000 A 
ATOM     18  C   UNL     1       2.621   7.236  19.524  0.00  0.00    +0.000 A 
ATOM     19  C   UNL     1       2.959   7.238  18.161  0.00  0.00    +0.000 A 
ATOM     20  C   UNL     1       2.535   8.362  17.427  0.00  0.00    +0.000 A 
ATOM     21  C   UNL     1       1.824   9.408  18.026  0.00  0.00    +0.000 A 
ATOM     22  C   UNL     1       1.379   9.305  19.340  0.00  0.00    +0.000 A 
BRANCH  22  23
ATOM     23  N   UNL     1       0.570  10.363  19.856  0.00  0.00    +0.000 N 
ATOM     24  H   UNL     1       0.131  10.206  20.765  0.00  0.00    +0.000 HD
BRANCH  23  25
ATOM     25  S   UNL     1      -0.486  11.166  18.816  0.00  0.00    +0.000 S 
ATOM     26  C   UNL     1      -1.740  11.782  19.928  0.00  0.00    +0.000 C 
ATOM     27  O   UNL     1       0.190  12.286  18.208  0.00  0.00    +0.000 OA
ATOM     28  O   UNL     1      -1.098  10.133  18.012  0.00  0.00    +0.000 OA
ENDBRANCH  23  25
ENDBRANCH  22  23
ENDBRANCH   1  19
BRANCH   2  29
ATOM     29  O   UNL     1       5.115   7.739  16.255  0.00  0.00    +0.000 OA
ATOM     30  H   UNL     1       5.219   8.251  17.074  0.00  0.00    +0.000 HD
ENDBRANCH   2  29
TORSDOF 4
ENDMDL
MODEL 6
REMARK VINA RESULT:      -7.4      2.342      3.890
REMARK  Name = 
REMARK  6 active torsions:
REMARK  status: ('A' for Active; 'I' for Inactive)
REMARK    1  A    between atoms: C_1  and  C_2
REMARK    2  A    between atoms: C_4  and  C_5
REMARK    3  A    between atoms: C_6  and  O_7
REMARK    4  A    between atoms: C_22  and  N_23
REMARK    5  A    between atoms: N_23  and  S_24
REMARK    6  A    between atoms: S_24  and  C_25
REMARK                            x       y       z     vdW  Elec       q    Type
REMARK                         _______ _______ _______ _____ _____    ______ ____
ROOT
ATOM      1  C   UNL     1       2.387   4.805  18.921  0.00  0.00    +0.000 A 
ATOM      2  C   UNL     1       1.546   3.716  19.304  0.00  0.00    +0.000 A 
ATOM      3  C   UNL     1       1.796   2.390  18.953  0.00  0.00    +0.000 A 
ATOM      4  C   UNL     1       2.862   2.090  18.131  0.00  0.00    +0.000 A 
ATOM      5  C   UNL     1       3.701   3.112  17.695  0.00  0.00    +0.000 A 
ATOM      6  N   UNL     1       4.689   2.738  16.767  0.00  0.00    +0.000 N 
ATOM      7  C   UNL     1       5.541   3.611  16.145  0.00  0.00    +0.000 A 
ATOM      8  O   UNL     1       6.322   3.198  15.291  0.00  0.00    +0.000 OA
ATOM      9  C   UNL     1       5.431   4.968  16.618  0.00  0.00    +0.000 A 
ATOM     10  S   UNL     1       6.423   6.191  15.968  0.00  0.00    +0.000 S 
ATOM     11  C   UNL     1       5.858   7.317  17.114  0.00  0.00    +0.000 A 
ATOM     12  C   UNL     1       4.970   6.736  17.998  0.00  0.00    +0.000 A 
ATOM     13  C   UNL     1       4.563   5.419  17.604  0.00  0.00    +0.000 A 
ATOM     14  C   UNL     1       3.531   4.473  18.113  0.00  0.00    +0.000 A 
ATOM     15  H   UNL     1       4.771   1.778  16.462  0.00  0.00    +0.000 HD
ENDROOT
BRANCH   1  19
ATOM     16  C   UNL     1       1.972   9.671  17.835  0.00  0.00    +0.000 C 
ATOM     17  C   UNL     1       1.725   8.595  18.857  0.00  0.00    +0.000 A 
ATOM     18  C   UNL     1       1.874   7.251  18.442  0.00  0.00    +0.000 A 
ATOM     19  C   UNL     1       2.011   6.192  19.353  0.00  0.00    +0.000 A 
ATOM     20  C   UNL     1       1.759   6.507  20.701  0.00  0.00    +0.000 A 
ATOM     21  C   UNL     1       1.393   7.798  21.100  0.00  0.00    +0.000 A 
ATOM     22  C   UNL     1       1.410   8.854  20.195  0.00  0.00    +0.000 A 
BRANCH  22  23
ATOM     23  N   UNL     1       1.127  10.163  20.690  0.00  0.00    +0.000 N 
ATOM     24  H   UNL     1       1.539  10.415  21.590  0.00  0.00    +0.000 HD
BRANCH  23  25
ATOM     25  S   UNL     1      -0.445  10.762  20.567  0.00  0.00    +0.000 S 
ATOM     26  C   UNL     1      -0.182  12.458  20.077  0.00  0.00    +0.000 C 
ATOM     27  O   UNL     1      -1.145  10.073  19.510  0.00  0.00    +0.000 OA
ATOM     28  O   UNL     1      -0.958  10.782  21.917  0.00  0.00    +0.000 OA
ENDBRANCH  23  25
ENDBRANCH  22  23
ENDBRANCH   1  19
BRANCH   2  29
ATOM     29  O   UNL     1       0.381   3.861  20.021  0.00  0.00    +0.000 OA
ATOM     30  H   UNL     1       0.430   4.693  20.521  0.00  0.00    +0.000 HD
ENDBRANCH   2  29
TORSDOF 4
ENDMDL
MODEL 7
REMARK VINA RESULT:      -7.3      2.570      4.062
REMARK  Name = 
REMARK  6 active torsions:
REMARK  status: ('A' for Active; 'I' for Inactive)
REMARK    1  A    between atoms: C_1  and  C_2
REMARK    2  A    between atoms: C_4  and  C_5
REMARK    3  A    between atoms: C_6  and  O_7
REMARK    4  A    between atoms: C_22  and  N_23
REMARK    5  A    between atoms: N_23  and  S_24
REMARK    6  A    between atoms: S_24  and  C_25
REMARK                            x       y       z     vdW  Elec       q    Type
REMARK                         _______ _______ _______ _____ _____    ______ ____
ROOT
ATOM      1  C   UNL     1       2.634   4.597  18.621  0.00  0.00    +0.000 A 
ATOM      2  C   UNL     1       1.805   3.447  18.797  0.00  0.00    +0.000 A 
ATOM      3  C   UNL     1       2.117   2.188  18.289  0.00  0.00    +0.000 A 
ATOM      4  C   UNL     1       3.243   2.026  17.508  0.00  0.00    +0.000 A 
ATOM      5  C   UNL     1       4.076   3.116  17.271  0.00  0.00    +0.000 A 
ATOM      6  N   UNL     1       5.132   2.893  16.370  0.00  0.00    +0.000 N 
ATOM      7  C   UNL     1       5.995   3.862  15.930  0.00  0.00    +0.000 A 
ATOM      8  O   UNL     1       6.841   3.586  15.082  0.00  0.00    +0.000 OA
ATOM      9  C   UNL     1       5.813   5.139  16.572  0.00  0.00    +0.000 A 
ATOM     10  S   UNL     1       6.806   6.460  16.161  0.00  0.00    +0.000 S 
ATOM     11  C   UNL     1       6.135   7.406  17.407  0.00  0.00    +0.000 A 
ATOM     12  C   UNL     1       5.210   6.692  18.143  0.00  0.00    +0.000 A 
ATOM     13  C   UNL     1       4.871   5.432  17.549  0.00  0.00    +0.000 A 
ATOM     14  C   UNL     1       3.838   4.402  17.856  0.00  0.00    +0.000 A 
ATOM     15  H   UNL     1       5.263   1.986  15.945  0.00  0.00    +0.000 HD
ENDROOT
BRANCH   1  19
ATOM     16  C   UNL     1       1.829   9.502  18.057  0.00  0.00    +0.000 C 
ATOM     17  C   UNL     1       1.713   8.315  18.975  0.00  0.00    +0.000 A 
ATOM     18  C   UNL     1       1.930   7.033  18.418  0.00  0.00    +0.000 A 
ATOM     19  C   UNL     1       2.189   5.904  19.210  0.00  0.00    +0.000 A 
ATOM     20  C   UNL     1       1.991   6.066  20.594  0.00  0.00    +0.000 A 
ATOM     21  C   UNL     1       1.560   7.281  21.139  0.00  0.00    +0.000 A 
ATOM     22  C   UNL     1       1.454   8.418  20.346  0.00  0.00    +0.000 A 
BRANCH  22  23
ATOM     23  N   UNL     1       1.110   9.649  20.985  0.00  0.00    +0.000 N 
ATOM     24  H   UNL     1       1.872  10.305  21.163  0.00  0.00    +0.000 HD
BRANCH  23  25
ATOM     25  S   UNL     1       0.032   9.623  22.281  0.00  0.00    +0.000 S 
ATOM     26  C   UNL     1      -0.841  11.169  22.096  0.00  0.00    +0.000 C 
ATOM     27  O   UNL     1      -0.902   8.536  22.113  0.00  0.00    +0.000 OA
ATOM     28  O   UNL     1       0.850   9.733  23.466  0.00  0.00    +0.000 OA
ENDBRANCH  23  25
ENDBRANCH  22  23
ENDBRANCH   1  19
BRANCH   2  29
ATOM     29  O   UNL     1       0.593   3.468  19.447  0.00  0.00    +0.000 OA
ATOM     30  H   UNL     1       0.615   2.809  20.161  0.00  0.00    +0.000 HD
ENDBRANCH   2  29
TORSDOF 4
ENDMDL
MODEL 8
REMARK VINA RESULT:      -7.2      7.016      9.468
REMARK  Name = 
REMARK  6 active torsions:
REMARK  status: ('A' for Active; 'I' for Inactive)
REMARK    1  A    between atoms: C_1  and  C_2
REMARK    2  A    between atoms: C_4  and  C_5
REMARK    3  A    between atoms: C_6  and  O_7
REMARK    4  A    between atoms: C_22  and  N_23
REMARK    5  A    between atoms: N_23  and  S_24
REMARK    6  A    between atoms: S_24  and  C_25
REMARK                            x       y       z     vdW  Elec       q    Type
REMARK                         _______ _______ _______ _____ _____    ______ ____
ROOT
ATOM      1  C   UNL     1      -2.900  11.923  18.455  0.00  0.00    +0.000 A 
ATOM      2  C   UNL     1      -3.164  11.372  17.164  0.00  0.00    +0.000 A 
ATOM      3  C   UNL     1      -4.445  11.091  16.693  0.00  0.00    +0.000 A 
ATOM      4  C   UNL     1      -5.532  11.274  17.521  0.00  0.00    +0.000 A 
ATOM      5  C   UNL     1      -5.340  11.777  18.805  0.00  0.00    +0.000 A 
ATOM      6  N   UNL     1      -6.484  11.820  19.621  0.00  0.00    +0.000 N 
ATOM      7  C   UNL     1      -6.482  12.185  20.942  0.00  0.00    +0.000 A 
ATOM      8  O   UNL     1      -7.521  12.119  21.595  0.00  0.00    +0.000 OA
ATOM      9  C   UNL     1      -5.204  12.655  21.414  0.00  0.00    +0.000 A 
ATOM     10  S   UNL     1      -5.015  13.163  23.029  0.00  0.00    +0.000 S 
ATOM     11  C   UNL     1      -3.431  13.705  22.717  0.00  0.00    +0.000 A 
ATOM     12  C   UNL     1      -3.092  13.539  21.389  0.00  0.00    +0.000 A 
ATOM     13  C   UNL     1      -4.042  12.751  20.660  0.00  0.00    +0.000 A 
ATOM     14  C   UNL     1      -4.049  12.168  19.288  0.00  0.00    +0.000 A 
ATOM     15  H   UNL     1      -7.380  11.511  19.270  0.00  0.00    +0.000 HD
ENDROOT
BRANCH   1  19
ATOM     16  C   UNL     1       1.035  10.725  21.302  0.00  0.00    +0.000 C 
ATOM     17  C   UNL     1       0.519  11.593  20.186  0.00  0.00    +0.000 A 
ATOM     18  C   UNL     1      -0.743  11.271  19.636  0.00  0.00    +0.000 A 
ATOM     19  C   UNL     1      -1.477  12.178  18.854  0.00  0.00    +0.000 A 
ATOM     20  C   UNL     1      -0.788  13.337  18.452  0.00  0.00    +0.000 A 
ATOM     21  C   UNL     1       0.545  13.565  18.812  0.00  0.00    +0.000 A 
ATOM     22  C   UNL     1       1.194  12.720  19.707  0.00  0.00    +0.000 A 
BRANCH  22  23
ATOM     23  N   UNL     1       2.519  13.068  20.112  0.00  0.00    +0.000 N 
ATOM     24  H   UNL     1       3.188  12.302  20.207  0.00  0.00    +0.000 HD
BRANCH  23  25
ATOM     25  S   UNL     1       2.727  14.196  21.347  0.00  0.00    +0.000 S 
ATOM     26  C   UNL     1       3.040  15.708  20.451  0.00  0.00    +0.000 C 
ATOM     27  O   UNL     1       1.496  14.338  22.087  0.00  0.00    +0.000 OA
ATOM     28  O   UNL     1       3.958  13.826  22.005  0.00  0.00    +0.000 OA
ENDBRANCH  23  25
ENDBRANCH  22  23
ENDBRANCH   1  19
BRANCH   2  29
ATOM     29  O   UNL     1      -2.182  11.020  16.266  0.00  0.00    +0.000 OA
ATOM     30  H   UNL     1      -2.348  11.489  15.430  0.00  0.00    +0.000 HD
ENDBRANCH   2  29
TORSDOF 4
ENDMDL
MODEL 9
REMARK VINA RESULT:      -7.1      1.371      1.931
REMARK  Name = 
REMARK  6 active torsions:
REMARK  status: ('A' for Active; 'I' for Inactive)
REMARK    1  A    between atoms: C_1  and  C_2
REMARK    2  A    between atoms: C_4  and  C_5
REMARK    3  A    between atoms: C_6  and  O_7
REMARK    4  A    between atoms: C_22  and  N_23
REMARK    5  A    between atoms: N_23  and  S_24
REMARK    6  A    between atoms: S_24  and  C_25
REMARK                            x       y       z     vdW  Elec       q    Type
REMARK                         _______ _______ _______ _____ _____    ______ ____
ROOT
ATOM      1  C   UNL     1       3.357   6.503  18.424  0.00  0.00    +0.000 A 
ATOM      2  C   UNL     1       4.230   7.045  17.432  0.00  0.00    +0.000 A 
ATOM      3  C   UNL     1       5.253   6.319  16.826  0.00  0.00    +0.000 A 
ATOM      4  C   UNL     1       5.511   5.028  17.237  0.00  0.00    +0.000 A 
ATOM      5  C   UNL     1       4.717   4.452  18.225  0.00  0.00    +0.000 A 
ATOM      6  N   UNL     1       5.121   3.180  18.669  0.00  0.00    +0.000 N 
ATOM      7  C   UNL     1       4.535   2.495  19.700  0.00  0.00    +0.000 A 
ATOM      8  O   UNL     1       5.008   1.420  20.065  0.00  0.00    +0.000 OA
ATOM      9  C   UNL     1       3.360   3.137  20.232  0.00  0.00    +0.000 A 
ATOM     10  S   UNL     1       2.491   2.423  21.512  0.00  0.00    +0.000 S 
ATOM     11  C   UNL     1       1.264   3.596  21.389  0.00  0.00    +0.000 A 
ATOM     12  C   UNL     1       1.506   4.476  20.352  0.00  0.00    +0.000 A 
ATOM     13  C   UNL     1       2.819   4.338  19.793  0.00  0.00    +0.000 A 
ATOM     14  C   UNL     1       3.596   5.134  18.802  0.00  0.00    +0.000 A 
ATOM     15  H   UNL     1       5.933   2.730  18.270  0.00  0.00    +0.000 HD
ENDROOT
BRANCH   1  19
ATOM     16  C   UNL     1       0.009  10.169  17.812  0.00  0.00    +0.000 C 
ATOM     17  C   UNL     1       0.581   9.145  18.755  0.00  0.00    +0.000 A 
ATOM     18  C   UNL     1       1.440   8.162  18.212  0.00  0.00    +0.000 A 
ATOM     19  C   UNL     1       2.294   7.385  19.010  0.00  0.00    +0.000 A 
ATOM     20  C   UNL     1       2.081   7.470  20.399  0.00  0.00    +0.000 A 
ATOM     21  C   UNL     1       1.078   8.281  20.942  0.00  0.00    +0.000 A 
ATOM     22  C   UNL     1       0.350   9.148  20.135  0.00  0.00    +0.000 A 
BRANCH  22  23
ATOM     23  N   UNL     1      -0.586  10.022  20.767  0.00  0.00    +0.000 N 
ATOM     24  H   UNL     1      -1.288  10.459  20.167  0.00  0.00    +0.000 HD
BRANCH  23  25
ATOM     25  S   UNL     1      -0.031  11.115  21.924  0.00  0.00    +0.000 S 
ATOM     26  C   UNL     1      -1.262  12.407  21.868  0.00  0.00    +0.000 C 
ATOM     27  O   UNL     1      -0.061  10.498  23.229  0.00  0.00    +0.000 OA
ATOM     28  O   UNL     1       1.191  11.665  21.383  0.00  0.00    +0.000 OA
ENDBRANCH  23  25
ENDBRANCH  22  23
ENDBRANCH   1  19
BRANCH   2  29
ATOM     29  O   UNL     1       4.182   8.351  17.000  0.00  0.00    +0.000 OA
ATOM     30  H   UNL     1       3.449   8.439  16.367  0.00  0.00    +0.000 HD
ENDBRANCH   2  29
TORSDOF 4
ENDMDL
