MODEL 1
REMARK VINA RESULT:      -8.6      0.000      0.000
REMARK  Name = 
REMARK  8 active torsions:
REMARK  status: ('A' for Active; 'I' for Inactive)
REMARK    1  A    between atoms: C_1  and  C_2
REMARK    2  A    between atoms: C_6  and  C_7
REMARK    3  A    between atoms: N_9  and  C_10
REMARK    4  A    between atoms: C_10  and  C_11
REMARK    5  A    between atoms: C_11  and  C_12
REMARK    6  A    between atoms: C_20  and  C_21
REMARK    7  A    between atoms: C_29  and  C_30
REMARK    8  A    between atoms: C_30  and  N_31
REMARK                            x       y       z     vdW  Elec       q    Type
REMARK                         _______ _______ _______ _____ _____    ______ ____
ROOT
ATOM      1  C   UNL     1       2.319   2.682  21.611  0.00  0.00    +0.000 C 
ATOM      2  C   UNL     1       2.620   3.840  20.680  0.00  0.00    +0.000 A 
ATOM      3  N   UNL     1       1.918   4.920  20.877  0.00  0.00    +0.000 NA
ATOM      4  C   UNL     1       2.133   5.977  20.047  0.00  0.00    +0.000 A 
ATOM      5  N   UNL     1       1.567   7.175  20.062  0.00  0.00    +0.000 NA
ATOM      6  C   UNL     1       2.124   7.876  19.007  0.00  0.00    +0.000 A 
ATOM      7  C   UNL     1       3.037   7.073  18.350  0.00  0.00    +0.000 A 
ATOM      8  N   UNL     1       3.056   5.874  19.014  0.00  0.00    +0.000 N 
ATOM      9  C   UNL     1       3.834   4.725  18.793  0.00  0.00    +0.000 A 
ATOM     10  C   UNL     1       3.683   3.652  19.609  0.00  0.00    +0.000 A 
ENDROOT
BRANCH   9  11
ATOM     11  C   UNL     1       4.818   4.706  17.684  0.00  0.00    +0.000 A 
ATOM     12  C   UNL     1       4.387   4.272  16.420  0.00  0.00    +0.000 A 
ATOM     13  C   UNL     1       5.251   4.317  15.323  0.00  0.00    +0.000 A 
ATOM     14  C   UNL     1       6.551   4.790  15.484  0.00  0.00    +0.000 A 
ATOM     15 CL   UNL     1       7.597   4.887  14.123  0.00  0.00    +0.000 Cl
ATOM     16  C   UNL     1       7.009   5.188  16.738  0.00  0.00    +0.000 A 
ATOM     17  C   UNL     1       6.148   5.139  17.836  0.00  0.00    +0.000 A 
ATOM     18 CL   UNL     1       6.774   5.610  19.378  0.00  0.00    +0.000 Cl
ENDBRANCH   9  11
BRANCH   6  19
ATOM     19  C   UNL     1       1.818   9.261  18.623  0.00  0.00    +0.000 C 
ATOM     20  O   UNL     1       2.378   9.797  17.665  0.00  0.00    +0.000 OA
ATOM     21  N   UNL     1       0.881   9.931  19.390  0.00  0.00    +0.000 N 
ATOM     22  H   UNL     1       0.444   9.418  20.148  0.00  0.00    +0.000 HD
BRANCH  21  23
ATOM     23  C   UNL     1       0.508  11.300  19.041  0.00  0.00    +0.000 C 
BRANCH  23  24
ATOM     24  C   UNL     1       0.668  12.322  20.167  0.00  0.00    +0.000 C 
BRANCH  24  25
ATOM     25  C   UNL     1      -0.387  12.151  21.242  0.00  0.00    +0.000 A 
ATOM     26  C   UNL     1      -1.536  12.941  21.244  0.00  0.00    +0.000 A 
ATOM     27  C   UNL     1      -2.502  12.744  22.231  0.00  0.00    +0.000 A 
ATOM     28  C   UNL     1      -2.301  11.763  23.199  0.00  0.00    +0.000 A 
ATOM     29  C   UNL     1      -1.126  11.031  23.136  0.00  0.00    +0.000 A 
ATOM     30  N   UNL     1      -0.176  11.198  22.183  0.00  0.00    +0.000 NA
ENDBRANCH  24  25
ENDBRANCH  23  24
ENDBRANCH  21  23
ENDBRANCH   6  19
BRANCH  10  31
ATOM     31  C   UNL     1       4.557   2.421  19.594  0.00  0.00    +0.000 C 
BRANCH  31  32
ATOM     32  N   UNL     1       4.081   1.379  18.690  0.00  0.00    +0.000 NA
ATOM     33  H   UNL     1       4.522   0.488  18.920  0.00  0.00    +0.000 HD
ATOM     34  H   UNL     1       4.404   1.594  17.745  0.00  0.00    +0.000 HD
ENDBRANCH  31  32
ENDBRANCH  10  31
TORSDOF 7
ENDMDL
MODEL 2
REMARK VINA RESULT:      -8.5      1.683      2.274
REMARK  Name = 
REMARK  8 active torsions:
REMARK  status: ('A' for Active; 'I' for Inactive)
REMARK    1  A    between atoms: C_1  and  C_2
REMARK    2  A    between atoms: C_6  and  C_7
REMARK    3  A    between atoms: N_9  and  C_10
REMARK    4  A    between atoms: C_10  and  C_11
REMARK    5  A    between atoms: C_11  and  C_12
REMARK    6  A    between atoms: C_20  and  C_21
REMARK    7  A    between atoms: C_29  and  C_30
REMARK    8  A    between atoms: C_30  and  N_31
REMARK                            x       y       z     vdW  Elec       q    Type
REMARK                         _______ _______ _______ _____ _____    ______ ____
ROOT
ATOM      1  C   UNL     1       1.967   2.488  21.547  0.00  0.00    +0.000 C 
ATOM      2  C   UNL     1       2.338   3.660  20.660  0.00  0.00    +0.000 A 
ATOM      3  N   UNL     1       1.692   4.769  20.891  0.00  0.00    +0.000 NA
ATOM      4  C   UNL     1       1.971   5.841  20.100  0.00  0.00    +0.000 A 
ATOM      5  N   UNL     1       1.470   7.066  20.154  0.00  0.00    +0.000 NA
ATOM      6  C   UNL     1       2.073   7.773  19.127  0.00  0.00    +0.000 A 
ATOM      7  C   UNL     1       2.947   6.945  18.449  0.00  0.00    +0.000 A 
ATOM      8  N   UNL     1       2.896   5.724  19.070  0.00  0.00    +0.000 N 
ATOM      9  C   UNL     1       3.614   4.544  18.814  0.00  0.00    +0.000 A 
ATOM     10  C   UNL     1       3.398   3.452  19.590  0.00  0.00    +0.000 A 
ENDROOT
BRANCH   9  11
ATOM     11  C   UNL     1       4.604   4.511  17.711  0.00  0.00    +0.000 A 
ATOM     12  C   UNL     1       4.176   4.082  16.445  0.00  0.00    +0.000 A 
ATOM     13  C   UNL     1       5.048   4.115  15.354  0.00  0.00    +0.000 A 
ATOM     14  C   UNL     1       6.353   4.570  15.523  0.00  0.00    +0.000 A 
ATOM     15 CL   UNL     1       7.409   4.652  14.169  0.00  0.00    +0.000 Cl
ATOM     16  C   UNL     1       6.808   4.962  16.780  0.00  0.00    +0.000 A 
ATOM     17  C   UNL     1       5.939   4.925  17.873  0.00  0.00    +0.000 A 
ATOM     18 CL   UNL     1       6.562   5.388  19.418  0.00  0.00    +0.000 Cl
ENDBRANCH   9  11
BRANCH   6  19
ATOM     19  C   UNL     1       1.845   9.185  18.791  0.00  0.00    +0.000 C 
ATOM     20  O   UNL     1       2.349   9.692  17.787  0.00  0.00    +0.000 OA
ATOM     21  N   UNL     1       1.045   9.914  19.655  0.00  0.00    +0.000 N 
ATOM     22  H   UNL     1       0.646   9.423  20.448  0.00  0.00    +0.000 HD
BRANCH  21  23
ATOM     23  C   UNL     1       0.754  11.315  19.360  0.00  0.00    +0.000 C 
BRANCH  23  24
ATOM     24  C   UNL     1      -0.666  11.767  19.703  0.00  0.00    +0.000 C 
BRANCH  24  25
ATOM     25  C   UNL     1      -1.679  11.277  18.686  0.00  0.00    +0.000 A 
ATOM     26  C   UNL     1      -2.980  11.778  18.681  0.00  0.00    +0.000 A 
ATOM     27  C   UNL     1      -3.883  11.327  17.718  0.00  0.00    +0.000 A 
ATOM     28  C   UNL     1      -3.470  10.384  16.780  0.00  0.00    +0.000 A 
ATOM     29  C   UNL     1      -2.165   9.926  16.863  0.00  0.00    +0.000 A 
ATOM     30  N   UNL     1      -1.266  10.354  17.784  0.00  0.00    +0.000 NA
ENDBRANCH  24  25
ENDBRANCH  23  24
ENDBRANCH  21  23
ENDBRANCH   6  19
BRANCH  10  31
ATOM     31  C   UNL     1       4.205   2.178  19.538  0.00  0.00    +0.000 C 
BRANCH  31  32
ATOM     32  N   UNL     1       5.234   2.096  20.569  0.00  0.00    +0.000 NA
ATOM     33  H   UNL     1       4.980   1.391  21.262  0.00  0.00    +0.000 HD
ATOM     34  H   UNL     1       5.250   2.977  21.085  0.00  0.00    +0.000 HD
ENDBRANCH  31  32
ENDBRANCH  10  31
TORSDOF 7
ENDMDL
MODEL 3
REMARK VINA RESULT:      -8.3      1.539      2.584
REMARK  Name = 
REMARK  8 active torsions:
REMARK  status: ('A' for Active; 'I' for Inactive)
REMARK    1  A    between atoms: C_1  and  C_2
REMARK    2  A    between atoms: C_6  and  C_7
REMARK    3  A    between atoms: N_9  and  C_10
REMARK    4  A    between atoms: C_10  and  C_11
REMARK    5  A    between atoms: C_11  and  C_12
REMARK    6  A    between atoms: C_20  and  C_21
REMARK    7  A    between atoms: C_29  and  C_30
REMARK    8  A    between atoms: C_30  and  N_31
REMARK                            x       y       z     vdW  Elec       q    Type
REMARK                         _______ _______ _______ _____ _____    ______ ____
ROOT
ATOM      1  C   UNL     1       2.347   2.580  21.644  0.00  0.00    +0.000 C 
ATOM      2  C   UNL     1       2.631   3.748  20.720  0.00  0.00    +0.000 A 
ATOM      3  N   UNL     1       1.931   4.824  20.939  0.00  0.00    +0.000 NA
ATOM      4  C   UNL     1       2.131   5.890  20.116  0.00  0.00    +0.000 A 
ATOM      5  N   UNL     1       1.564   7.087  20.152  0.00  0.00    +0.000 NA
ATOM      6  C   UNL     1       2.103   7.799  19.095  0.00  0.00    +0.000 A 
ATOM      7  C   UNL     1       3.005   7.003  18.415  0.00  0.00    +0.000 A 
ATOM      8  N   UNL     1       3.037   5.798  19.067  0.00  0.00    +0.000 N 
ATOM      9  C   UNL     1       3.813   4.653  18.822  0.00  0.00    +0.000 A 
ATOM     10  C   UNL     1       3.676   3.571  19.630  0.00  0.00    +0.000 A 
ENDROOT
BRANCH   9  11
ATOM     11  C   UNL     1       4.778   4.646  17.696  0.00  0.00    +0.000 A 
ATOM     12  C   UNL     1       4.324   4.234  16.433  0.00  0.00    +0.000 A 
ATOM     13  C   UNL     1       5.170   4.292  15.323  0.00  0.00    +0.000 A 
ATOM     14  C   UNL     1       6.475   4.755  15.470  0.00  0.00    +0.000 A 
ATOM     15 CL   UNL     1       7.499   4.868  14.093  0.00  0.00    +0.000 Cl
ATOM     16  C   UNL     1       6.956   5.131  16.722  0.00  0.00    +0.000 A 
ATOM     17  C   UNL     1       6.113   5.069  17.833  0.00  0.00    +0.000 A 
ATOM     18 CL   UNL     1       6.767   5.513  19.371  0.00  0.00    +0.000 Cl
ENDBRANCH   9  11
BRANCH   6  19
ATOM     19  C   UNL     1       1.789   9.187  18.730  0.00  0.00    +0.000 C 
ATOM     20  O   UNL     1       2.282   9.712  17.730  0.00  0.00    +0.000 OA
ATOM     21  N   UNL     1       0.922   9.874  19.563  0.00  0.00    +0.000 N 
ATOM     22  H   UNL     1       0.537   9.369  20.354  0.00  0.00    +0.000 HD
BRANCH  21  23
ATOM     23  C   UNL     1       0.544  11.247  19.238  0.00  0.00    +0.000 C 
BRANCH  23  24
ATOM     24  C   UNL     1       0.834  12.275  20.332  0.00  0.00    +0.000 C 
BRANCH  24  25
ATOM     25  C   UNL     1       2.039  13.132  20.000  0.00  0.00    +0.000 A 
ATOM     26  C   UNL     1       2.410  13.355  18.674  0.00  0.00    +0.000 A 
ATOM     27  C   UNL     1       3.509  14.169  18.399  0.00  0.00    +0.000 A 
ATOM     28  C   UNL     1       4.218  14.742  19.451  0.00  0.00    +0.000 A 
ATOM     29  C   UNL     1       3.794  14.458  20.739  0.00  0.00    +0.000 A 
ATOM     30  N   UNL     1       2.726  13.678  21.034  0.00  0.00    +0.000 NA
ENDBRANCH  24  25
ENDBRANCH  23  24
ENDBRANCH  21  23
ENDBRANCH   6  19
BRANCH  10  31
ATOM     31  C   UNL     1       4.551   2.342  19.588  0.00  0.00    +0.000 C 
BRANCH  31  32
ATOM     32  N   UNL     1       4.074   1.318  18.665  0.00  0.00    +0.000 NA
ATOM     33  H   UNL     1       4.227   0.390  19.062  0.00  0.00    +0.000 HD
ATOM     34  H   UNL     1       4.652   1.341  17.824  0.00  0.00    +0.000 HD
ENDBRANCH  31  32
ENDBRANCH  10  31
TORSDOF 7
ENDMDL
MODEL 4
REMARK VINA RESULT:      -8.2      1.391      1.642
REMARK  Name = 
REMARK  8 active torsions:
REMARK  status: ('A' for Active; 'I' for Inactive)
REMARK    1  A    between atoms: C_1  and  C_2
REMARK    2  A    between atoms: C_6  and  C_7
REMARK    3  A    between atoms: N_9  and  C_10
REMARK    4  A    between atoms: C_10  and  C_11
REMARK    5  A    between atoms: C_11  and  C_12
REMARK    6  A    between atoms: C_20  and  C_21
REMARK    7  A    between atoms: C_29  and  C_30
REMARK    8  A    between atoms: C_30  and  N_31
REMARK                            x       y       z     vdW  Elec       q    Type
REMARK                         _______ _______ _______ _____ _____    ______ ____
ROOT
ATOM      1  C   UNL     1       2.338   2.502  21.731  0.00  0.00    +0.000 C 
ATOM      2  C   UNL     1       2.607   3.676  20.811  0.00  0.00    +0.000 A 
ATOM      3  N   UNL     1       1.894   4.744  21.035  0.00  0.00    +0.000 NA
ATOM      4  C   UNL     1       2.080   5.815  20.216  0.00  0.00    +0.000 A 
ATOM      5  N   UNL     1       1.499   7.004  20.257  0.00  0.00    +0.000 NA
ATOM      6  C   UNL     1       2.028   7.727  19.201  0.00  0.00    +0.000 A 
ATOM      7  C   UNL     1       2.939   6.945  18.518  0.00  0.00    +0.000 A 
ATOM      8  N   UNL     1       2.986   5.737  19.165  0.00  0.00    +0.000 N 
ATOM      9  C   UNL     1       3.775   4.602  18.915  0.00  0.00    +0.000 A 
ATOM     10  C   UNL     1       3.653   3.516  19.719  0.00  0.00    +0.000 A 
ENDROOT
BRANCH   9  11
ATOM     11  C   UNL     1       4.739   4.611  17.788  0.00  0.00    +0.000 A 
ATOM     12  C   UNL     1       4.289   4.195  16.525  0.00  0.00    +0.000 A 
ATOM     13  C   UNL     1       5.132   4.266  15.414  0.00  0.00    +0.000 A 
ATOM     14  C   UNL     1       6.431   4.748  15.559  0.00  0.00    +0.000 A 
ATOM     15 CL   UNL     1       7.451   4.878  14.182  0.00  0.00    +0.000 Cl
ATOM     16  C   UNL     1       6.908   5.129  16.812  0.00  0.00    +0.000 A 
ATOM     17  C   UNL     1       6.067   5.053  17.924  0.00  0.00    +0.000 A 
ATOM     18 CL   UNL     1       6.717   5.505  19.462  0.00  0.00    +0.000 Cl
ENDBRANCH   9  11
BRANCH   6  19
ATOM     19  C   UNL     1       1.697   9.113  18.842  0.00  0.00    +0.000 C 
ATOM     20  O   UNL     1       2.329   9.716  17.973  0.00  0.00    +0.000 OA
ATOM     21  N   UNL     1       0.650   9.705  19.527  0.00  0.00    +0.000 N 
ATOM     22  H   UNL     1       0.161   9.139  20.212  0.00  0.00    +0.000 HD
BRANCH  21  23
ATOM     23  C   UNL     1       0.250  11.070  19.195  0.00  0.00    +0.000 C 
BRANCH  23  24
ATOM     24  C   UNL     1      -0.927  11.183  18.225  0.00  0.00    +0.000 C 
BRANCH  24  25
ATOM     25  C   UNL     1      -2.170  11.726  18.903  0.00  0.00    +0.000 A 
ATOM     26  C   UNL     1      -3.430  11.534  18.338  0.00  0.00    +0.000 A 
ATOM     27  C   UNL     1      -4.558  12.023  18.997  0.00  0.00    +0.000 A 
ATOM     28  C   UNL     1      -4.406  12.697  20.206  0.00  0.00    +0.000 A 
ATOM     29  C   UNL     1      -3.119  12.859  20.692  0.00  0.00    +0.000 A 
ATOM     30  N   UNL     1      -2.008  12.387  20.076  0.00  0.00    +0.000 NA
ENDBRANCH  24  25
ENDBRANCH  23  24
ENDBRANCH  21  23
ENDBRANCH   6  19
BRANCH  10  31
ATOM     31  C   UNL     1       4.542   2.298  19.672  0.00  0.00    +0.000 C 
BRANCH  31  32
ATOM     32  N   UNL     1       4.098   1.288  18.717  0.00  0.00    +0.000 NA
ATOM     33  H   UNL     1       4.904   0.859  18.260  0.00  0.00    +0.000 HD
ATOM     34  H   UNL     1       3.588   1.753  17.964  0.00  0.00    +0.000 HD
ENDBRANCH  31  32
ENDBRANCH  10  31
TORSDOF 7
ENDMDL
MODEL 5
REMARK VINA RESULT:      -8.0      1.801      2.530
REMARK  Name = 
REMARK  8 active torsions:
REMARK  status: ('A' for Active; 'I' for Inactive)
REMARK    1  A    between atoms: C_1  and  C_2
REMARK    2  A    between atoms: C_6  and  C_7
REMARK    3  A    between atoms: N_9  and  C_10
REMARK    4  A    between atoms: C_10  and  C_11
REMARK    5  A    between atoms: C_11  and  C_12
REMARK    6  A    between atoms: C_20  and  C_21
REMARK    7  A    between atoms: C_29  and  C_30
REMARK    8  A    between atoms: C_30  and  N_31
REMARK                            x       y       z     vdW  Elec       q    Type
REMARK                         _______ _______ _______ _____ _____    ______ ____
ROOT
ATOM      1  C   UNL     1       2.307   2.786  21.648  0.00  0.00    +0.000 C 
ATOM      2  C   UNL     1       2.606   3.924  20.693  0.00  0.00    +0.000 A 
ATOM      3  N   UNL     1       1.905   5.008  20.869  0.00  0.00    +0.000 NA
ATOM      4  C   UNL     1       2.119   6.048  20.017  0.00  0.00    +0.000 A 
ATOM      5  N   UNL     1       1.554   7.246  20.008  0.00  0.00    +0.000 NA
ATOM      6  C   UNL     1       2.108   7.925  18.937  0.00  0.00    +0.000 A 
ATOM      7  C   UNL     1       3.019   7.108  18.295  0.00  0.00    +0.000 A 
ATOM      8  N   UNL     1       3.039   5.923  18.984  0.00  0.00    +0.000 N 
ATOM      9  C   UNL     1       3.817   4.770  18.785  0.00  0.00    +0.000 A 
ATOM     10  C   UNL     1       3.667   3.713  19.624  0.00  0.00    +0.000 A 
ENDROOT
BRANCH   9  11
ATOM     11  C   UNL     1       4.797   4.727  17.674  0.00  0.00    +0.000 A 
ATOM     12  C   UNL     1       4.357   4.290  16.414  0.00  0.00    +0.000 A 
ATOM     13  C   UNL     1       5.220   4.313  15.316  0.00  0.00    +0.000 A 
ATOM     14  C   UNL     1       6.527   4.768  15.471  0.00  0.00    +0.000 A 
ATOM     15 CL   UNL     1       7.572   4.838  14.107  0.00  0.00    +0.000 Cl
ATOM     16  C   UNL     1       6.994   5.168  16.721  0.00  0.00    +0.000 A 
ATOM     17  C   UNL     1       6.134   5.140  17.821  0.00  0.00    +0.000 A 
ATOM     18 CL   UNL     1       6.771   5.614  19.357  0.00  0.00    +0.000 Cl
ENDBRANCH   9  11
BRANCH   6  19
ATOM     19  C   UNL     1       1.802   9.302  18.526  0.00  0.00    +0.000 C 
ATOM     20  O   UNL     1       2.116   9.720  17.410  0.00  0.00    +0.000 OA
ATOM     21  N   UNL     1       1.152  10.102  19.449  0.00  0.00    +0.000 N 
ATOM     22  H   UNL     1       0.903   9.682  20.339  0.00  0.00    +0.000 HD
BRANCH  21  23
ATOM     23  C   UNL     1       0.790  11.471  19.090  0.00  0.00    +0.000 C 
BRANCH  23  24
ATOM     24  C   UNL     1       1.966  12.439  18.956  0.00  0.00    +0.000 C 
BRANCH  24  25
ATOM     25  C   UNL     1       1.506  13.878  18.838  0.00  0.00    +0.000 A 
ATOM     26  C   UNL     1       2.428  14.906  18.636  0.00  0.00    +0.000 A 
ATOM     27  C   UNL     1       1.973  16.217  18.506  0.00  0.00    +0.000 A 
ATOM     28  C   UNL     1       0.607  16.480  18.582  0.00  0.00    +0.000 A 
ATOM     29  C   UNL     1      -0.241  15.406  18.799  0.00  0.00    +0.000 A 
ATOM     30  N   UNL     1       0.175  14.121  18.920  0.00  0.00    +0.000 NA
ENDBRANCH  24  25
ENDBRANCH  23  24
ENDBRANCH  21  23
ENDBRANCH   6  19
BRANCH  10  31
ATOM     31  C   UNL     1       4.540   2.482  19.632  0.00  0.00    +0.000 C 
BRANCH  31  32
ATOM     32  N   UNL     1       4.070   1.428  18.740  0.00  0.00    +0.000 NA
ATOM     33  H   UNL     1       4.502   1.528  17.821  0.00  0.00    +0.000 HD
ATOM     34  H   UNL     1       3.071   1.561  18.575  0.00  0.00    +0.000 HD
ENDBRANCH  31  32
ENDBRANCH  10  31
TORSDOF 7
ENDMDL
MODEL 6
REMARK VINA RESULT:      -7.8      1.376      1.930
REMARK  Name = 
REMARK  8 active torsions:
REMARK  status: ('A' for Active; 'I' for Inactive)
REMARK    1  A    between atoms: C_1  and  C_2
REMARK    2  A    between atoms: C_6  and  C_7
REMARK    3  A    between atoms: N_9  and  C_10
REMARK    4  A    between atoms: C_10  and  C_11
REMARK    5  A    between atoms: C_11  and  C_12
REMARK    6  A    between atoms: C_20  and  C_21
REMARK    7  A    between atoms: C_29  and  C_30
REMARK    8  A    between atoms: C_30  and  N_31
REMARK                            x       y       z     vdW  Elec       q    Type
REMARK                         _______ _______ _______ _____ _____    ______ ____
ROOT
ATOM      1  C   UNL     1       2.298   2.684  21.657  0.00  0.00    +0.000 C 
ATOM      2  C   UNL     1       2.590   3.835  20.714  0.00  0.00    +0.000 A 
ATOM      3  N   UNL     1       1.891   4.917  20.912  0.00  0.00    +0.000 NA
ATOM      4  C   UNL     1       2.098   5.968  20.072  0.00  0.00    +0.000 A 
ATOM      5  N   UNL     1       1.535   7.167  20.085  0.00  0.00    +0.000 NA
ATOM      6  C   UNL     1       2.080   7.860  19.018  0.00  0.00    +0.000 A 
ATOM      7  C   UNL     1       2.984   7.050  18.356  0.00  0.00    +0.000 A 
ATOM      8  N   UNL     1       3.009   5.856  19.028  0.00  0.00    +0.000 N 
ATOM      9  C   UNL     1       3.783   4.705  18.807  0.00  0.00    +0.000 A 
ATOM     10  C   UNL     1       3.640   3.637  19.632  0.00  0.00    +0.000 A 
ENDROOT
BRANCH   9  11
ATOM     11  C   UNL     1       4.753   4.676  17.686  0.00  0.00    +0.000 A 
ATOM     12  C   UNL     1       4.301   4.254  16.425  0.00  0.00    +0.000 A 
ATOM     13  C   UNL     1       5.153   4.291  15.319  0.00  0.00    +0.000 A 
ATOM     14  C   UNL     1       6.462   4.744  15.467  0.00  0.00    +0.000 A 
ATOM     15 CL   UNL     1       7.493   4.832  14.094  0.00  0.00    +0.000 Cl
ATOM     16  C   UNL     1       6.940   5.130  16.717  0.00  0.00    +0.000 A 
ATOM     17  C   UNL     1       6.091   5.089  17.825  0.00  0.00    +0.000 A 
ATOM     18 CL   UNL     1       6.742   5.545  19.360  0.00  0.00    +0.000 Cl
ENDBRANCH   9  11
BRANCH   6  19
ATOM     19  C   UNL     1       1.772   9.242  18.628  0.00  0.00    +0.000 C 
ATOM     20  O   UNL     1       2.050   9.667  17.505  0.00  0.00    +0.000 OA
ATOM     21  N   UNL     1       1.161  10.041  19.580  0.00  0.00    +0.000 N 
ATOM     22  H   UNL     1       0.940   9.615  20.474  0.00  0.00    +0.000 HD
BRANCH  21  23
ATOM     23  C   UNL     1       0.799  11.416  19.244  0.00  0.00    +0.000 C 
BRANCH  23  24
ATOM     24  C   UNL     1      -0.345  12.005  20.071  0.00  0.00    +0.000 C 
BRANCH  24  25
ATOM     25  C   UNL     1      -0.487  13.499  19.858  0.00  0.00    +0.000 A 
ATOM     26  C   UNL     1      -1.470  14.223  20.532  0.00  0.00    +0.000 A 
ATOM     27  C   UNL     1      -1.561  15.601  20.335  0.00  0.00    +0.000 A 
ATOM     28  C   UNL     1      -0.672  16.230  19.468  0.00  0.00    +0.000 A 
ATOM     29  C   UNL     1       0.266  15.436  18.826  0.00  0.00    +0.000 A 
ATOM     30  N   UNL     1       0.380  14.097  19.005  0.00  0.00    +0.000 NA
ENDBRANCH  24  25
ENDBRANCH  23  24
ENDBRANCH  21  23
ENDBRANCH   6  19
BRANCH  10  31
ATOM     31  C   UNL     1       4.511   2.405  19.616  0.00  0.00    +0.000 C 
BRANCH  31  32
ATOM     32  N   UNL     1       4.031   1.363  18.715  0.00  0.00    +0.000 NA
ATOM     33  H   UNL     1       3.413   0.724  19.216  0.00  0.00    +0.000 HD
ATOM     34  H   UNL     1       4.824   0.787  18.428  0.00  0.00    +0.000 HD
ENDBRANCH  31  32
ENDBRANCH  10  31
TORSDOF 7
ENDMDL
MODEL 7
REMARK VINA RESULT:      -7.7      2.181      2.813
REMARK  Name = 
REMARK  8 active torsions:
REMARK  status: ('A' for Active; 'I' for Inactive)
REMARK    1  A    between atoms: C_1  and  C_2
REMARK    2  A    between atoms: C_6  and  C_7
REMARK    3  A    between atoms: N_9  and  C_10
REMARK    4  A    between atoms: C_10  and  C_11
REMARK    5  A    between atoms: C_11  and  C_12
REMARK    6  A    between atoms: C_20  and  C_21
REMARK    7  A    between atoms: C_29  and  C_30
REMARK    8  A    between atoms: C_30  and  N_31
REMARK                            x       y       z     vdW  Elec       q    Type
REMARK                         _______ _______ _______ _____ _____    ______ ____
ROOT
ATOM      1  C   UNL     1       2.463   2.967  21.774  0.00  0.00    +0.000 C 
ATOM      2  C   UNL     1       2.649   4.118  20.806  0.00  0.00    +0.000 A 
ATOM      3  N   UNL     1       1.912   5.170  21.033  0.00  0.00    +0.000 NA
ATOM      4  C   UNL     1       2.024   6.219  20.173  0.00  0.00    +0.000 A 
ATOM      5  N   UNL     1       1.406   7.390  20.206  0.00  0.00    +0.000 NA
ATOM      6  C   UNL     1       1.859   8.095  19.104  0.00  0.00    +0.000 A 
ATOM      7  C   UNL     1       2.762   7.320  18.401  0.00  0.00    +0.000 A 
ATOM      8  N   UNL     1       2.880   6.137  19.082  0.00  0.00    +0.000 N 
ATOM      9  C   UNL     1       3.693   5.020  18.828  0.00  0.00    +0.000 A 
ATOM     10  C   UNL     1       3.645   3.957  19.670  0.00  0.00    +0.000 A 
ENDROOT
BRANCH   9  11
ATOM     11  C   UNL     1       4.601   5.023  17.656  0.00  0.00    +0.000 A 
ATOM     12  C   UNL     1       5.786   5.772  17.733  0.00  0.00    +0.000 A 
ATOM     13  C   UNL     1       6.715   5.738  16.690  0.00  0.00    +0.000 A 
ATOM     14  C   UNL     1       6.462   4.960  15.563  0.00  0.00    +0.000 A 
ATOM     15 CL   UNL     1       7.629   4.884  14.302  0.00  0.00    +0.000 Cl
ATOM     16  C   UNL     1       5.275   4.241  15.451  0.00  0.00    +0.000 A 
ATOM     17  C   UNL     1       4.343   4.278  16.490  0.00  0.00    +0.000 A 
ATOM     18 CL   UNL     1       2.870   3.396  16.288  0.00  0.00    +0.000 Cl
ENDBRANCH   9  11
BRANCH   6  19
ATOM     19  C   UNL     1       1.466   9.457  18.720  0.00  0.00    +0.000 C 
ATOM     20  O   UNL     1       1.914   9.989  17.702  0.00  0.00    +0.000 OA
ATOM     21  N   UNL     1       0.576  10.112  19.554  0.00  0.00    +0.000 N 
ATOM     22  H   UNL     1       0.231   9.603  20.360  0.00  0.00    +0.000 HD
BRANCH  21  23
ATOM     23  C   UNL     1       0.120  11.457  19.210  0.00  0.00    +0.000 C 
BRANCH  23  24
ATOM     24  C   UNL     1      -1.319  11.777  19.615  0.00  0.00    +0.000 C 
BRANCH  24  25
ATOM     25  C   UNL     1      -2.295  11.531  18.481  0.00  0.00    +0.000 A 
ATOM     26  C   UNL     1      -1.849  11.046  17.252  0.00  0.00    +0.000 A 
ATOM     27  C   UNL     1      -2.773  10.806  16.235  0.00  0.00    +0.000 A 
ATOM     28  C   UNL     1      -4.124  11.055  16.464  0.00  0.00    +0.000 A 
ATOM     29  C   UNL     1      -4.483  11.549  17.707  0.00  0.00    +0.000 A 
ATOM     30  N   UNL     1      -3.606  11.784  18.714  0.00  0.00    +0.000 NA
ENDBRANCH  24  25
ENDBRANCH  23  24
ENDBRANCH  21  23
ENDBRANCH   6  19
BRANCH  10  31
ATOM     31  C   UNL     1       4.572   2.766  19.616  0.00  0.00    +0.000 C 
BRANCH  31  32
ATOM     32  N   UNL     1       4.009   1.621  18.908  0.00  0.00    +0.000 NA
ATOM     33  H   UNL     1       3.055   1.828  18.610  0.00  0.00    +0.000 HD
ATOM     34  H   UNL     1       3.916   0.845  19.564  0.00  0.00    +0.000 HD
ENDBRANCH  31  32
ENDBRANCH  10  31
TORSDOF 7
ENDMDL
MODEL 8
REMARK VINA RESULT:      -7.6      0.911      1.126
REMARK  Name = 
REMARK  8 active torsions:
REMARK  status: ('A' for Active; 'I' for Inactive)
REMARK    1  A    between atoms: C_1  and  C_2
REMARK    2  A    between atoms: C_6  and  C_7
REMARK    3  A    between atoms: N_9  and  C_10
REMARK    4  A    between atoms: C_10  and  C_11
REMARK    5  A    between atoms: C_11  and  C_12
REMARK    6  A    between atoms: C_20  and  C_21
REMARK    7  A    between atoms: C_29  and  C_30
REMARK    8  A    between atoms: C_30  and  N_31
REMARK                            x       y       z     vdW  Elec       q    Type
REMARK                         _______ _______ _______ _____ _____    ______ ____
ROOT
ATOM      1  C   UNL     1       2.330   3.019  21.684  0.00  0.00    +0.000 C 
ATOM      2  C   UNL     1       2.595   4.125  20.682  0.00  0.00    +0.000 A 
ATOM      3  N   UNL     1       1.869   5.198  20.821  0.00  0.00    +0.000 NA
ATOM      4  C   UNL     1       2.051   6.208  19.927  0.00  0.00    +0.000 A 
ATOM      5  N   UNL     1       1.457   7.390  19.876  0.00  0.00    +0.000 NA
ATOM      6  C   UNL     1       1.987   8.039  18.774  0.00  0.00    +0.000 A 
ATOM      7  C   UNL     1       2.912   7.219  18.157  0.00  0.00    +0.000 A 
ATOM      8  N   UNL     1       2.967   6.063  18.892  0.00  0.00    +0.000 N 
ATOM      9  C   UNL     1       3.770   4.922  18.732  0.00  0.00    +0.000 A 
ATOM     10  C   UNL     1       3.652   3.897  19.613  0.00  0.00    +0.000 A 
ENDROOT
BRANCH   9  11
ATOM     11  C   UNL     1       4.743   4.858  17.616  0.00  0.00    +0.000 A 
ATOM     12  C   UNL     1       4.281   4.458  16.352  0.00  0.00    +0.000 A 
ATOM     13  C   UNL     1       5.138   4.464  15.249  0.00  0.00    +0.000 A 
ATOM     14  C   UNL     1       6.463   4.866  15.404  0.00  0.00    +0.000 A 
ATOM     15 CL   UNL     1       7.503   4.918  14.035  0.00  0.00    +0.000 Cl
ATOM     16  C   UNL     1       6.950   5.230  16.657  0.00  0.00    +0.000 A 
ATOM     17  C   UNL     1       6.095   5.219  17.761  0.00  0.00    +0.000 A 
ATOM     18 CL   UNL     1       6.757   5.645  19.301  0.00  0.00    +0.000 Cl
ENDBRANCH   9  11
BRANCH   6  19
ATOM     19  C   UNL     1       1.645   9.391  18.311  0.00  0.00    +0.000 C 
ATOM     20  O   UNL     1       0.537   9.640  17.832  0.00  0.00    +0.000 OA
ATOM     21  N   UNL     1       2.622  10.363  18.435  0.00  0.00    +0.000 N 
ATOM     22  H   UNL     1       3.501  10.090  18.861  0.00  0.00    +0.000 HD
BRANCH  21  23
ATOM     23  C   UNL     1       2.333  11.735  18.023  0.00  0.00    +0.000 C 
BRANCH  23  24
ATOM     24  C   UNL     1       2.206  12.742  19.167  0.00  0.00    +0.000 C 
BRANCH  24  25
ATOM     25  C   UNL     1       0.951  12.515  19.985  0.00  0.00    +0.000 A 
ATOM     26  C   UNL     1      -0.216  13.229  19.711  0.00  0.00    +0.000 A 
ATOM     27  C   UNL     1      -1.363  12.981  20.465  0.00  0.00    +0.000 A 
ATOM     28  C   UNL     1      -1.324  12.027  21.479  0.00  0.00    +0.000 A 
ATOM     29  C   UNL     1      -0.122  11.373  21.697  0.00  0.00    +0.000 A 
ATOM     30  N   UNL     1       1.004  11.589  20.974  0.00  0.00    +0.000 NA
ENDBRANCH  24  25
ENDBRANCH  23  24
ENDBRANCH  21  23
ENDBRANCH   6  19
BRANCH  10  31
ATOM     31  C   UNL     1       4.555   2.688  19.663  0.00  0.00    +0.000 C 
BRANCH  31  32
ATOM     32  N   UNL     1       4.096   1.583  18.828  0.00  0.00    +0.000 NA
ATOM     33  H   UNL     1       4.621   0.736  19.048  0.00  0.00    +0.000 HD
ATOM     34  H   UNL     1       4.328   1.789  17.856  0.00  0.00    +0.000 HD
ENDBRANCH  31  32
ENDBRANCH  10  31
TORSDOF 7
ENDMDL
MODEL 9
REMARK VINA RESULT:      -7.5      0.643      1.093
REMARK  Name = 
REMARK  8 active torsions:
REMARK  status: ('A' for Active; 'I' for Inactive)
REMARK    1  A    between atoms: C_1  and  C_2
REMARK    2  A    between atoms: C_6  and  C_7
REMARK    3  A    between atoms: N_9  and  C_10
REMARK    4  A    between atoms: C_10  and  C_11
REMARK    5  A    between atoms: C_11  and  C_12
REMARK    6  A    between atoms: C_20  and  C_21
REMARK    7  A    between atoms: C_29  and  C_30
REMARK    8  A    between atoms: C_30  and  N_31
REMARK                            x       y       z     vdW  Elec       q    Type
REMARK                         _______ _______ _______ _____ _____    ______ ____
ROOT
ATOM      1  C   UNL     1       2.328   2.848  21.555  0.00  0.00    +0.000 C 
ATOM      2  C   UNL     1       2.645   3.968  20.584  0.00  0.00    +0.000 A 
ATOM      3  N   UNL     1       1.958   5.064  20.743  0.00  0.00    +0.000 NA
ATOM      4  C   UNL     1       2.188   6.088  19.876  0.00  0.00    +0.000 A 
ATOM      5  N   UNL     1       1.639   7.293  19.849  0.00  0.00    +0.000 NA
ATOM      6  C   UNL     1       2.205   7.949  18.770  0.00  0.00    +0.000 A 
ATOM      7  C   UNL     1       3.106   7.110  18.142  0.00  0.00    +0.000 A 
ATOM      8  N   UNL     1       3.109   5.935  18.847  0.00  0.00    +0.000 N 
ATOM      9  C   UNL     1       3.871   4.769  18.667  0.00  0.00    +0.000 A 
ATOM     10  C   UNL     1       3.705   3.727  19.520  0.00  0.00    +0.000 A 
ENDROOT
BRANCH   9  11
ATOM     11  C   UNL     1       4.854   4.696  17.559  0.00  0.00    +0.000 A 
ATOM     12  C   UNL     1       4.402   4.287  16.294  0.00  0.00    +0.000 A 
ATOM     13  C   UNL     1       5.268   4.286  15.199  0.00  0.00    +0.000 A 
ATOM     14  C   UNL     1       6.592   4.687  15.362  0.00  0.00    +0.000 A 
ATOM     15 CL   UNL     1       7.644   4.728  14.003  0.00  0.00    +0.000 Cl
ATOM     16  C   UNL     1       7.069   5.059  16.617  0.00  0.00    +0.000 A 
ATOM     17  C   UNL     1       6.205   5.056  17.714  0.00  0.00    +0.000 A 
ATOM     18 CL   UNL     1       6.854   5.492  19.256  0.00  0.00    +0.000 Cl
ENDBRANCH   9  11
BRANCH   6  19
ATOM     19  C   UNL     1       1.919   9.324  18.338  0.00  0.00    +0.000 C 
ATOM     20  O   UNL     1       2.403   9.782  17.301  0.00  0.00    +0.000 OA
ATOM     21  N   UNL     1       1.087  10.076  19.149  0.00  0.00    +0.000 N 
ATOM     22  H   UNL     1       0.707   9.624  19.974  0.00  0.00    +0.000 HD
BRANCH  21  23
ATOM     23  C   UNL     1       0.737  11.439  18.759  0.00  0.00    +0.000 C 
BRANCH  23  24
ATOM     24  C   UNL     1       0.243  12.333  19.898  0.00  0.00    +0.000 C 
BRANCH  24  25
ATOM     25  C   UNL     1      -0.122  11.530  21.131  0.00  0.00    +0.000 A 
ATOM     26  C   UNL     1       0.690  10.481  21.564  0.00  0.00    +0.000 A 
ATOM     27  C   UNL     1       0.341   9.777  22.716  0.00  0.00    +0.000 A 
ATOM     28  C   UNL     1      -0.812  10.130  23.413  0.00  0.00    +0.000 A 
ATOM     29  C   UNL     1      -1.571  11.173  22.908  0.00  0.00    +0.000 A 
ATOM     30  N   UNL     1      -1.251  11.879  21.796  0.00  0.00    +0.000 NA
ENDBRANCH  24  25
ENDBRANCH  23  24
ENDBRANCH  21  23
ENDBRANCH   6  19
BRANCH  10  31
ATOM     31  C   UNL     1       4.561   2.484  19.549  0.00  0.00    +0.000 C 
BRANCH  31  32
ATOM     32  N   UNL     1       4.086   1.428  18.662  0.00  0.00    +0.000 NA
ATOM     33  H   UNL     1       4.878   0.933  18.250  0.00  0.00    +0.000 HD
ATOM     34  H   UNL     1       3.605   1.858  17.870  0.00  0.00    +0.000 HD
ENDBRANCH  31  32
ENDBRANCH  10  31
TORSDOF 7
ENDMDL
