MODEL 1
REMARK VINA RESULT:      -7.6      0.000      0.000
REMARK  Name = 
REMARK  9 active torsions:
REMARK  status: ('A' for Active; 'I' for Inactive)
REMARK    1  A    between atoms: C_1  and  C_2
REMARK    2  A    between atoms: C_2  and  C_3
REMARK    3  A    between atoms: C_2  and  N_4
REMARK    4  A    between atoms: C_8  and  C_9
REMARK    5  A    between atoms: C_14  and  C_15
REMARK    6  A    between atoms: C_15  and  O_16
REMARK    7  A    between atoms: O_16  and  C_17
REMARK    8  A    between atoms: C_21  and  O_22
REMARK    9  A    between atoms: C_23  and  C_24
REMARK                            x       y       z     vdW  Elec       q    Type
REMARK                         _______ _______ _______ _____ _____    ______ ____
ROOT
ATOM      1  C   UNL     1       4.850   4.379  19.370  0.00  0.00    +0.000 A 
ATOM      2  N   UNL     1       5.083   3.068  19.621  0.00  0.00    +0.000 NA
ATOM      3  C   UNL     1       4.086   2.340  20.173  0.00  0.00    +0.000 A 
ATOM      4  C   UNL     1       2.869   2.868  20.550  0.00  0.00    +0.000 A 
ATOM      5  C   UNL     1       2.641   4.213  20.298  0.00  0.00    +0.000 A 
ATOM      6  C   UNL     1       3.622   4.988  19.654  0.00  0.00    +0.000 A 
ENDROOT
BRANCH   1  11
ATOM      7  N   UNL     1       6.250   5.377  17.482  0.00  0.00    +0.000 N 
ATOM      8  N   UNL     1       7.400   6.075  17.288  0.00  0.00    +0.000 NA
ATOM      9  C   UNL     1       7.912   6.212  18.506  0.00  0.00    +0.000 A 
ATOM     10  C   UNL     1       7.111   5.610  19.483  0.00  0.00    +0.000 A 
ATOM     11  C   UNL     1       6.007   5.097  18.817  0.00  0.00    +0.000 A 
BRANCH   7  13
ATOM     12  C   UNL     1       5.178   6.306  15.448  0.00  0.00    +0.000 C 
ATOM     13  C   UNL     1       5.448   5.062  16.301  0.00  0.00    +0.000 C 
ATOM     14  C   UNL     1       6.113   3.965  15.465  0.00  0.00    +0.000 C 
ENDBRANCH   7  13
ENDBRANCH   1  11
BRANCH   6  15
ATOM     15  C   UNL     1       3.242   6.378  19.202  0.00  0.00    +0.000 C 
BRANCH  15  16
ATOM     16  O   UNL     1       2.187   6.961  19.966  0.00  0.00    +0.000 OA
BRANCH  16  17
ATOM     17  C   UNL     1       1.736   8.226  19.712  0.00  0.00    +0.000 A 
ATOM     18  C   UNL     1       1.865   8.569  18.358  0.00  0.00    +0.000 A 
ATOM     19  C   UNL     1       1.477   9.823  17.878  0.00  0.00    +0.000 A 
ATOM     20  C   UNL     1       0.959  10.770  18.755  0.00  0.00    +0.000 A 
ATOM     21  C   UNL     1       0.800  10.434  20.097  0.00  0.00    +0.000 A 
ATOM     22  C   UNL     1       1.151   9.161  20.580  0.00  0.00    +0.000 A 
BRANCH  21  23
ATOM     23  O   UNL     1       0.255  11.363  20.951  0.00  0.00    +0.000 OA
ATOM     24  H   UNL     1       0.944  11.702  21.548  0.00  0.00    +0.000 HD
ENDBRANCH  21  23
BRANCH  22  25
ATOM     25  C   UNL     1       0.754   8.895  21.980  0.00  0.00    +0.000 C 
ATOM     26  O   UNL     1       1.186   9.540  22.925  0.00  0.00    +0.000 OA
ENDBRANCH  22  25
ENDBRANCH  16  17
ENDBRANCH  15  16
ENDBRANCH   6  15
TORSDOF 7
ENDMDL
MODEL 2
REMARK VINA RESULT:      -7.5      3.230      5.499
REMARK  Name = 
REMARK  9 active torsions:
REMARK  status: ('A' for Active; 'I' for Inactive)
REMARK    1  A    between atoms: C_1  and  C_2
REMARK    2  A    between atoms: C_2  and  C_3
REMARK    3  A    between atoms: C_2  and  N_4
REMARK    4  A    between atoms: C_8  and  C_9
REMARK    5  A    between atoms: C_14  and  C_15
REMARK    6  A    between atoms: C_15  and  O_16
REMARK    7  A    between atoms: O_16  and  C_17
REMARK    8  A    between atoms: C_21  and  O_22
REMARK    9  A    between atoms: C_23  and  C_24
REMARK                            x       y       z     vdW  Elec       q    Type
REMARK                         _______ _______ _______ _____ _____    ______ ____
ROOT
ATOM      1  C   UNL     1       4.591   6.150  17.584  0.00  0.00    +0.000 A 
ATOM      2  N   UNL     1       3.852   7.182  17.109  0.00  0.00    +0.000 NA
ATOM      3  C   UNL     1       2.888   7.693  17.907  0.00  0.00    +0.000 A 
ATOM      4  C   UNL     1       2.573   7.186  19.152  0.00  0.00    +0.000 A 
ATOM      5  C   UNL     1       3.329   6.124  19.626  0.00  0.00    +0.000 A 
ATOM      6  C   UNL     1       4.392   5.614  18.861  0.00  0.00    +0.000 A 
ENDROOT
BRANCH   1  11
ATOM      7  N   UNL     1       6.920   5.968  16.553  0.00  0.00    +0.000 N 
ATOM      8  N   UNL     1       7.580   5.303  15.568  0.00  0.00    +0.000 NA
ATOM      9  C   UNL     1       6.644   4.561  14.987  0.00  0.00    +0.000 A 
ATOM     10  C   UNL     1       5.389   4.740  15.580  0.00  0.00    +0.000 A 
ATOM     11  C   UNL     1       5.578   5.632  16.627  0.00  0.00    +0.000 A 
BRANCH   7  13
ATOM     12  C   UNL     1       7.047   8.268  17.471  0.00  0.00    +0.000 C 
ATOM     13  C   UNL     1       7.699   6.885  17.383  0.00  0.00    +0.000 C 
ATOM     14  C   UNL     1       7.923   6.301  18.781  0.00  0.00    +0.000 C 
ENDBRANCH   7  13
ENDBRANCH   1  11
BRANCH   6  15
ATOM     15  C   UNL     1       5.319   4.616  19.513  0.00  0.00    +0.000 C 
BRANCH  15  16
ATOM     16  O   UNL     1       4.838   3.273  19.472  0.00  0.00    +0.000 OA
BRANCH  16  17
ATOM     17  C   UNL     1       3.529   2.975  19.729  0.00  0.00    +0.000 A 
ATOM     18  C   UNL     1       3.247   2.983  21.103  0.00  0.00    +0.000 A 
ATOM     19  C   UNL     1       1.971   2.691  21.592  0.00  0.00    +0.000 A 
ATOM     20  C   UNL     1       0.947   2.371  20.707  0.00  0.00    +0.000 A 
ATOM     21  C   UNL     1       1.205   2.386  19.340  0.00  0.00    +0.000 A 
ATOM     22  C   UNL     1       2.476   2.717  18.838  0.00  0.00    +0.000 A 
BRANCH  21  23
ATOM     23  O   UNL     1       0.179   2.102  18.470  0.00  0.00    +0.000 OA
ATOM     24  H   UNL     1      -0.404   1.428  18.860  0.00  0.00    +0.000 HD
ENDBRANCH  21  23
BRANCH  22  25
ATOM     25  C   UNL     1       2.545   2.867  17.367  0.00  0.00    +0.000 C 
ATOM     26  O   UNL     1       1.942   3.740  16.760  0.00  0.00    +0.000 OA
ENDBRANCH  22  25
ENDBRANCH  16  17
ENDBRANCH  15  16
ENDBRANCH   6  15
TORSDOF 7
ENDMDL
MODEL 3
REMARK VINA RESULT:      -7.4      1.423      2.137
REMARK  Name = 
REMARK  9 active torsions:
REMARK  status: ('A' for Active; 'I' for Inactive)
REMARK    1  A    between atoms: C_1  and  C_2
REMARK    2  A    between atoms: C_2  and  C_3
REMARK    3  A    between atoms: C_2  and  N_4
REMARK    4  A    between atoms: C_8  and  C_9
REMARK    5  A    between atoms: C_14  and  C_15
REMARK    6  A    between atoms: C_15  and  O_16
REMARK    7  A    between atoms: O_16  and  C_17
REMARK    8  A    between atoms: C_21  and  O_22
REMARK    9  A    between atoms: C_23  and  C_24
REMARK                            x       y       z     vdW  Elec       q    Type
REMARK                         _______ _______ _______ _____ _____    ______ ____
ROOT
ATOM      1  C   UNL     1       3.772   4.076  18.562  0.00  0.00    +0.000 A 
ATOM      2  N   UNL     1       3.816   2.726  18.676  0.00  0.00    +0.000 NA
ATOM      3  C   UNL     1       2.646   2.062  18.811  0.00  0.00    +0.000 A 
ATOM      4  C   UNL     1       1.417   2.683  18.901  0.00  0.00    +0.000 A 
ATOM      5  C   UNL     1       1.382   4.065  18.793  0.00  0.00    +0.000 A 
ATOM      6  C   UNL     1       2.568   4.788  18.573  0.00  0.00    +0.000 A 
ENDROOT
BRANCH   1  11
ATOM      7  N   UNL     1       5.754   5.088  17.311  0.00  0.00    +0.000 N 
ATOM      8  N   UNL     1       6.959   5.670  17.553  0.00  0.00    +0.000 NA
ATOM      9  C   UNL     1       7.082   5.633  18.875  0.00  0.00    +0.000 A 
ATOM     10  C   UNL     1       5.978   5.033  19.490  0.00  0.00    +0.000 A 
ATOM     11  C   UNL     1       5.094   4.710  18.469  0.00  0.00    +0.000 A 
BRANCH   7  13
ATOM     12  C   UNL     1       5.205   6.351  15.250  0.00  0.00    +0.000 C 
ATOM     13  C   UNL     1       5.330   4.978  15.916  0.00  0.00    +0.000 C 
ATOM     14  C   UNL     1       6.282   4.076  15.125  0.00  0.00    +0.000 C 
ENDBRANCH   7  13
ENDBRANCH   1  11
BRANCH   6  15
ATOM     15  C   UNL     1       2.450   6.256  18.239  0.00  0.00    +0.000 C 
BRANCH  15  16
ATOM     16  O   UNL     1       2.714   7.119  19.344  0.00  0.00    +0.000 OA
BRANCH  16  17
ATOM     17  C   UNL     1       1.798   8.040  19.767  0.00  0.00    +0.000 A 
ATOM     18  C   UNL     1       1.301   7.740  21.045  0.00  0.00    +0.000 A 
ATOM     19  C   UNL     1       0.341   8.543  21.667  0.00  0.00    +0.000 A 
ATOM     20  C   UNL     1      -0.153   9.665  21.011  0.00  0.00    +0.000 A 
ATOM     21  C   UNL     1       0.351   9.991  19.754  0.00  0.00    +0.000 A 
ATOM     22  C   UNL     1       1.345   9.211  19.139  0.00  0.00    +0.000 A 
BRANCH  21  23
ATOM     23  O   UNL     1      -0.118  11.121  19.127  0.00  0.00    +0.000 OA
ATOM     24  H   UNL     1      -1.038  11.287  19.396  0.00  0.00    +0.000 HD
ENDBRANCH  21  23
BRANCH  22  25
ATOM     25  C   UNL     1       1.905   9.783  17.895  0.00  0.00    +0.000 C 
ATOM     26  O   UNL     1       2.349  10.920  17.830  0.00  0.00    +0.000 OA
ENDBRANCH  22  25
ENDBRANCH  16  17
ENDBRANCH  15  16
ENDBRANCH   6  15
TORSDOF 7
ENDMDL
MODEL 4
REMARK VINA RESULT:      -7.4      1.160      2.216
REMARK  Name = 
REMARK  9 active torsions:
REMARK  status: ('A' for Active; 'I' for Inactive)
REMARK    1  A    between atoms: C_1  and  C_2
REMARK    2  A    between atoms: C_2  and  C_3
REMARK    3  A    between atoms: C_2  and  N_4
REMARK    4  A    between atoms: C_8  and  C_9
REMARK    5  A    between atoms: C_14  and  C_15
REMARK    6  A    between atoms: C_15  and  O_16
REMARK    7  A    between atoms: O_16  and  C_17
REMARK    8  A    between atoms: C_21  and  O_22
REMARK    9  A    between atoms: C_23  and  C_24
REMARK                            x       y       z     vdW  Elec       q    Type
REMARK                         _______ _______ _______ _____ _____    ______ ____
ROOT
ATOM      1  C   UNL     1       4.347   4.867  18.195  0.00  0.00    +0.000 A 
ATOM      2  N   UNL     1       4.428   3.616  18.710  0.00  0.00    +0.000 NA
ATOM      3  C   UNL     1       3.652   3.316  19.775  0.00  0.00    +0.000 A 
ATOM      4  C   UNL     1       2.828   4.226  20.406  0.00  0.00    +0.000 A 
ATOM      5  C   UNL     1       2.758   5.507  19.878  0.00  0.00    +0.000 A 
ATOM      6  C   UNL     1       3.490   5.838  18.724  0.00  0.00    +0.000 A 
ENDROOT
BRANCH   1  11
ATOM      7  N   UNL     1       6.408   5.892  17.090  0.00  0.00    +0.000 N 
ATOM      8  N   UNL     1       7.057   5.908  15.896  0.00  0.00    +0.000 NA
ATOM      9  C   UNL     1       6.302   5.158  15.101  0.00  0.00    +0.000 A 
ATOM     10  C   UNL     1       5.174   4.661  15.763  0.00  0.00    +0.000 A 
ATOM     11  C   UNL     1       5.263   5.111  17.073  0.00  0.00    +0.000 A 
BRANCH   7  13
ATOM     12  C   UNL     1       7.889   5.761  19.075  0.00  0.00    +0.000 C 
ATOM     13  C   UNL     1       7.006   6.647  18.190  0.00  0.00    +0.000 C 
ATOM     14  C   UNL     1       7.798   7.847  17.662  0.00  0.00    +0.000 C 
ENDBRANCH   7  13
ENDBRANCH   1  11
BRANCH   6  15
ATOM     15  C   UNL     1       3.207   7.167  18.063  0.00  0.00    +0.000 C 
BRANCH  15  16
ATOM     16  O   UNL     1       1.883   7.649  18.289  0.00  0.00    +0.000 OA
BRANCH  16  17
ATOM     17  C   UNL     1       1.655   8.882  18.833  0.00  0.00    +0.000 A 
ATOM     18  C   UNL     1       1.897   9.915  17.916  0.00  0.00    +0.000 A 
ATOM     19  C   UNL     1       1.739  11.259  18.265  0.00  0.00    +0.000 A 
ATOM     20  C   UNL     1       1.343  11.597  19.555  0.00  0.00    +0.000 A 
ATOM     21  C   UNL     1       1.073  10.581  20.468  0.00  0.00    +0.000 A 
ATOM     22  C   UNL     1       1.192   9.227  20.113  0.00  0.00    +0.000 A 
BRANCH  21  23
ATOM     23  O   UNL     1       0.650  10.923  21.731  0.00  0.00    +0.000 OA
ATOM     24  H   UNL     1       0.716  10.150  22.318  0.00  0.00    +0.000 HD
ENDBRANCH  21  23
BRANCH  22  25
ATOM     25  C   UNL     1       0.697   8.270  21.128  0.00  0.00    +0.000 C 
ATOM     26  O   UNL     1      -0.437   8.313  21.582  0.00  0.00    +0.000 OA
ENDBRANCH  22  25
ENDBRANCH  16  17
ENDBRANCH  15  16
ENDBRANCH   6  15
TORSDOF 7
ENDMDL
MODEL 5
REMARK VINA RESULT:      -7.2      3.499      5.906
REMARK  Name = 
REMARK  9 active torsions:
REMARK  status: ('A' for Active; 'I' for Inactive)
REMARK    1  A    between atoms: C_1  and  C_2
REMARK    2  A    between atoms: C_2  and  C_3
REMARK    3  A    between atoms: C_2  and  N_4
REMARK    4  A    between atoms: C_8  and  C_9
REMARK    5  A    between atoms: C_14  and  C_15
REMARK    6  A    between atoms: C_15  and  O_16
REMARK    7  A    between atoms: O_16  and  C_17
REMARK    8  A    between atoms: C_21  and  O_22
REMARK    9  A    between atoms: C_23  and  C_24
REMARK                            x       y       z     vdW  Elec       q    Type
REMARK                         _______ _______ _______ _____ _____    ______ ____
ROOT
ATOM      1  C   UNL     1       6.346   4.809  16.036  0.00  0.00    +0.000 A 
ATOM      2  N   UNL     1       7.372   5.282  15.288  0.00  0.00    +0.000 NA
ATOM      3  C   UNL     1       7.384   4.990  13.968  0.00  0.00    +0.000 A 
ATOM      4  C   UNL     1       6.446   4.188  13.351  0.00  0.00    +0.000 A 
ATOM      5  C   UNL     1       5.404   3.700  14.125  0.00  0.00    +0.000 A 
ATOM      6  C   UNL     1       5.311   4.045  15.486  0.00  0.00    +0.000 A 
ENDROOT
BRANCH   1  11
ATOM      7  N   UNL     1       5.478   5.741  18.248  0.00  0.00    +0.000 N 
ATOM      8  N   UNL     1       5.863   5.895  19.543  0.00  0.00    +0.000 NA
ATOM      9  C   UNL     1       7.101   5.414  19.578  0.00  0.00    +0.000 A 
ATOM     10  C   UNL     1       7.522   4.956  18.324  0.00  0.00    +0.000 A 
ATOM     11  C   UNL     1       6.447   5.136  17.464  0.00  0.00    +0.000 A 
BRANCH   7  13
ATOM     12  C   UNL     1       3.213   6.262  19.111  0.00  0.00    +0.000 C 
ATOM     13  C   UNL     1       4.133   6.191  17.890  0.00  0.00    +0.000 C 
ATOM     14  C   UNL     1       4.183   7.541  17.168  0.00  0.00    +0.000 C 
ENDBRANCH   7  13
ENDBRANCH   1  11
BRANCH   6  15
ATOM     15  C   UNL     1       4.047   3.676  16.224  0.00  0.00    +0.000 C 
BRANCH  15  16
ATOM     16  O   UNL     1       4.261   2.796  17.326  0.00  0.00    +0.000 OA
BRANCH  16  17
ATOM     17  C   UNL     1       3.373   2.717  18.362  0.00  0.00    +0.000 A 
ATOM     18  C   UNL     1       2.044   2.683  17.914  0.00  0.00    +0.000 A 
ATOM     19  C   UNL     1       0.970   2.616  18.806  0.00  0.00    +0.000 A 
ATOM     20  C   UNL     1       1.208   2.594  20.176  0.00  0.00    +0.000 A 
ATOM     21  C   UNL     1       2.523   2.600  20.634  0.00  0.00    +0.000 A 
ATOM     22  C   UNL     1       3.609   2.627  19.743  0.00  0.00    +0.000 A 
BRANCH  21  23
ATOM     23  O   UNL     1       2.751   2.544  21.989  0.00  0.00    +0.000 OA
ATOM     24  H   UNL     1       3.509   1.962  22.169  0.00  0.00    +0.000 HD
ENDBRANCH  21  23
BRANCH  22  25
ATOM     25  C   UNL     1       4.936   2.446  20.372  0.00  0.00    +0.000 C 
ATOM     26  O   UNL     1       5.208   1.489  21.082  0.00  0.00    +0.000 OA
ENDBRANCH  22  25
ENDBRANCH  16  17
ENDBRANCH  15  16
ENDBRANCH   6  15
TORSDOF 7
ENDMDL
MODEL 6
REMARK VINA RESULT:      -7.2      1.738      3.612
REMARK  Name = 
REMARK  9 active torsions:
REMARK  status: ('A' for Active; 'I' for Inactive)
REMARK    1  A    between atoms: C_1  and  C_2
REMARK    2  A    between atoms: C_2  and  C_3
REMARK    3  A    between atoms: C_2  and  N_4
REMARK    4  A    between atoms: C_8  and  C_9
REMARK    5  A    between atoms: C_14  and  C_15
REMARK    6  A    between atoms: C_15  and  O_16
REMARK    7  A    between atoms: O_16  and  C_17
REMARK    8  A    between atoms: C_21  and  O_22
REMARK    9  A    between atoms: C_23  and  C_24
REMARK                            x       y       z     vdW  Elec       q    Type
REMARK                         _______ _______ _______ _____ _____    ______ ____
ROOT
ATOM      1  C   UNL     1       3.938   4.965  19.142  0.00  0.00    +0.000 A 
ATOM      2  N   UNL     1       5.187   4.443  19.200  0.00  0.00    +0.000 NA
ATOM      3  C   UNL     1       6.164   5.056  18.494  0.00  0.00    +0.000 A 
ATOM      4  C   UNL     1       5.951   6.143  17.671  0.00  0.00    +0.000 A 
ATOM      5  C   UNL     1       4.667   6.664  17.610  0.00  0.00    +0.000 A 
ATOM      6  C   UNL     1       3.638   6.106  18.390  0.00  0.00    +0.000 A 
ENDROOT
BRANCH   1  11
ATOM      7  N   UNL     1       2.304   3.036  19.502  0.00  0.00    +0.000 N 
ATOM      8  N   UNL     1       1.438   2.557  20.435  0.00  0.00    +0.000 NA
ATOM      9  C   UNL     1       1.495   3.444  21.423  0.00  0.00    +0.000 A 
ATOM     10  C   UNL     1       2.381   4.490  21.140  0.00  0.00    +0.000 A 
ATOM     11  C   UNL     1       2.937   4.203  19.901  0.00  0.00    +0.000 A 
BRANCH   7  13
ATOM     12  C   UNL     1       2.494   3.163  17.033  0.00  0.00    +0.000 C 
ATOM     13  C   UNL     1       2.461   2.262  18.272  0.00  0.00    +0.000 C 
ATOM     14  C   UNL     1       3.712   1.382  18.336  0.00  0.00    +0.000 C 
ENDBRANCH   7  13
ENDBRANCH   1  11
BRANCH   6  15
ATOM     15  C   UNL     1       2.323   6.845  18.460  0.00  0.00    +0.000 C 
BRANCH  15  16
ATOM     16  O   UNL     1       2.455   8.219  18.817  0.00  0.00    +0.000 OA
BRANCH  16  17
ATOM     17  C   UNL     1       1.369   8.979  19.152  0.00  0.00    +0.000 A 
ATOM     18  C   UNL     1       0.694   9.459  18.019  0.00  0.00    +0.000 A 
ATOM     19  C   UNL     1      -0.439  10.269  18.128  0.00  0.00    +0.000 A 
ATOM     20  C   UNL     1      -0.916  10.627  19.385  0.00  0.00    +0.000 A 
ATOM     21  C   UNL     1      -0.273  10.135  20.518  0.00  0.00    +0.000 A 
ATOM     22  C   UNL     1       0.844   9.288  20.416  0.00  0.00    +0.000 A 
BRANCH  21  23
ATOM     23  O   UNL     1      -0.770  10.466  21.756  0.00  0.00    +0.000 OA
ATOM     24  H   UNL     1      -0.124  11.014  22.232  0.00  0.00    +0.000 HD
ENDBRANCH  21  23
BRANCH  22  25
ATOM     25  C   UNL     1       1.302   8.704  21.696  0.00  0.00    +0.000 C 
ATOM     26  O   UNL     1       1.720   9.384  22.623  0.00  0.00    +0.000 OA
ENDBRANCH  22  25
ENDBRANCH  16  17
ENDBRANCH  15  16
ENDBRANCH   6  15
TORSDOF 7
ENDMDL
MODEL 7
REMARK VINA RESULT:      -7.2      1.270      1.461
REMARK  Name = 
REMARK  9 active torsions:
REMARK  status: ('A' for Active; 'I' for Inactive)
REMARK    1  A    between atoms: C_1  and  C_2
REMARK    2  A    between atoms: C_2  and  C_3
REMARK    3  A    between atoms: C_2  and  N_4
REMARK    4  A    between atoms: C_8  and  C_9
REMARK    5  A    between atoms: C_14  and  C_15
REMARK    6  A    between atoms: C_15  and  O_16
REMARK    7  A    between atoms: O_16  and  C_17
REMARK    8  A    between atoms: C_21  and  O_22
REMARK    9  A    between atoms: C_23  and  C_24
REMARK                            x       y       z     vdW  Elec       q    Type
REMARK                         _______ _______ _______ _____ _____    ______ ____
ROOT
ATOM      1  C   UNL     1       4.293   4.394  18.076  0.00  0.00    +0.000 A 
ATOM      2  N   UNL     1       4.276   3.062  17.825  0.00  0.00    +0.000 NA
ATOM      3  C   UNL     1       3.075   2.452  17.717  0.00  0.00    +0.000 A 
ATOM      4  C   UNL     1       1.868   3.093  17.907  0.00  0.00    +0.000 A 
ATOM      5  C   UNL     1       1.895   4.454  18.173  0.00  0.00    +0.000 A 
ATOM      6  C   UNL     1       3.120   5.143  18.216  0.00  0.00    +0.000 A 
ENDROOT
BRANCH   1  11
ATOM      7  N   UNL     1       6.502   5.333  17.206  0.00  0.00    +0.000 N 
ATOM      8  N   UNL     1       7.678   5.839  17.664  0.00  0.00    +0.000 NA
ATOM      9  C   UNL     1       7.579   5.755  18.987  0.00  0.00    +0.000 A 
ATOM     10  C   UNL     1       6.360   5.198  19.388  0.00  0.00    +0.000 A 
ATOM     11  C   UNL     1       5.642   4.957  18.225  0.00  0.00    +0.000 A 
BRANCH   7  13
ATOM     12  C   UNL     1       6.071   3.862  15.258  0.00  0.00    +0.000 C 
ATOM     13  C   UNL     1       6.310   5.289  15.757  0.00  0.00    +0.000 C 
ATOM     14  C   UNL     1       5.164   6.212  15.331  0.00  0.00    +0.000 C 
ENDBRANCH   7  13
ENDBRANCH   1  11
BRANCH   6  15
ATOM     15  C   UNL     1       3.081   6.651  18.283  0.00  0.00    +0.000 C 
BRANCH  15  16
ATOM     16  O   UNL     1       2.263   7.158  19.336  0.00  0.00    +0.000 OA
BRANCH  16  17
ATOM     17  C   UNL     1       1.800   8.444  19.326  0.00  0.00    +0.000 A 
ATOM     18  C   UNL     1       2.054   9.086  18.105  0.00  0.00    +0.000 A 
ATOM     19  C   UNL     1       1.678  10.413  17.879  0.00  0.00    +0.000 A 
ATOM     20  C   UNL     1       1.044  11.133  18.887  0.00  0.00    +0.000 A 
ATOM     21  C   UNL     1       0.761  10.501  20.094  0.00  0.00    +0.000 A 
ATOM     22  C   UNL     1       1.101   9.155  20.314  0.00  0.00    +0.000 A 
BRANCH  21  23
ATOM     23  O   UNL     1       0.104  11.209  21.072  0.00  0.00    +0.000 OA
ATOM     24  H   UNL     1      -0.147  10.610  21.797  0.00  0.00    +0.000 HD
ENDBRANCH  21  23
BRANCH  22  25
ATOM     25  C   UNL     1       0.574   8.576  21.570  0.00  0.00    +0.000 C 
ATOM     26  O   UNL     1      -0.620   8.406  21.772  0.00  0.00    +0.000 OA
ENDBRANCH  22  25
ENDBRANCH  16  17
ENDBRANCH  15  16
ENDBRANCH   6  15
TORSDOF 7
ENDMDL
MODEL 8
REMARK VINA RESULT:      -7.2      3.877      5.658
REMARK  Name = 
REMARK  9 active torsions:
REMARK  status: ('A' for Active; 'I' for Inactive)
REMARK    1  A    between atoms: C_1  and  C_2
REMARK    2  A    between atoms: C_2  and  C_3
REMARK    3  A    between atoms: C_2  and  N_4
REMARK    4  A    between atoms: C_8  and  C_9
REMARK    5  A    between atoms: C_14  and  C_15
REMARK    6  A    between atoms: C_15  and  O_16
REMARK    7  A    between atoms: O_16  and  C_17
REMARK    8  A    between atoms: C_21  and  O_22
REMARK    9  A    between atoms: C_23  and  C_24
REMARK                            x       y       z     vdW  Elec       q    Type
REMARK                         _______ _______ _______ _____ _____    ______ ____
ROOT
ATOM      1  C   UNL     1       6.810   4.988  15.927  0.00  0.00    +0.000 A 
ATOM      2  N   UNL     1       7.713   5.059  14.919  0.00  0.00    +0.000 NA
ATOM      3  C   UNL     1       7.304   4.724  13.675  0.00  0.00    +0.000 A 
ATOM      4  C   UNL     1       6.040   4.257  13.383  0.00  0.00    +0.000 A 
ATOM      5  C   UNL     1       5.124   4.177  14.422  0.00  0.00    +0.000 A 
ATOM      6  C   UNL     1       5.485   4.591  15.716  0.00  0.00    +0.000 A 
ENDROOT
BRANCH   1  11
ATOM      7  N   UNL     1       7.543   6.592  17.773  0.00  0.00    +0.000 N 
ATOM      8  N   UNL     1       8.057   6.576  19.032  0.00  0.00    +0.000 NA
ATOM      9  C   UNL     1       8.235   5.286  19.298  0.00  0.00    +0.000 A 
ATOM     10  C   UNL     1       7.847   4.471  18.229  0.00  0.00    +0.000 A 
ATOM     11  C   UNL     1       7.360   5.323  17.248  0.00  0.00    +0.000 A 
BRANCH   7  13
ATOM     12  C   UNL     1       5.739   8.209  17.246  0.00  0.00    +0.000 C 
ATOM     13  C   UNL     1       7.238   7.898  17.190  0.00  0.00    +0.000 C 
ATOM     14  C   UNL     1       8.049   9.004  17.872  0.00  0.00    +0.000 C 
ENDBRANCH   7  13
ENDBRANCH   1  11
BRANCH   6  15
ATOM     15  C   UNL     1       4.394   4.697  16.755  0.00  0.00    +0.000 C 
BRANCH  15  16
ATOM     16  O   UNL     1       4.358   3.598  17.664  0.00  0.00    +0.000 OA
BRANCH  16  17
ATOM     17  C   UNL     1       3.533   3.599  18.754  0.00  0.00    +0.000 A 
ATOM     18  C   UNL     1       2.444   4.469  18.590  0.00  0.00    +0.000 A 
ATOM     19  C   UNL     1       1.481   4.636  19.588  0.00  0.00    +0.000 A 
ATOM     20  C   UNL     1       1.596   3.938  20.785  0.00  0.00    +0.000 A 
ATOM     21  C   UNL     1       2.655   3.050  20.951  0.00  0.00    +0.000 A 
ATOM     22  C   UNL     1       3.607   2.847  19.937  0.00  0.00    +0.000 A 
BRANCH  21  23
ATOM     23  O   UNL     1       2.743   2.338  22.124  0.00  0.00    +0.000 OA
ATOM     24  H   UNL     1       3.056   1.437  21.937  0.00  0.00    +0.000 HD
ENDBRANCH  21  23
BRANCH  22  25
ATOM     25  C   UNL     1       4.561   1.745  20.189  0.00  0.00    +0.000 C 
ATOM     26  O   UNL     1       5.316   1.728  21.152  0.00  0.00    +0.000 OA
ENDBRANCH  22  25
ENDBRANCH  16  17
ENDBRANCH  15  16
ENDBRANCH   6  15
TORSDOF 7
ENDMDL
MODEL 9
REMARK VINA RESULT:      -7.1      1.322      2.709
REMARK  Name = 
REMARK  9 active torsions:
REMARK  status: ('A' for Active; 'I' for Inactive)
REMARK    1  A    between atoms: C_1  and  C_2
REMARK    2  A    between atoms: C_2  and  C_3
REMARK    3  A    between atoms: C_2  and  N_4
REMARK    4  A    between atoms: C_8  and  C_9
REMARK    5  A    between atoms: C_14  and  C_15
REMARK    6  A    between atoms: C_15  and  O_16
REMARK    7  A    between atoms: O_16  and  C_17
REMARK    8  A    between atoms: C_21  and  O_22
REMARK    9  A    between atoms: C_23  and  C_24
REMARK                            x       y       z     vdW  Elec       q    Type
REMARK                         _______ _______ _______ _____ _____    ______ ____
ROOT
ATOM      1  C   UNL     1       4.430   4.181  18.275  0.00  0.00    +0.000 A 
ATOM      2  N   UNL     1       4.928   3.031  18.789  0.00  0.00    +0.000 NA
ATOM      3  C   UNL     1       4.353   2.533  19.907  0.00  0.00    +0.000 A 
ATOM      4  C   UNL     1       3.329   3.160  20.588  0.00  0.00    +0.000 A 
ATOM      5  C   UNL     1       2.832   4.343  20.060  0.00  0.00    +0.000 A 
ATOM      6  C   UNL     1       3.349   4.853  18.856  0.00  0.00    +0.000 A 
ENDROOT
BRANCH   1  11
ATOM      7  N   UNL     1       6.152   5.625  17.064  0.00  0.00    +0.000 N 
ATOM      8  N   UNL     1       6.639   5.848  15.814  0.00  0.00    +0.000 NA
ATOM      9  C   UNL     1       5.919   5.050  15.033  0.00  0.00    +0.000 A 
ATOM     10  C   UNL     1       4.972   4.319  15.760  0.00  0.00    +0.000 A 
ATOM     11  C   UNL     1       5.151   4.668  17.091  0.00  0.00    +0.000 A 
BRANCH   7  13
ATOM     12  C   UNL     1       7.660   5.491  19.028  0.00  0.00    +0.000 C 
ATOM     13  C   UNL     1       6.756   6.376  18.164  0.00  0.00    +0.000 C 
ATOM     14  C   UNL     1       7.527   7.590  17.638  0.00  0.00    +0.000 C 
ENDBRANCH   7  13
ENDBRANCH   1  11
BRANCH   6  15
ATOM     15  C   UNL     1       2.626   6.011  18.210  0.00  0.00    +0.000 C 
BRANCH  15  16
ATOM     16  O   UNL     1       2.957   7.280  18.773  0.00  0.00    +0.000 OA
BRANCH  16  17
ATOM     17  C   UNL     1       2.015   8.058  19.386  0.00  0.00    +0.000 A 
ATOM     18  C   UNL     1       1.619   7.529  20.623  0.00  0.00    +0.000 A 
ATOM     19  C   UNL     1       0.654   8.157  21.415  0.00  0.00    +0.000 A 
ATOM     20  C   UNL     1       0.053   9.331  20.974  0.00  0.00    +0.000 A 
ATOM     21  C   UNL     1       0.456   9.882  19.761  0.00  0.00    +0.000 A 
ATOM     22  C   UNL     1       1.454   9.278  18.977  0.00  0.00    +0.000 A 
BRANCH  21  23
ATOM     23  O   UNL     1      -0.118  11.061  19.348  0.00  0.00    +0.000 OA
ATOM     24  H   UNL     1      -1.058  11.073  19.598  0.00  0.00    +0.000 HD
ENDBRANCH  21  23
BRANCH  22  25
ATOM     25  C   UNL     1       1.900  10.075  17.813  0.00  0.00    +0.000 C 
ATOM     26  O   UNL     1       2.376  11.197  17.920  0.00  0.00    +0.000 OA
ENDBRANCH  22  25
ENDBRANCH  16  17
ENDBRANCH  15  16
ENDBRANCH   6  15
TORSDOF 7
ENDMDL
