MODEL 1
REMARK VINA RESULT:      -8.6      0.000      0.000
REMARK  Name = 
REMARK  7 active torsions:
REMARK  status: ('A' for Active; 'I' for Inactive)
REMARK    1  A    between atoms: C_1  and  O_2
REMARK    2  A    between atoms: O_2  and  C_3
REMARK    3  A    between atoms: C_3  and  C_5
REMARK    4  A    between atoms: C_10  and  N_11
REMARK    5  A    between atoms: C_12  and  C_14
REMARK    6  A    between atoms: C_19  and  O_20
REMARK    7  A    between atoms: O_20  and  C_21
REMARK                            x       y       z     vdW  Elec       q    Type
REMARK                         _______ _______ _______ _____ _____    ______ ____
ROOT
ATOM      1  N   UNL     1       2.822   6.710  18.467  0.00  0.00    +0.000 N 
ATOM      2  C   UNL     1       2.255   6.801  19.718  0.00  0.00    +0.000 C 
ATOM      3  O   UNL     1       2.311   5.937  20.589  0.00  0.00    +0.000 OA
ATOM      4  H   UNL     1       2.976   7.603  17.995  0.00  0.00    +0.000 HD
ENDROOT
BRANCH   2   5
ATOM      5  C   UNL     1       1.580   8.102  20.045  0.00  0.00    +0.000 A 
ATOM      6  C   UNL     1       1.040   8.190  21.274  0.00  0.00    +0.000 A 
ATOM      7  C   UNL     1       0.395   9.414  21.718  0.00  0.00    +0.000 A 
ATOM      8  C   UNL     1      -0.176   9.568  22.960  0.00  0.00    +0.000 A 
ATOM      9  N   UNL     1      -0.768  10.704  23.362  0.00  0.00    +0.000 NA
ATOM     10  C   UNL     1      -0.781  11.717  22.482  0.00  0.00    +0.000 A 
ATOM     11  N   UNL     1      -0.251  11.686  21.242  0.00  0.00    +0.000 NA
ATOM     12  C   UNL     1       0.328  10.523  20.894  0.00  0.00    +0.000 A 
ATOM     13  N   UNL     1       0.895  10.419  19.617  0.00  0.00    +0.000 N 
ATOM     14  C   UNL     1       1.504   9.282  19.133  0.00  0.00    +0.000 A 
ATOM     15  O   UNL     1       1.972   9.230  17.998  0.00  0.00    +0.000 OA
ATOM     16  H   UNL     1       0.847  11.235  19.024  0.00  0.00    +0.000 HD
BRANCH  10  17
ATOM     17  O   UNL     1      -1.403  12.847  22.962  0.00  0.00    +0.000 OA
ATOM     18  C   UNL     1      -2.778  12.676  23.256  0.00  0.00    +0.000 C 
ENDBRANCH  10  17
ENDBRANCH   2   5
BRANCH   1  24
ATOM     19  C   UNL     1       5.549   4.750  16.873  0.00  0.00    +0.000 A 
ATOM     20  C   UNL     1       4.996   3.476  16.741  0.00  0.00    +0.000 A 
ATOM     21  C   UNL     1       3.677   3.252  17.132  0.00  0.00    +0.000 A 
ATOM     22  C   UNL     1       2.895   4.291  17.667  0.00  0.00    +0.000 A 
ATOM     23 CL   UNL     1       1.215   3.904  17.825  0.00  0.00    +0.000 Cl
ATOM     24  C   UNL     1       3.458   5.570  17.879  0.00  0.00    +0.000 A 
ATOM     25  C   UNL     1       4.777   5.783  17.441  0.00  0.00    +0.000 A 
BRANCH  19  26
ATOM     26  C   UNL     1       6.943   4.956  16.391  0.00  0.00    +0.000 C 
ATOM     27  O   UNL     1       7.930   4.523  16.961  0.00  0.00    +0.000 OA
BRANCH  26  29
ATOM     28  C   UNL     1       7.030   4.885  14.053  0.00  0.00    +0.000 C 
ATOM     29  O   UNL     1       6.936   5.673  15.241  0.00  0.00    +0.000 OA
ENDBRANCH  26  29
ENDBRANCH  19  26
ENDBRANCH   1  24
TORSDOF 5
ENDMDL
MODEL 2
REMARK VINA RESULT:      -8.5      0.584      1.149
REMARK  Name = 
REMARK  7 active torsions:
REMARK  status: ('A' for Active; 'I' for Inactive)
REMARK    1  A    between atoms: C_1  and  O_2
REMARK    2  A    between atoms: O_2  and  C_3
REMARK    3  A    between atoms: C_3  and  C_5
REMARK    4  A    between atoms: C_10  and  N_11
REMARK    5  A    between atoms: C_12  and  C_14
REMARK    6  A    between atoms: C_19  and  O_20
REMARK    7  A    between atoms: O_20  and  C_21
REMARK                            x       y       z     vdW  Elec       q    Type
REMARK                         _______ _______ _______ _____ _____    ______ ____
ROOT
ATOM      1  N   UNL     1       2.830   6.907  18.441  0.00  0.00    +0.000 N 
ATOM      2  C   UNL     1       2.204   6.956  19.667  0.00  0.00    +0.000 C 
ATOM      3  O   UNL     1       2.218   6.062  20.508  0.00  0.00    +0.000 OA
ATOM      4  H   UNL     1       3.007   7.816  18.009  0.00  0.00    +0.000 HD
ENDROOT
BRANCH   2   5
ATOM      5  C   UNL     1       1.516   8.246  20.006  0.00  0.00    +0.000 A 
ATOM      6  C   UNL     1       1.048   8.348  21.264  0.00  0.00    +0.000 A 
ATOM      7  C   UNL     1       0.398   9.565  21.720  0.00  0.00    +0.000 A 
ATOM      8  C   UNL     1      -0.102   9.732  22.991  0.00  0.00    +0.000 A 
ATOM      9  N   UNL     1      -0.699  10.861  23.404  0.00  0.00    +0.000 NA
ATOM     10  C   UNL     1      -0.791  11.854  22.506  0.00  0.00    +0.000 A 
ATOM     11  N   UNL     1      -0.336  11.809  21.238  0.00  0.00    +0.000 NA
ATOM     12  C   UNL     1       0.253  10.653  20.880  0.00  0.00    +0.000 A 
ATOM     13  N   UNL     1       0.746  10.536  19.574  0.00  0.00    +0.000 N 
ATOM     14  C   UNL     1       1.354   9.404  19.077  0.00  0.00    +0.000 A 
ATOM     15  O   UNL     1       1.756   9.338  17.917  0.00  0.00    +0.000 OA
ATOM     16  H   UNL     1       0.641  11.337  18.968  0.00  0.00    +0.000 HD
BRANCH  10  17
ATOM     17  O   UNL     1      -1.414  12.978  22.999  0.00  0.00    +0.000 OA
ATOM     18  C   UNL     1      -2.674  13.252  22.413  0.00  0.00    +0.000 C 
ENDBRANCH  10  17
ENDBRANCH   2   5
BRANCH   1  24
ATOM     19  C   UNL     1       5.634   4.991  16.930  0.00  0.00    +0.000 A 
ATOM     20  C   UNL     1       5.081   3.728  16.712  0.00  0.00    +0.000 A 
ATOM     21  C   UNL     1       3.740   3.501  17.015  0.00  0.00    +0.000 A 
ATOM     22  C   UNL     1       2.934   4.523  17.547  0.00  0.00    +0.000 A 
ATOM     23 CL   UNL     1       1.246   4.145  17.589  0.00  0.00    +0.000 Cl
ATOM     24  C   UNL     1       3.492   5.787  17.844  0.00  0.00    +0.000 A 
ATOM     25  C   UNL     1       4.836   6.007  17.495  0.00  0.00    +0.000 A 
BRANCH  19  26
ATOM     26  C   UNL     1       7.055   5.205  16.540  0.00  0.00    +0.000 C 
ATOM     27  O   UNL     1       7.401   5.797  15.533  0.00  0.00    +0.000 OA
BRANCH  26  29
ATOM     28  C   UNL     1       7.900   5.349  18.718  0.00  0.00    +0.000 C 
ATOM     29  O   UNL     1       7.879   4.659  17.468  0.00  0.00    +0.000 OA
ENDBRANCH  26  29
ENDBRANCH  19  26
ENDBRANCH   1  24
TORSDOF 5
ENDMDL
MODEL 3
REMARK VINA RESULT:      -7.9      1.647      2.487
REMARK  Name = 
REMARK  7 active torsions:
REMARK  status: ('A' for Active; 'I' for Inactive)
REMARK    1  A    between atoms: C_1  and  O_2
REMARK    2  A    between atoms: O_2  and  C_3
REMARK    3  A    between atoms: C_3  and  C_5
REMARK    4  A    between atoms: C_10  and  N_11
REMARK    5  A    between atoms: C_12  and  C_14
REMARK    6  A    between atoms: C_19  and  O_20
REMARK    7  A    between atoms: O_20  and  C_21
REMARK                            x       y       z     vdW  Elec       q    Type
REMARK                         _______ _______ _______ _____ _____    ______ ____
ROOT
ATOM      1  N   UNL     1       2.424   6.980  18.650  0.00  0.00    +0.000 N 
ATOM      2  C   UNL     1       2.178   8.270  18.234  0.00  0.00    +0.000 C 
ATOM      3  O   UNL     1       2.567   8.764  17.180  0.00  0.00    +0.000 OA
ATOM      4  H   UNL     1       1.780   6.622  19.358  0.00  0.00    +0.000 HD
ENDROOT
BRANCH   2   5
ATOM      5  C   UNL     1       1.299   9.095  19.129  0.00  0.00    +0.000 A 
ATOM      6  C   UNL     1       0.654  10.117  18.536  0.00  0.00    +0.000 A 
ATOM      7  C   UNL     1      -0.256  10.961  19.292  0.00  0.00    +0.000 A 
ATOM      8  C   UNL     1      -0.944  12.019  18.746  0.00  0.00    +0.000 A 
ATOM      9  N   UNL     1      -1.784  12.794  19.453  0.00  0.00    +0.000 NA
ATOM     10  C   UNL     1      -1.935  12.486  20.750  0.00  0.00    +0.000 A 
ATOM     11  N   UNL     1      -1.319  11.473  21.393  0.00  0.00    +0.000 NA
ATOM     12  C   UNL     1      -0.490  10.732  20.635  0.00  0.00    +0.000 A 
ATOM     13  N   UNL     1       0.186   9.665  21.241  0.00  0.00    +0.000 N 
ATOM     14  C   UNL     1       1.073   8.841  20.583  0.00  0.00    +0.000 A 
ATOM     15  O   UNL     1       1.659   7.927  21.159  0.00  0.00    +0.000 OA
ATOM     16  H   UNL     1       0.005   9.501  22.221  0.00  0.00    +0.000 HD
BRANCH  10  17
ATOM     17  O   UNL     1      -2.809  13.320  21.409  0.00  0.00    +0.000 OA
ATOM     18  C   UNL     1      -4.172  12.963  21.273  0.00  0.00    +0.000 C 
ENDBRANCH  10  17
ENDBRANCH   2   5
BRANCH   1  24
ATOM     19  C   UNL     1       5.543   5.623  17.151  0.00  0.00    +0.000 A 
ATOM     20  C   UNL     1       5.214   4.298  16.865  0.00  0.00    +0.000 A 
ATOM     21  C   UNL     1       3.923   3.838  17.116  0.00  0.00    +0.000 A 
ATOM     22  C   UNL     1       2.945   4.688  17.663  0.00  0.00    +0.000 A 
ATOM     23 CL   UNL     1       1.343   4.035  17.637  0.00  0.00    +0.000 Cl
ATOM     24  C   UNL     1       3.278   6.012  18.029  0.00  0.00    +0.000 A 
ATOM     25  C   UNL     1       4.574   6.466  17.731  0.00  0.00    +0.000 A 
BRANCH  19  26
ATOM     26  C   UNL     1       6.919   6.086  16.815  0.00  0.00    +0.000 C 
ATOM     27  O   UNL     1       7.444   5.920  15.728  0.00  0.00    +0.000 OA
BRANCH  26  29
ATOM     28  C   UNL     1       7.821   8.079  17.646  0.00  0.00    +0.000 C 
ATOM     29  O   UNL     1       7.471   6.714  17.881  0.00  0.00    +0.000 OA
ENDBRANCH  26  29
ENDBRANCH  19  26
ENDBRANCH   1  24
TORSDOF 5
ENDMDL
MODEL 4
REMARK VINA RESULT:      -7.9      1.392      2.251
REMARK  Name = 
REMARK  7 active torsions:
REMARK  status: ('A' for Active; 'I' for Inactive)
REMARK    1  A    between atoms: C_1  and  O_2
REMARK    2  A    between atoms: O_2  and  C_3
REMARK    3  A    between atoms: C_3  and  C_5
REMARK    4  A    between atoms: C_10  and  N_11
REMARK    5  A    between atoms: C_12  and  C_14
REMARK    6  A    between atoms: C_19  and  O_20
REMARK    7  A    between atoms: O_20  and  C_21
REMARK                            x       y       z     vdW  Elec       q    Type
REMARK                         _______ _______ _______ _____ _____    ______ ____
ROOT
ATOM      1  N   UNL     1       2.676   6.880  19.077  0.00  0.00    +0.000 N 
ATOM      2  C   UNL     1       2.075   8.070  18.729  0.00  0.00    +0.000 C 
ATOM      3  O   UNL     1       1.984   8.513  17.588  0.00  0.00    +0.000 OA
ATOM      4  H   UNL     1       2.389   6.497  19.980  0.00  0.00    +0.000 HD
ENDROOT
BRANCH   2   5
ATOM      5  C   UNL     1       1.422   8.831  19.846  0.00  0.00    +0.000 A 
ATOM      6  C   UNL     1       1.173  10.131  19.602  0.00  0.00    +0.000 A 
ATOM      7  C   UNL     1       0.509  10.960  20.594  0.00  0.00    +0.000 A 
ATOM      8  C   UNL     1       0.227  12.293  20.406  0.00  0.00    +0.000 A 
ATOM      9  N   UNL     1      -0.389  13.052  21.328  0.00  0.00    +0.000 NA
ATOM     10  C   UNL     1      -0.733  12.442  22.473  0.00  0.00    +0.000 A 
ATOM     11  N   UNL     1      -0.514  11.145  22.768  0.00  0.00    +0.000 NA
ATOM     12  C   UNL     1       0.107  10.435  21.808  0.00  0.00    +0.000 A 
ATOM     13  N   UNL     1       0.370   9.081  22.049  0.00  0.00    +0.000 N 
ATOM     14  C   UNL     1       1.011   8.248  21.158  0.00  0.00    +0.000 A 
ATOM     15  O   UNL     1       1.238   7.069  21.419  0.00  0.00    +0.000 OA
ATOM     16  H   UNL     1       0.068   8.703  22.936  0.00  0.00    +0.000 HD
BRANCH  10  17
ATOM     17  O   UNL     1      -1.358  13.280  23.368  0.00  0.00    +0.000 OA
ATOM     18  C   UNL     1      -0.886  14.615  23.348  0.00  0.00    +0.000 C 
ENDBRANCH  10  17
ENDBRANCH   2   5
BRANCH   1  24
ATOM     19  C   UNL     1       5.601   5.664  17.133  0.00  0.00    +0.000 A 
ATOM     20  C   UNL     1       5.169   4.434  16.636  0.00  0.00    +0.000 A 
ATOM     21  C   UNL     1       3.869   4.004  16.893  0.00  0.00    +0.000 A 
ATOM     22  C   UNL     1       2.985   4.787  17.655  0.00  0.00    +0.000 A 
ATOM     23 CL   UNL     1       1.344   4.236  17.628  0.00  0.00    +0.000 Cl
ATOM     24  C   UNL     1       3.425   6.001  18.230  0.00  0.00    +0.000 A 
ATOM     25  C   UNL     1       4.726   6.434  17.925  0.00  0.00    +0.000 A 
BRANCH  19  26
ATOM     26  C   UNL     1       6.980   6.108  16.787  0.00  0.00    +0.000 C 
ATOM     27  O   UNL     1       7.503   5.915  15.703  0.00  0.00    +0.000 OA
BRANCH  26  29
ATOM     28  C   UNL     1       7.815   8.136  17.604  0.00  0.00    +0.000 C 
ATOM     29  O   UNL     1       7.538   6.755  17.838  0.00  0.00    +0.000 OA
ENDBRANCH  26  29
ENDBRANCH  19  26
ENDBRANCH   1  24
TORSDOF 5
ENDMDL
MODEL 5
REMARK VINA RESULT:      -7.8      1.515      1.630
REMARK  Name = 
REMARK  7 active torsions:
REMARK  status: ('A' for Active; 'I' for Inactive)
REMARK    1  A    between atoms: C_1  and  O_2
REMARK    2  A    between atoms: O_2  and  C_3
REMARK    3  A    between atoms: C_3  and  C_5
REMARK    4  A    between atoms: C_10  and  N_11
REMARK    5  A    between atoms: C_12  and  C_14
REMARK    6  A    between atoms: C_19  and  O_20
REMARK    7  A    between atoms: O_20  and  C_21
REMARK                            x       y       z     vdW  Elec       q    Type
REMARK                         _______ _______ _______ _____ _____    ______ ____
ROOT
ATOM      1  N   UNL     1       2.409   6.710  20.050  0.00  0.00    +0.000 N 
ATOM      2  C   UNL     1       2.127   7.715  19.151  0.00  0.00    +0.000 C 
ATOM      3  O   UNL     1       2.350   7.673  17.945  0.00  0.00    +0.000 OA
ATOM      4  H   UNL     1       1.881   6.750  20.924  0.00  0.00    +0.000 HD
ENDROOT
BRANCH   2   5
ATOM      5  C   UNL     1       1.423   8.920  19.707  0.00  0.00    +0.000 A 
ATOM      6  C   UNL     1       0.837   8.755  20.907  0.00  0.00    +0.000 A 
ATOM      7  C   UNL     1       0.161   9.860  21.563  0.00  0.00    +0.000 A 
ATOM      8  C   UNL     1      -0.457   9.757  22.787  0.00  0.00    +0.000 A 
ATOM      9  N   UNL     1      -1.079  10.785  23.387  0.00  0.00    +0.000 NA
ATOM     10  C   UNL     1      -1.074  11.954  22.729  0.00  0.00    +0.000 A 
ATOM     11  N   UNL     1      -0.499  12.178  21.530  0.00  0.00    +0.000 NA
ATOM     12  C   UNL     1       0.108  11.112  20.978  0.00  0.00    +0.000 A 
ATOM     13  N   UNL     1       0.723  11.271  19.729  0.00  0.00    +0.000 N 
ATOM     14  C   UNL     1       1.364  10.259  19.050  0.00  0.00    +0.000 A 
ATOM     15  O   UNL     1       1.875  10.440  17.946  0.00  0.00    +0.000 OA
ATOM     16  H   UNL     1       0.686  12.190  19.311  0.00  0.00    +0.000 HD
BRANCH  10  17
ATOM     17  O   UNL     1      -1.728  12.960  23.403  0.00  0.00    +0.000 OA
ATOM     18  C   UNL     1      -3.101  12.705  23.644  0.00  0.00    +0.000 C 
ENDBRANCH  10  17
ENDBRANCH   2   5
BRANCH   1  24
ATOM     19  C   UNL     1       5.168   4.558  18.797  0.00  0.00    +0.000 A 
ATOM     20  C   UNL     1       4.805   3.283  19.232  0.00  0.00    +0.000 A 
ATOM     21  C   UNL     1       3.601   3.101  19.908  0.00  0.00    +0.000 A 
ATOM     22  C   UNL     1       2.746   4.187  20.169  0.00  0.00    +0.000 A 
ATOM     23 CL   UNL     1       1.182   3.733  20.756  0.00  0.00    +0.000 Cl
ATOM     24  C   UNL     1       3.129   5.497  19.804  0.00  0.00    +0.000 A 
ATOM     25  C   UNL     1       4.328   5.652  19.088  0.00  0.00    +0.000 A 
BRANCH  19  26
ATOM     26  C   UNL     1       6.437   4.696  18.030  0.00  0.00    +0.000 C 
ATOM     27  O   UNL     1       7.535   4.412  18.476  0.00  0.00    +0.000 OA
BRANCH  26  29
ATOM     28  C   UNL     1       6.943   4.545  15.750  0.00  0.00    +0.000 C 
ATOM     29  O   UNL     1       6.179   5.165  16.785  0.00  0.00    +0.000 OA
ENDBRANCH  26  29
ENDBRANCH  19  26
ENDBRANCH   1  24
TORSDOF 5
ENDMDL
MODEL 6
REMARK VINA RESULT:      -7.6      1.386      2.204
REMARK  Name = 
REMARK  7 active torsions:
REMARK  status: ('A' for Active; 'I' for Inactive)
REMARK    1  A    between atoms: C_1  and  O_2
REMARK    2  A    between atoms: O_2  and  C_3
REMARK    3  A    between atoms: C_3  and  C_5
REMARK    4  A    between atoms: C_10  and  N_11
REMARK    5  A    between atoms: C_12  and  C_14
REMARK    6  A    between atoms: C_19  and  O_20
REMARK    7  A    between atoms: O_20  and  C_21
REMARK                            x       y       z     vdW  Elec       q    Type
REMARK                         _______ _______ _______ _____ _____    ______ ____
ROOT
ATOM      1  N   UNL     1       2.434   6.894  18.634  0.00  0.00    +0.000 N 
ATOM      2  C   UNL     1       2.211   8.178  18.188  0.00  0.00    +0.000 C 
ATOM      3  O   UNL     1       2.586   8.631  17.111  0.00  0.00    +0.000 OA
ATOM      4  H   UNL     1       1.799   6.574  19.368  0.00  0.00    +0.000 HD
ENDROOT
BRANCH   2   5
ATOM      5  C   UNL     1       1.375   9.051  19.079  0.00  0.00    +0.000 A 
ATOM      6  C   UNL     1       0.810  10.120  18.489  0.00  0.00    +0.000 A 
ATOM      7  C   UNL     1      -0.053  11.016  19.242  0.00  0.00    +0.000 A 
ATOM      8  C   UNL     1      -0.659  12.124  18.698  0.00  0.00    +0.000 A 
ATOM      9  N   UNL     1      -1.456  12.946  19.401  0.00  0.00    +0.000 NA
ATOM     10  C   UNL     1      -1.647  12.635  20.692  0.00  0.00    +0.000 A 
ATOM     11  N   UNL     1      -1.112  11.576  21.333  0.00  0.00    +0.000 NA
ATOM     12  C   UNL     1      -0.322  10.789  20.579  0.00  0.00    +0.000 A 
ATOM     13  N   UNL     1       0.271   9.672  21.181  0.00  0.00    +0.000 N 
ATOM     14  C   UNL     1       1.110   8.797  20.527  0.00  0.00    +0.000 A 
ATOM     15  O   UNL     1       1.625   7.839  21.100  0.00  0.00    +0.000 OA
ATOM     16  H   UNL     1       0.064   9.510  22.156  0.00  0.00    +0.000 HD
BRANCH  10  17
ATOM     17  O   UNL     1      -2.473  13.519  21.348  0.00  0.00    +0.000 OA
ATOM     18  C   UNL     1      -2.541  13.325  22.750  0.00  0.00    +0.000 C 
ENDBRANCH  10  17
ENDBRANCH   2   5
BRANCH   1  24
ATOM     19  C   UNL     1       5.447   5.442  17.014  0.00  0.00    +0.000 A 
ATOM     20  C   UNL     1       5.106   4.100  16.842  0.00  0.00    +0.000 A 
ATOM     21  C   UNL     1       3.838   3.657  17.215  0.00  0.00    +0.000 A 
ATOM     22  C   UNL     1       2.897   4.541  17.771  0.00  0.00    +0.000 A 
ATOM     23 CL   UNL     1       1.300   3.887  17.902  0.00  0.00    +0.000 Cl
ATOM     24  C   UNL     1       3.247   5.888  18.022  0.00  0.00    +0.000 A 
ATOM     25  C   UNL     1       4.517   6.321  17.602  0.00  0.00    +0.000 A 
BRANCH  19  26
ATOM     26  C   UNL     1       6.793   5.882  16.550  0.00  0.00    +0.000 C 
ATOM     27  O   UNL     1       7.280   6.968  16.813  0.00  0.00    +0.000 OA
BRANCH  26  29
ATOM     28  C   UNL     1       7.134   4.988  14.415  0.00  0.00    +0.000 C 
ATOM     29  O   UNL     1       7.376   4.901  15.820  0.00  0.00    +0.000 OA
ENDBRANCH  26  29
ENDBRANCH  19  26
ENDBRANCH   1  24
TORSDOF 5
ENDMDL
MODEL 7
REMARK VINA RESULT:      -7.6      1.340      2.134
REMARK  Name = 
REMARK  7 active torsions:
REMARK  status: ('A' for Active; 'I' for Inactive)
REMARK    1  A    between atoms: C_1  and  O_2
REMARK    2  A    between atoms: O_2  and  C_3
REMARK    3  A    between atoms: C_3  and  C_5
REMARK    4  A    between atoms: C_10  and  N_11
REMARK    5  A    between atoms: C_12  and  C_14
REMARK    6  A    between atoms: C_19  and  O_20
REMARK    7  A    between atoms: O_20  and  C_21
REMARK                            x       y       z     vdW  Elec       q    Type
REMARK                         _______ _______ _______ _____ _____    ______ ____
ROOT
ATOM      1  N   UNL     1       2.767   6.867  18.807  0.00  0.00    +0.000 N 
ATOM      2  C   UNL     1       2.263   8.063  18.347  0.00  0.00    +0.000 C 
ATOM      3  O   UNL     1       2.207   8.405  17.170  0.00  0.00    +0.000 OA
ATOM      4  H   UNL     1       2.452   6.593  19.739  0.00  0.00    +0.000 HD
ENDROOT
BRANCH   2   5
ATOM      5  C   UNL     1       1.676   8.975  19.386  0.00  0.00    +0.000 A 
ATOM      6  C   UNL     1       1.515  10.258  19.016  0.00  0.00    +0.000 A 
ATOM      7  C   UNL     1       0.919  11.225  19.922  0.00  0.00    +0.000 A 
ATOM      8  C   UNL     1       0.728  12.550  19.605  0.00  0.00    +0.000 A 
ATOM      9  N   UNL     1       0.175  13.436  20.449  0.00  0.00    +0.000 NA
ATOM     10  C   UNL     1      -0.199  12.968  21.649  0.00  0.00    +0.000 A 
ATOM     11  N   UNL     1      -0.067  11.694  22.071  0.00  0.00    +0.000 NA
ATOM     12  C   UNL     1       0.494  10.852  21.183  0.00  0.00    +0.000 A 
ATOM     13  N   UNL     1       0.665   9.512  21.557  0.00  0.00    +0.000 N 
ATOM     14  C   UNL     1       1.238   8.554  20.750  0.00  0.00    +0.000 A 
ATOM     15  O   UNL     1       1.387   7.393  21.126  0.00  0.00    +0.000 OA
ATOM     16  H   UNL     1       0.347   9.246  22.478  0.00  0.00    +0.000 HD
BRANCH  10  17
ATOM     17  O   UNL     1      -0.756  13.930  22.460  0.00  0.00    +0.000 OA
ATOM     18  C   UNL     1      -1.031  15.157  21.806  0.00  0.00    +0.000 C 
ENDBRANCH  10  17
ENDBRANCH   2   5
BRANCH   1  24
ATOM     19  C   UNL     1       5.526   5.313  16.861  0.00  0.00    +0.000 A 
ATOM     20  C   UNL     1       5.045   4.032  16.584  0.00  0.00    +0.000 A 
ATOM     21  C   UNL     1       3.763   3.674  16.996  0.00  0.00    +0.000 A 
ATOM     22  C   UNL     1       2.946   4.581  17.694  0.00  0.00    +0.000 A 
ATOM     23 CL   UNL     1       1.303   4.067  17.867  0.00  0.00    +0.000 Cl
ATOM     24  C   UNL     1       3.441   5.856  18.049  0.00  0.00    +0.000 A 
ATOM     25  C   UNL     1       4.722   6.211  17.590  0.00  0.00    +0.000 A 
BRANCH  19  26
ATOM     26  C   UNL     1       6.880   5.671  16.354  0.00  0.00    +0.000 C 
ATOM     27  O   UNL     1       7.468   6.697  16.653  0.00  0.00    +0.000 OA
BRANCH  26  29
ATOM     28  C   UNL     1       7.256   4.993  14.146  0.00  0.00    +0.000 C 
ATOM     29  O   UNL     1       7.345   4.693  15.539  0.00  0.00    +0.000 OA
ENDBRANCH  26  29
ENDBRANCH  19  26
ENDBRANCH   1  24
TORSDOF 5
ENDMDL
MODEL 8
REMARK VINA RESULT:      -7.5      2.036      2.432
REMARK  Name = 
REMARK  7 active torsions:
REMARK  status: ('A' for Active; 'I' for Inactive)
REMARK    1  A    between atoms: C_1  and  O_2
REMARK    2  A    between atoms: O_2  and  C_3
REMARK    3  A    between atoms: C_3  and  C_5
REMARK    4  A    between atoms: C_10  and  N_11
REMARK    5  A    between atoms: C_12  and  C_14
REMARK    6  A    between atoms: C_19  and  O_20
REMARK    7  A    between atoms: O_20  and  C_21
REMARK                            x       y       z     vdW  Elec       q    Type
REMARK                         _______ _______ _______ _____ _____    ______ ____
ROOT
ATOM      1  N   UNL     1       4.378   6.826  17.855  0.00  0.00    +0.000 N 
ATOM      2  C   UNL     1       3.344   6.500  18.704  0.00  0.00    +0.000 C 
ATOM      3  O   UNL     1       3.176   5.404  19.231  0.00  0.00    +0.000 OA
ATOM      4  H   UNL     1       4.568   7.827  17.768  0.00  0.00    +0.000 HD
ENDROOT
BRANCH   2   5
ATOM      5  C   UNL     1       2.399   7.614  19.052  0.00  0.00    +0.000 A 
ATOM      6  C   UNL     1       1.902   7.591  20.303  0.00  0.00    +0.000 A 
ATOM      7  C   UNL     1       1.009   8.638  20.768  0.00  0.00    +0.000 A 
ATOM      8  C   UNL     1       0.467   8.672  22.031  0.00  0.00    +0.000 A 
ATOM      9  N   UNL     1      -0.357   9.645  22.453  0.00  0.00    +0.000 NA
ATOM     10  C   UNL     1      -0.638  10.616  21.571  0.00  0.00    +0.000 A 
ATOM     11  N   UNL     1      -0.165  10.692  20.310  0.00  0.00    +0.000 NA
ATOM     12  C   UNL     1       0.654   9.690  19.944  0.00  0.00    +0.000 A 
ATOM     13  N   UNL     1       1.180   9.704  18.645  0.00  0.00    +0.000 N 
ATOM     14  C   UNL     1       2.016   8.732  18.141  0.00  0.00    +0.000 A 
ATOM     15  O   UNL     1       2.439   8.775  16.987  0.00  0.00    +0.000 OA
ATOM     16  H   UNL     1       0.921  10.479  18.051  0.00  0.00    +0.000 HD
BRANCH  10  17
ATOM     17  O   UNL     1      -1.486  11.577  22.072  0.00  0.00    +0.000 OA
ATOM     18  C   UNL     1      -0.831  12.715  22.603  0.00  0.00    +0.000 C 
ENDBRANCH  10  17
ENDBRANCH   2   5
BRANCH   1  24
ATOM     19  C   UNL     1       6.054   4.724  15.289  0.00  0.00    +0.000 A 
ATOM     20  C   UNL     1       7.202   4.273  15.941  0.00  0.00    +0.000 A 
ATOM     21  C   UNL     1       7.418   4.616  17.274  0.00  0.00    +0.000 A 
ATOM     22  C   UNL     1       6.500   5.419  17.973  0.00  0.00    +0.000 A 
ATOM     23 CL   UNL     1       6.784   5.501  19.678  0.00  0.00    +0.000 Cl
ATOM     24  C   UNL     1       5.369   5.948  17.310  0.00  0.00    +0.000 A 
ATOM     25  C   UNL     1       5.150   5.557  15.978  0.00  0.00    +0.000 A 
BRANCH  19  26
ATOM     26  C   UNL     1       5.836   4.287  13.882  0.00  0.00    +0.000 C 
ATOM     27  O   UNL     1       4.774   3.863  13.459  0.00  0.00    +0.000 OA
BRANCH  26  29
ATOM     28  C   UNL     1       7.003   3.721  11.933  0.00  0.00    +0.000 C 
ATOM     29  O   UNL     1       6.975   4.444  13.165  0.00  0.00    +0.000 OA
ENDBRANCH  26  29
ENDBRANCH  19  26
ENDBRANCH   1  24
TORSDOF 5
ENDMDL
MODEL 9
REMARK VINA RESULT:      -7.5      1.287      1.439
REMARK  Name = 
REMARK  7 active torsions:
REMARK  status: ('A' for Active; 'I' for Inactive)
REMARK    1  A    between atoms: C_1  and  O_2
REMARK    2  A    between atoms: O_2  and  C_3
REMARK    3  A    between atoms: C_3  and  C_5
REMARK    4  A    between atoms: C_10  and  N_11
REMARK    5  A    between atoms: C_12  and  C_14
REMARK    6  A    between atoms: C_19  and  O_20
REMARK    7  A    between atoms: O_20  and  C_21
REMARK                            x       y       z     vdW  Elec       q    Type
REMARK                         _______ _______ _______ _____ _____    ______ ____
ROOT
ATOM      1  N   UNL     1       2.717   7.189  18.807  0.00  0.00    +0.000 N 
ATOM      2  C   UNL     1       2.338   8.352  18.175  0.00  0.00    +0.000 C 
ATOM      3  O   UNL     1       2.444   8.574  16.972  0.00  0.00    +0.000 OA
ATOM      4  H   UNL     1       2.276   7.025  19.714  0.00  0.00    +0.000 HD
ENDROOT
BRANCH   2   5
ATOM      5  C   UNL     1       1.677   9.388  19.038  0.00  0.00    +0.000 A 
ATOM      6  C   UNL     1       1.019   8.920  20.115  0.00  0.00    +0.000 A 
ATOM      7  C   UNL     1       0.374   9.831  21.046  0.00  0.00    +0.000 A 
ATOM      8  C   UNL     1      -0.314   9.417  22.162  0.00  0.00    +0.000 A 
ATOM      9  N   UNL     1      -0.906  10.266  23.018  0.00  0.00    +0.000 NA
ATOM     10  C   UNL     1      -0.796  11.573  22.737  0.00  0.00    +0.000 A 
ATOM     11  N   UNL     1      -0.146  12.097  21.678  0.00  0.00    +0.000 NA
ATOM     12  C   UNL     1       0.427  11.199  20.856  0.00  0.00    +0.000 A 
ATOM     13  N   UNL     1       1.116  11.673  19.732  0.00  0.00    +0.000 N 
ATOM     14  C   UNL     1       1.732  10.862  18.806  0.00  0.00    +0.000 A 
ATOM     15  O   UNL     1       2.311  11.321  17.823  0.00  0.00    +0.000 OA
ATOM     16  H   UNL     1       1.156  12.675  19.604  0.00  0.00    +0.000 HD
BRANCH  10  17
ATOM     17  O   UNL     1      -1.426  12.382  23.656  0.00  0.00    +0.000 OA
ATOM     18  C   UNL     1      -1.266  13.769  23.420  0.00  0.00    +0.000 C 
ENDBRANCH  10  17
ENDBRANCH   2   5
BRANCH   1  24
ATOM     19  C   UNL     1       5.519   5.400  17.144  0.00  0.00    +0.000 A 
ATOM     20  C   UNL     1       5.086   4.074  17.120  0.00  0.00    +0.000 A 
ATOM     21  C   UNL     1       3.822   3.752  17.611  0.00  0.00    +0.000 A 
ATOM     22  C   UNL     1       2.977   4.743  18.140  0.00  0.00    +0.000 A 
ATOM     23 CL   UNL     1       1.356   4.210  18.432  0.00  0.00    +0.000 Cl
ATOM     24  C   UNL     1       3.424   6.079  18.242  0.00  0.00    +0.000 A 
ATOM     25  C   UNL     1       4.686   6.389  17.705  0.00  0.00    +0.000 A 
BRANCH  19  26
ATOM     26  C   UNL     1       6.853   5.707  16.558  0.00  0.00    +0.000 C 
ATOM     27  O   UNL     1       7.466   6.740  16.768  0.00  0.00    +0.000 OA
BRANCH  26  29
ATOM     28  C   UNL     1       7.174   4.911  14.381  0.00  0.00    +0.000 C 
ATOM     29  O   UNL     1       7.270   4.674  15.786  0.00  0.00    +0.000 OA
ENDBRANCH  26  29
ENDBRANCH  19  26
ENDBRANCH   1  24
TORSDOF 5
ENDMDL
