MODEL 1
REMARK VINA RESULT:      -6.7      0.000      0.000
REMARK  Name = 
REMARK  3 active torsions:
REMARK  status: ('A' for Active; 'I' for Inactive)
REMARK    1  A    between atoms: C_1  and  O_2
REMARK    2  A    between atoms: O_2  and  C_3
REMARK    3  A    between atoms: C_6  and  C_7
REMARK                            x       y       z     vdW  Elec       q    Type
REMARK                         _______ _______ _______ _____ _____    ______ ____
ROOT
ATOM      1  C   UNL     1       6.163   4.677  16.799  0.00  0.00    +0.000 A 
ATOM      2  C   UNL     1       5.042   3.929  16.380  0.00  0.00    +0.000 A 
ATOM      3  C   UNL     1       4.071   3.527  17.303  0.00  0.00    +0.000 A 
ATOM      4  C   UNL     1       4.211   3.849  18.657  0.00  0.00    +0.000 A 
ATOM      5  C   UNL     1       5.330   4.587  19.078  0.00  0.00    +0.000 A 
ATOM      6  C   UNL     1       6.295   5.005  18.157  0.00  0.00    +0.000 A 
ATOM      7 BR   UNL     1       7.781   6.041  18.779  0.00  0.00    +0.000 Br
ENDROOT
BRANCH   4   8
ATOM      8  C   UNL     1       3.163   3.445  19.659  0.00  0.00    +0.000 C 
ATOM      9  C   UNL     1       3.459   2.325  20.645  0.00  0.00    +0.000 C 
ATOM     10  N   UNL     1       2.670   2.602  21.848  0.00  0.00    +0.000 NA
ATOM     11  C   UNL     1       1.497   3.361  21.397  0.00  0.00    +0.000 C 
ATOM     12  C   UNL     1       1.896   4.152  20.145  0.00  0.00    +0.000 C 
ATOM     13  C   UNL     1       1.860   3.254  18.909  0.00  0.00    +0.000 C 
ATOM     14  H   UNL     1       3.237   3.262  22.427  0.00  0.00    +0.000 HD
ENDBRANCH   4   8
BRANCH   1  16
ATOM     15  C   UNL     1       7.124   4.878  14.569  0.00  0.00    +0.000 C 
ATOM     16  O   UNL     1       7.122   5.095  15.930  0.00  0.00    +0.000 OA
ENDBRANCH   1  16
TORSDOF 2
ENDMDL
MODEL 2
REMARK VINA RESULT:      -6.6      2.158      2.668
REMARK  Name = 
REMARK  3 active torsions:
REMARK  status: ('A' for Active; 'I' for Inactive)
REMARK    1  A    between atoms: C_1  and  O_2
REMARK    2  A    between atoms: O_2  and  C_3
REMARK    3  A    between atoms: C_6  and  C_7
REMARK                            x       y       z     vdW  Elec       q    Type
REMARK                         _______ _______ _______ _____ _____    ______ ____
ROOT
ATOM      1  C   UNL     1       6.055   6.111  17.046  0.00  0.00    +0.000 A 
ATOM      2  C   UNL     1       5.303   6.370  18.213  0.00  0.00    +0.000 A 
ATOM      3  C   UNL     1       4.197   5.578  18.537  0.00  0.00    +0.000 A 
ATOM      4  C   UNL     1       3.814   4.529  17.695  0.00  0.00    +0.000 A 
ATOM      5  C   UNL     1       4.555   4.272  16.529  0.00  0.00    +0.000 A 
ATOM      6  C   UNL     1       5.670   5.052  16.210  0.00  0.00    +0.000 A 
ATOM      7 BR   UNL     1       6.668   4.636  14.628  0.00  0.00    +0.000 Br
ENDROOT
BRANCH   4   8
ATOM      8  C   UNL     1       2.640   3.651  18.042  0.00  0.00    +0.000 C 
ATOM      9  C   UNL     1       2.703   2.161  17.742  0.00  0.00    +0.000 C 
ATOM     10  N   UNL     1       1.859   1.494  18.736  0.00  0.00    +0.000 NA
ATOM     11  C   UNL     1       0.838   2.475  19.125  0.00  0.00    +0.000 C 
ATOM     12  C   UNL     1       1.441   3.876  18.966  0.00  0.00    +0.000 C 
ATOM     13  C   UNL     1       1.392   4.319  17.504  0.00  0.00    +0.000 C 
ATOM     14  H   UNL     1       2.457   1.349  19.582  0.00  0.00    +0.000 HD
ENDBRANCH   4   8
BRANCH   1  16
ATOM     15  C   UNL     1       7.718   7.839  17.476  0.00  0.00    +0.000 C 
ATOM     16  O   UNL     1       7.141   6.853  16.704  0.00  0.00    +0.000 OA
ENDBRANCH   1  16
TORSDOF 2
ENDMDL
MODEL 3
REMARK VINA RESULT:      -6.5      0.975      1.367
REMARK  Name = 
REMARK  3 active torsions:
REMARK  status: ('A' for Active; 'I' for Inactive)
REMARK    1  A    between atoms: C_1  and  O_2
REMARK    2  A    between atoms: O_2  and  C_3
REMARK    3  A    between atoms: C_6  and  C_7
REMARK                            x       y       z     vdW  Elec       q    Type
REMARK                         _______ _______ _______ _____ _____    ______ ____
ROOT
ATOM      1  C   UNL     1       6.099   4.584  16.791  0.00  0.00    +0.000 A 
ATOM      2  C   UNL     1       4.937   3.961  16.285  0.00  0.00    +0.000 A 
ATOM      3  C   UNL     1       3.843   3.713  17.120  0.00  0.00    +0.000 A 
ATOM      4  C   UNL     1       3.896   4.066  18.473  0.00  0.00    +0.000 A 
ATOM      5  C   UNL     1       5.054   4.679  18.981  0.00  0.00    +0.000 A 
ATOM      6  C   UNL     1       6.144   4.943  18.147  0.00  0.00    +0.000 A 
ATOM      7 BR   UNL     1       7.682   5.816  18.882  0.00  0.00    +0.000 Br
ENDROOT
BRANCH   4   8
ATOM      8  C   UNL     1       2.718   3.828  19.379  0.00  0.00    +0.000 C 
ATOM      9  C   UNL     1       1.326   3.688  18.780  0.00  0.00    +0.000 C 
ATOM     10  N   UNL     1       0.565   2.820  19.681  0.00  0.00    +0.000 NA
ATOM     11  C   UNL     1       1.152   3.002  21.014  0.00  0.00    +0.000 C 
ATOM     12  C   UNL     1       2.633   3.361  20.834  0.00  0.00    +0.000 C 
ATOM     13  C   UNL     1       2.788   4.844  20.500  0.00  0.00    +0.000 C 
ATOM     14  H   UNL     1       0.784   1.837  19.399  0.00  0.00    +0.000 HD
ENDBRANCH   4   8
BRANCH   1  16
ATOM     15  C   UNL     1       7.181   4.893  14.630  0.00  0.00    +0.000 C 
ATOM     16  O   UNL     1       7.178   4.850  16.008  0.00  0.00    +0.000 OA
ENDBRANCH   1  16
TORSDOF 2
ENDMDL
MODEL 4
REMARK VINA RESULT:      -6.4      3.397      5.672
REMARK  Name = 
REMARK  3 active torsions:
REMARK  status: ('A' for Active; 'I' for Inactive)
REMARK    1  A    between atoms: C_1  and  O_2
REMARK    2  A    between atoms: O_2  and  C_3
REMARK    3  A    between atoms: C_6  and  C_7
REMARK                            x       y       z     vdW  Elec       q    Type
REMARK                         _______ _______ _______ _____ _____    ______ ____
ROOT
ATOM      1  C   UNL     1       2.130   3.719  19.159  0.00  0.00    +0.000 A 
ATOM      2  C   UNL     1       2.696   2.768  18.282  0.00  0.00    +0.000 A 
ATOM      3  C   UNL     1       3.765   3.115  17.450  0.00  0.00    +0.000 A 
ATOM      4  C   UNL     1       4.274   4.418  17.466  0.00  0.00    +0.000 A 
ATOM      5  C   UNL     1       3.708   5.369  18.331  0.00  0.00    +0.000 A 
ATOM      6  C   UNL     1       2.650   5.023  19.176  0.00  0.00    +0.000 A 
ATOM      7 BR   UNL     1       1.941   6.348  20.363  0.00  0.00    +0.000 Br
ENDROOT
BRANCH   4   8
ATOM      8  C   UNL     1       5.440   4.801  16.594  0.00  0.00    +0.000 C 
ATOM      9  C   UNL     1       6.851   4.746  17.160  0.00  0.00    +0.000 C 
ATOM     10  N   UNL     1       7.746   4.469  16.034  0.00  0.00    +0.000 NA
ATOM     11  C   UNL     1       7.082   5.015  14.844  0.00  0.00    +0.000 C 
ATOM     12  C   UNL     1       5.567   4.952  15.077  0.00  0.00    +0.000 C 
ATOM     13  C   UNL     1       5.108   6.127  15.940  0.00  0.00    +0.000 C 
ATOM     14  H   UNL     1       7.755   3.431  15.912  0.00  0.00    +0.000 HD
ENDBRANCH   4   8
BRANCH   1  16
ATOM     15  C   UNL     1       1.213   2.860  21.246  0.00  0.00    +0.000 C 
ATOM     16  O   UNL     1       1.098   3.416  19.989  0.00  0.00    +0.000 OA
ENDBRANCH   1  16
TORSDOF 2
ENDMDL
MODEL 5
REMARK VINA RESULT:      -6.3      1.800      2.153
REMARK  Name = 
REMARK  3 active torsions:
REMARK  status: ('A' for Active; 'I' for Inactive)
REMARK    1  A    between atoms: C_1  and  O_2
REMARK    2  A    between atoms: O_2  and  C_3
REMARK    3  A    between atoms: C_6  and  C_7
REMARK                            x       y       z     vdW  Elec       q    Type
REMARK                         _______ _______ _______ _____ _____    ______ ____
ROOT
ATOM      1  C   UNL     1       6.470   6.181  17.219  0.00  0.00    +0.000 A 
ATOM      2  C   UNL     1       5.374   6.119  16.331  0.00  0.00    +0.000 A 
ATOM      3  C   UNL     1       4.261   5.328  16.632  0.00  0.00    +0.000 A 
ATOM      4  C   UNL     1       4.231   4.573  17.808  0.00  0.00    +0.000 A 
ATOM      5  C   UNL     1       5.324   4.626  18.690  0.00  0.00    +0.000 A 
ATOM      6  C   UNL     1       6.432   5.428  18.403  0.00  0.00    +0.000 A 
ATOM      7 BR   UNL     1       7.878   5.493  19.657  0.00  0.00    +0.000 Br
ENDROOT
BRANCH   4   8
ATOM      8  C   UNL     1       3.030   3.735  18.157  0.00  0.00    +0.000 C 
ATOM      9  C   UNL     1       3.004   2.264  17.772  0.00  0.00    +0.000 C 
ATOM     10  N   UNL     1       2.168   1.583  18.765  0.00  0.00    +0.000 NA
ATOM     11  C   UNL     1       1.215   2.588  19.251  0.00  0.00    +0.000 C 
ATOM     12  C   UNL     1       1.883   3.965  19.144  0.00  0.00    +0.000 C 
ATOM     13  C   UNL     1       1.796   4.493  17.713  0.00  0.00    +0.000 C 
ATOM     14  H   UNL     1       2.793   1.360  19.573  0.00  0.00    +0.000 HD
ENDBRANCH   4   8
BRANCH   1  16
ATOM     15  C   UNL     1       7.805   8.202  17.484  0.00  0.00    +0.000 C 
ATOM     16  O   UNL     1       7.565   6.947  16.967  0.00  0.00    +0.000 OA
ENDBRANCH   1  16
TORSDOF 2
ENDMDL
MODEL 6
REMARK VINA RESULT:      -6.3      0.855      1.289
REMARK  Name = 
REMARK  3 active torsions:
REMARK  status: ('A' for Active; 'I' for Inactive)
REMARK    1  A    between atoms: C_1  and  O_2
REMARK    2  A    between atoms: O_2  and  C_3
REMARK    3  A    between atoms: C_6  and  C_7
REMARK                            x       y       z     vdW  Elec       q    Type
REMARK                         _______ _______ _______ _____ _____    ______ ____
ROOT
ATOM      1  C   UNL     1       6.219   4.677  16.740  0.00  0.00    +0.000 A 
ATOM      2  C   UNL     1       5.091   3.938  16.319  0.00  0.00    +0.000 A 
ATOM      3  C   UNL     1       4.071   3.623  17.223  0.00  0.00    +0.000 A 
ATOM      4  C   UNL     1       4.168   4.021  18.560  0.00  0.00    +0.000 A 
ATOM      5  C   UNL     1       5.292   4.750  18.983  0.00  0.00    +0.000 A 
ATOM      6  C   UNL     1       6.307   5.082  18.081  0.00  0.00    +0.000 A 
ATOM      7 BR   UNL     1       7.799   6.108  18.702  0.00  0.00    +0.000 Br
ENDROOT
BRANCH   4   8
ATOM      8  C   UNL     1       3.067   3.711  19.539  0.00  0.00    +0.000 C 
ATOM      9  C   UNL     1       2.411   4.843  20.315  0.00  0.00    +0.000 C 
ATOM     10  N   UNL     1       1.037   4.419  20.597  0.00  0.00    +0.000 NA
ATOM     11  C   UNL     1       1.067   2.952  20.647  0.00  0.00    +0.000 C 
ATOM     12  C   UNL     1       2.192   2.469  19.722  0.00  0.00    +0.000 C 
ATOM     13  C   UNL     1       3.545   2.577  20.422  0.00  0.00    +0.000 C 
ATOM     14  H   UNL     1       0.471   4.669  19.754  0.00  0.00    +0.000 HD
ENDBRANCH   4   8
BRANCH   1  16
ATOM     15  C   UNL     1       7.186   4.904  14.515  0.00  0.00    +0.000 C 
ATOM     16  O   UNL     1       7.225   5.012  15.889  0.00  0.00    +0.000 OA
ENDBRANCH   1  16
TORSDOF 2
ENDMDL
MODEL 7
REMARK VINA RESULT:      -6.3      1.762      2.356
REMARK  Name = 
REMARK  3 active torsions:
REMARK  status: ('A' for Active; 'I' for Inactive)
REMARK    1  A    between atoms: C_1  and  O_2
REMARK    2  A    between atoms: O_2  and  C_3
REMARK    3  A    between atoms: C_6  and  C_7
REMARK                            x       y       z     vdW  Elec       q    Type
REMARK                         _______ _______ _______ _____ _____    ______ ____
ROOT
ATOM      1  C   UNL     1       6.372   5.608  17.509  0.00  0.00    +0.000 A 
ATOM      2  C   UNL     1       5.912   5.655  18.843  0.00  0.00    +0.000 A 
ATOM      3  C   UNL     1       4.785   4.925  19.232  0.00  0.00    +0.000 A 
ATOM      4  C   UNL     1       4.089   4.154  18.296  0.00  0.00    +0.000 A 
ATOM      5  C   UNL     1       4.539   4.110  16.966  0.00  0.00    +0.000 A 
ATOM      6  C   UNL     1       5.675   4.825  16.575  0.00  0.00    +0.000 A 
ATOM      7 BR   UNL     1       6.268   4.701  14.758  0.00  0.00    +0.000 Br
ENDROOT
BRANCH   4   8
ATOM      8  C   UNL     1       2.887   3.344  18.705  0.00  0.00    +0.000 C 
ATOM      9  C   UNL     1       2.909   2.580  20.020  0.00  0.00    +0.000 C 
ATOM     10  N   UNL     1       1.522   2.501  20.485  0.00  0.00    +0.000 NA
ATOM     11  C   UNL     1       0.686   2.549  19.279  0.00  0.00    +0.000 C 
ATOM     12  C   UNL     1       1.438   3.357  18.213  0.00  0.00    +0.000 C 
ATOM     13  C   UNL     1       2.486   2.488  17.521  0.00  0.00    +0.000 C 
ATOM     14  H   UNL     1       1.334   3.389  21.004  0.00  0.00    +0.000 HD
ENDBRANCH   4   8
BRANCH   1  16
ATOM     15  C   UNL     1       7.778   7.596  17.429  0.00  0.00    +0.000 C 
ATOM     16  O   UNL     1       7.470   6.294  17.095  0.00  0.00    +0.000 OA
ENDBRANCH   1  16
TORSDOF 2
ENDMDL
MODEL 8
REMARK VINA RESULT:      -6.2      2.017      2.446
REMARK  Name = 
REMARK  3 active torsions:
REMARK  status: ('A' for Active; 'I' for Inactive)
REMARK    1  A    between atoms: C_1  and  O_2
REMARK    2  A    between atoms: O_2  and  C_3
REMARK    3  A    between atoms: C_6  and  C_7
REMARK                            x       y       z     vdW  Elec       q    Type
REMARK                         _______ _______ _______ _____ _____    ______ ____
ROOT
ATOM      1  C   UNL     1       5.593   6.669  17.347  0.00  0.00    +0.000 A 
ATOM      2  C   UNL     1       4.297   7.220  17.458  0.00  0.00    +0.000 A 
ATOM      3  C   UNL     1       3.267   6.494  18.063  0.00  0.00    +0.000 A 
ATOM      4  C   UNL     1       3.505   5.204  18.548  0.00  0.00    +0.000 A 
ATOM      5  C   UNL     1       4.791   4.650  18.433  0.00  0.00    +0.000 A 
ATOM      6  C   UNL     1       5.829   5.378  17.844  0.00  0.00    +0.000 A 
ATOM      7 BR   UNL     1       7.573   4.591  17.746  0.00  0.00    +0.000 Br
ENDROOT
BRANCH   4   8
ATOM      8  C   UNL     1       2.412   4.419  19.223  0.00  0.00    +0.000 C 
ATOM      9  C   UNL     1       1.379   3.690  18.377  0.00  0.00    +0.000 C 
ATOM     10  N   UNL     1       0.936   2.532  19.158  0.00  0.00    +0.000 NA
ATOM     11  C   UNL     1       1.108   2.904  20.568  0.00  0.00    +0.000 C 
ATOM     12  C   UNL     1       2.269   3.903  20.657  0.00  0.00    +0.000 C 
ATOM     13  C   UNL     1       1.798   5.307  20.286  0.00  0.00    +0.000 C 
ATOM     14  H   UNL     1       1.626   1.769  18.973  0.00  0.00    +0.000 HD
ENDBRANCH   4   8
BRANCH   1  16
ATOM     15  C   UNL     1       7.557   8.108  17.447  0.00  0.00    +0.000 C 
ATOM     16  O   UNL     1       6.623   7.348  16.776  0.00  0.00    +0.000 OA
ENDBRANCH   1  16
TORSDOF 2
ENDMDL
MODEL 9
REMARK VINA RESULT:      -6.2      3.869      5.847
REMARK  Name = 
REMARK  3 active torsions:
REMARK  status: ('A' for Active; 'I' for Inactive)
REMARK    1  A    between atoms: C_1  and  O_2
REMARK    2  A    between atoms: O_2  and  C_3
REMARK    3  A    between atoms: C_6  and  C_7
REMARK                            x       y       z     vdW  Elec       q    Type
REMARK                         _______ _______ _______ _____ _____    ______ ____
ROOT
ATOM      1  C   UNL     1       2.385   6.781  19.506  0.00  0.00    +0.000 A 
ATOM      2  C   UNL     1       2.795   7.648  18.469  0.00  0.00    +0.000 A 
ATOM      3  C   UNL     1       3.806   7.265  17.581  0.00  0.00    +0.000 A 
ATOM      4  C   UNL     1       4.434   6.024  17.723  0.00  0.00    +0.000 A 
ATOM      5  C   UNL     1       4.034   5.162  18.758  0.00  0.00    +0.000 A 
ATOM      6  C   UNL     1       3.013   5.533  19.638  0.00  0.00    +0.000 A 
ATOM      7 BR   UNL     1       2.480   4.304  21.008  0.00  0.00    +0.000 Br
ENDROOT
BRANCH   4   8
ATOM      8  C   UNL     1       5.506   5.587  16.761  0.00  0.00    +0.000 C 
ATOM      9  C   UNL     1       6.964   5.626  17.194  0.00  0.00    +0.000 C 
ATOM     10  N   UNL     1       7.654   4.573  16.445  0.00  0.00    +0.000 NA
ATOM     11  C   UNL     1       6.904   4.406  15.194  0.00  0.00    +0.000 C 
ATOM     12  C   UNL     1       5.440   4.774  15.467  0.00  0.00    +0.000 C 
ATOM     13  C   UNL     1       5.254   6.290  15.442  0.00  0.00    +0.000 C 
ATOM     14  H   UNL     1       7.517   3.688  16.985  0.00  0.00    +0.000 HD
ENDBRANCH   4   8
BRANCH   1  16
ATOM     15  C   UNL     1       1.297   8.308  21.062  0.00  0.00    +0.000 C 
ATOM     16  O   UNL     1       1.400   7.113  20.381  0.00  0.00    +0.000 OA
ENDBRANCH   1  16
TORSDOF 2
ENDMDL
