MODEL 1
REMARK VINA RESULT:     -10.0      0.000      0.000
REMARK  Name = 
REMARK  9 active torsions:
REMARK  status: ('A' for Active; 'I' for Inactive)
REMARK    1  A    between atoms: C_1  and  C_2
REMARK    2  A    between atoms: N_4  and  C_5
REMARK    3  A    between atoms: C_5  and  C_6
REMARK    4  A    between atoms: C_9  and  N_10
REMARK    5  A    between atoms: C_11  and  C_13
REMARK    6  A    between atoms: C_16  and  C_17
REMARK    7  A    between atoms: C_21  and  C_22
REMARK    8  A    between atoms: N_25  and  C_26
REMARK    9  A    between atoms: C_29  and  C_30
REMARK                            x       y       z     vdW  Elec       q    Type
REMARK                         _______ _______ _______ _____ _____    ______ ____
ROOT
ATOM      1  N   UNL     1       3.307   6.737  18.539  0.00  0.00    +0.000 N 
ATOM      2  C   UNL     1       2.506   7.822  18.213  0.00  0.00    +0.000 C 
ATOM      3  O   UNL     1       2.447   8.335  17.102  0.00  0.00    +0.000 OA
ATOM      4  H   UNL     1       3.563   6.639  19.516  0.00  0.00    +0.000 HD
ENDROOT
BRANCH   1   8
ATOM      5  C   UNL     1       5.891   5.271  15.654  0.00  0.00    +0.000 A 
ATOM      6  N   UNL     1       6.012   6.557  16.022  0.00  0.00    +0.000 NA
ATOM      7  C   UNL     1       5.186   6.980  17.003  0.00  0.00    +0.000 A 
ATOM      8  C   UNL     1       4.220   6.189  17.602  0.00  0.00    +0.000 A 
ATOM      9  C   UNL     1       4.163   4.866  17.161  0.00  0.00    +0.000 A 
ATOM     10  N   UNL     1       4.983   4.418  16.172  0.00  0.00    +0.000 NA
BRANCH   9  11
ATOM     11  C   UNL     1       3.278   3.810  17.734  0.00  0.00    +0.000 A 
ATOM     12  C   UNL     1       1.890   4.024  17.844  0.00  0.00    +0.000 A 
ATOM     13  C   UNL     1       1.034   3.059  18.385  0.00  0.00    +0.000 A 
ATOM     14  C   UNL     1       1.546   1.852  18.845  0.00  0.00    +0.000 A 
ATOM     15  C   UNL     1       2.905   1.592  18.724  0.00  0.00    +0.000 A 
ATOM     16  C   UNL     1       3.749   2.545  18.144  0.00  0.00    +0.000 A 
ENDBRANCH   9  11
BRANCH   5  17
ATOM     17  C   UNL     1       6.770   4.767  14.527  0.00  0.00    +0.000 C 
BRANCH  17  21
ATOM     18  C   UNL     1       5.673   2.467  11.734  0.00  0.00    +0.000 C 
ATOM     19  C   UNL     1       6.439   3.573  12.403  0.00  0.00    +0.000 C 
ATOM     20  O   UNL     1       7.260   4.266  11.809  0.00  0.00    +0.000 OA
ATOM     21  N   UNL     1       6.134   3.731  13.732  0.00  0.00    +0.000 N 
ATOM     22  H   UNL     1       5.440   3.142  14.173  0.00  0.00    +0.000 HD
ENDBRANCH  17  21
ENDBRANCH   5  17
ENDBRANCH   1   8
BRANCH   2  23
ATOM     23  C   UNL     1       1.784   8.456  19.355  0.00  0.00    +0.000 A 
ATOM     24  C   UNL     1       1.793   7.822  20.596  0.00  0.00    +0.000 A 
ATOM     25  C   UNL     1       1.121   8.398  21.677  0.00  0.00    +0.000 A 
ATOM     26  C   UNL     1       0.411   9.614  21.543  0.00  0.00    +0.000 A 
ATOM     27  C   UNL     1       0.388  10.245  20.279  0.00  0.00    +0.000 A 
ATOM     28  C   UNL     1       1.096   9.664  19.205  0.00  0.00    +0.000 A 
BRANCH  27  29
ATOM     29  C   UNL     1      -0.366  11.476  20.006  0.00  0.00    +0.000 A 
ATOM     30  C   UNL     1      -1.770  11.608  19.797  0.00  0.00    +0.000 A 
ATOM     31  C   UNL     1      -2.000  12.955  19.618  0.00  0.00    +0.000 A 
ATOM     32  N   UNL     1      -0.778  13.545  19.739  0.00  0.00    +0.000 N 
ATOM     33  C   UNL     1      -0.490  14.960  19.699  0.00  0.00    +0.000 C 
ATOM     34  N   UNL     1       0.224  12.674  19.936  0.00  0.00    +0.000 NA
ENDBRANCH  27  29
BRANCH  26  35
ATOM     35  C   UNL     1      -0.293  10.169  22.770  0.00  0.00    +0.000 C 
ATOM     36  F   UNL     1       0.279   9.711  23.932  0.00  0.00    +0.000 F 
ATOM     37  F   UNL     1      -0.234  11.523  22.885  0.00  0.00    +0.000 F 
ATOM     38  F   UNL     1      -1.599   9.796  22.877  0.00  0.00    +0.000 F 
ENDBRANCH  26  35
ENDBRANCH   2  23
TORSDOF 7
ENDMDL
MODEL 2
REMARK VINA RESULT:      -9.6      1.062      1.351
REMARK  Name = 
REMARK  9 active torsions:
REMARK  status: ('A' for Active; 'I' for Inactive)
REMARK    1  A    between atoms: C_1  and  C_2
REMARK    2  A    between atoms: N_4  and  C_5
REMARK    3  A    between atoms: C_5  and  C_6
REMARK    4  A    between atoms: C_9  and  N_10
REMARK    5  A    between atoms: C_11  and  C_13
REMARK    6  A    between atoms: C_16  and  C_17
REMARK    7  A    between atoms: C_21  and  C_22
REMARK    8  A    between atoms: N_25  and  C_26
REMARK    9  A    between atoms: C_29  and  C_30
REMARK                            x       y       z     vdW  Elec       q    Type
REMARK                         _______ _______ _______ _____ _____    ______ ____
ROOT
ATOM      1  N   UNL     1       3.175   7.120  18.570  0.00  0.00    +0.000 N 
ATOM      2  C   UNL     1       2.479   8.200  18.044  0.00  0.00    +0.000 C 
ATOM      3  O   UNL     1       2.539   8.565  16.876  0.00  0.00    +0.000 OA
ATOM      4  H   UNL     1       3.349   7.136  19.569  0.00  0.00    +0.000 HD
ENDROOT
BRANCH   1   8
ATOM      5  C   UNL     1       5.840   5.118  16.113  0.00  0.00    +0.000 A 
ATOM      6  N   UNL     1       5.964   6.450  16.235  0.00  0.00    +0.000 NA
ATOM      7  C   UNL     1       5.110   7.056  17.087  0.00  0.00    +0.000 A 
ATOM      8  C   UNL     1       4.112   6.399  17.788  0.00  0.00    +0.000 A 
ATOM      9  C   UNL     1       4.055   5.016  17.604  0.00  0.00    +0.000 A 
ATOM     10  N   UNL     1       4.903   4.384  16.749  0.00  0.00    +0.000 NA
BRANCH   9  11
ATOM     11  C   UNL     1       3.136   4.093  18.334  0.00  0.00    +0.000 A 
ATOM     12  C   UNL     1       3.516   3.544  19.574  0.00  0.00    +0.000 A 
ATOM     13  C   UNL     1       2.682   2.668  20.279  0.00  0.00    +0.000 A 
ATOM     14  C   UNL     1       1.448   2.306  19.755  0.00  0.00    +0.000 A 
ATOM     15  C   UNL     1       1.026   2.854  18.550  0.00  0.00    +0.000 A 
ATOM     16  C   UNL     1       1.846   3.761  17.871  0.00  0.00    +0.000 A 
ENDBRANCH   9  11
BRANCH   5  17
ATOM     17  C   UNL     1       6.752   4.405  15.135  0.00  0.00    +0.000 C 
BRANCH  17  21
ATOM     18  C   UNL     1       5.474   2.848  11.936  0.00  0.00    +0.000 C 
ATOM     19  C   UNL     1       6.339   3.706  12.814  0.00  0.00    +0.000 C 
ATOM     20  O   UNL     1       7.243   4.410  12.372  0.00  0.00    +0.000 OA
ATOM     21  N   UNL     1       6.026   3.626  14.147  0.00  0.00    +0.000 N 
ATOM     22  H   UNL     1       5.263   3.040  14.461  0.00  0.00    +0.000 HD
ENDBRANCH  17  21
ENDBRANCH   5  17
ENDBRANCH   1   8
BRANCH   2  23
ATOM     23  C   UNL     1       1.722   9.021  19.033  0.00  0.00    +0.000 A 
ATOM     24  C   UNL     1       1.226   8.409  20.183  0.00  0.00    +0.000 A 
ATOM     25  C   UNL     1       0.512   9.160  21.119  0.00  0.00    +0.000 A 
ATOM     26  C   UNL     1       0.263  10.539  20.926  0.00  0.00    +0.000 A 
ATOM     27  C   UNL     1       0.750  11.154  19.751  0.00  0.00    +0.000 A 
ATOM     28  C   UNL     1       1.494  10.385  18.829  0.00  0.00    +0.000 A 
BRANCH  27  29
ATOM     29  C   UNL     1       0.499  12.561  19.414  0.00  0.00    +0.000 A 
ATOM     30  C   UNL     1      -0.682  13.123  18.848  0.00  0.00    +0.000 A 
ATOM     31  C   UNL     1      -0.448  14.478  18.754  0.00  0.00    +0.000 A 
ATOM     32  N   UNL     1       0.803  14.660  19.262  0.00  0.00    +0.000 N 
ATOM     33  C   UNL     1       1.489  15.918  19.448  0.00  0.00    +0.000 C 
ATOM     34  N   UNL     1       1.406  13.520  19.631  0.00  0.00    +0.000 NA
ENDBRANCH  27  29
BRANCH  26  35
ATOM     35  C   UNL     1      -0.524  11.279  21.995  0.00  0.00    +0.000 C 
ATOM     36  F   UNL     1      -0.606  10.552  23.157  0.00  0.00    +0.000 F 
ATOM     37  F   UNL     1       0.032  12.459  22.383  0.00  0.00    +0.000 F 
ATOM     38  F   UNL     1      -1.824  11.517  21.664  0.00  0.00    +0.000 F 
ENDBRANCH  26  35
ENDBRANCH   2  23
TORSDOF 7
ENDMDL
MODEL 3
REMARK VINA RESULT:      -9.5      0.696      1.366
REMARK  Name = 
REMARK  9 active torsions:
REMARK  status: ('A' for Active; 'I' for Inactive)
REMARK    1  A    between atoms: C_1  and  C_2
REMARK    2  A    between atoms: N_4  and  C_5
REMARK    3  A    between atoms: C_5  and  C_6
REMARK    4  A    between atoms: C_9  and  N_10
REMARK    5  A    between atoms: C_11  and  C_13
REMARK    6  A    between atoms: C_16  and  C_17
REMARK    7  A    between atoms: C_21  and  C_22
REMARK    8  A    between atoms: N_25  and  C_26
REMARK    9  A    between atoms: C_29  and  C_30
REMARK                            x       y       z     vdW  Elec       q    Type
REMARK                         _______ _______ _______ _____ _____    ______ ____
ROOT
ATOM      1  N   UNL     1       3.146   6.819  18.501  0.00  0.00    +0.000 N 
ATOM      2  C   UNL     1       2.438   7.988  18.255  0.00  0.00    +0.000 C 
ATOM      3  O   UNL     1       2.456   8.603  17.196  0.00  0.00    +0.000 OA
ATOM      4  H   UNL     1       3.358   6.613  19.471  0.00  0.00    +0.000 HD
ENDROOT
BRANCH   1   8
ATOM      5  C   UNL     1       5.684   5.398  15.553  0.00  0.00    +0.000 A 
ATOM      6  N   UNL     1       5.719   6.709  15.846  0.00  0.00    +0.000 NA
ATOM      7  C   UNL     1       4.915   7.120  16.850  0.00  0.00    +0.000 A 
ATOM      8  C   UNL     1       4.049   6.292  17.543  0.00  0.00    +0.000 A 
ATOM      9  C   UNL     1       4.076   4.946  17.175  0.00  0.00    +0.000 A 
ATOM     10  N   UNL     1       4.876   4.508  16.165  0.00  0.00    +0.000 NA
BRANCH   9  11
ATOM     11  C   UNL     1       3.310   3.858  17.852  0.00  0.00    +0.000 A 
ATOM     12  C   UNL     1       3.975   2.911  18.654  0.00  0.00    +0.000 A 
ATOM     13  C   UNL     1       3.289   1.873  19.295  0.00  0.00    +0.000 A 
ATOM     14  C   UNL     1       1.914   1.746  19.139  0.00  0.00    +0.000 A 
ATOM     15  C   UNL     1       1.220   2.681  18.382  0.00  0.00    +0.000 A 
ATOM     16  C   UNL     1       1.907   3.739  17.778  0.00  0.00    +0.000 A 
ENDBRANCH   9  11
BRANCH   5  17
ATOM     17  C   UNL     1       6.540   4.902  14.405  0.00  0.00    +0.000 C 
BRANCH  17  21
ATOM     18  C   UNL     1       5.526   2.469  11.695  0.00  0.00    +0.000 C 
ATOM     19  C   UNL     1       6.318   3.560  12.356  0.00  0.00    +0.000 C 
ATOM     20  O   UNL     1       7.257   4.128  11.804  0.00  0.00    +0.000 OA
ATOM     21  N   UNL     1       5.895   3.858  13.627  0.00  0.00    +0.000 N 
ATOM     22  H   UNL     1       5.108   3.370  14.034  0.00  0.00    +0.000 HD
ENDBRANCH  17  21
ENDBRANCH   5  17
ENDBRANCH   1   8
BRANCH   2  23
ATOM     23  C   UNL     1       1.724   8.566  19.431  0.00  0.00    +0.000 A 
ATOM     24  C   UNL     1       1.812   7.920  20.662  0.00  0.00    +0.000 A 
ATOM     25  C   UNL     1       1.149   8.445  21.773  0.00  0.00    +0.000 A 
ATOM     26  C   UNL     1       0.368   9.620  21.681  0.00  0.00    +0.000 A 
ATOM     27  C   UNL     1       0.265  10.265  20.428  0.00  0.00    +0.000 A 
ATOM     28  C   UNL     1       0.966   9.736  19.322  0.00  0.00    +0.000 A 
BRANCH  27  29
ATOM     29  C   UNL     1      -0.565  11.454  20.199  0.00  0.00    +0.000 A 
ATOM     30  C   UNL     1      -0.126  12.786  19.946  0.00  0.00    +0.000 A 
ATOM     31  C   UNL     1      -1.270  13.533  19.762  0.00  0.00    +0.000 A 
ATOM     32  N   UNL     1      -2.298  12.649  19.892  0.00  0.00    +0.000 N 
ATOM     33  C   UNL     1      -3.705  12.924  19.720  0.00  0.00    +0.000 C 
ATOM     34  N   UNL     1      -1.901  11.402  20.190  0.00  0.00    +0.000 NA
ENDBRANCH  27  29
BRANCH  26  35
ATOM     35  C   UNL     1      -0.321  10.121  22.940  0.00  0.00    +0.000 C 
ATOM     36  F   UNL     1      -1.647   9.764  22.966  0.00  0.00    +0.000 F 
ATOM     37  F   UNL     1       0.181   9.608  24.095  0.00  0.00    +0.000 F 
ATOM     38  F   UNL     1      -0.344  11.478  23.058  0.00  0.00    +0.000 F 
ENDBRANCH  26  35
ENDBRANCH   2  23
TORSDOF 7
ENDMDL
MODEL 4
REMARK VINA RESULT:      -9.4      1.238      1.439
REMARK  Name = 
REMARK  9 active torsions:
REMARK  status: ('A' for Active; 'I' for Inactive)
REMARK    1  A    between atoms: C_1  and  C_2
REMARK    2  A    between atoms: N_4  and  C_5
REMARK    3  A    between atoms: C_5  and  C_6
REMARK    4  A    between atoms: C_9  and  N_10
REMARK    5  A    between atoms: C_11  and  C_13
REMARK    6  A    between atoms: C_16  and  C_17
REMARK    7  A    between atoms: C_21  and  C_22
REMARK    8  A    between atoms: N_25  and  C_26
REMARK    9  A    between atoms: C_29  and  C_30
REMARK                            x       y       z     vdW  Elec       q    Type
REMARK                         _______ _______ _______ _____ _____    ______ ____
ROOT
ATOM      1  N   UNL     1       3.001   7.034  18.827  0.00  0.00    +0.000 N 
ATOM      2  C   UNL     1       2.391   8.140  18.252  0.00  0.00    +0.000 C 
ATOM      3  O   UNL     1       2.550   8.497  17.091  0.00  0.00    +0.000 OA
ATOM      4  H   UNL     1       3.105   7.046  19.835  0.00  0.00    +0.000 HD
ENDROOT
BRANCH   1   8
ATOM      5  C   UNL     1       5.735   4.899  16.565  0.00  0.00    +0.000 A 
ATOM      6  N   UNL     1       5.874   6.233  16.639  0.00  0.00    +0.000 NA
ATOM      7  C   UNL     1       4.994   6.884  17.430  0.00  0.00    +0.000 A 
ATOM      8  C   UNL     1       3.959   6.269  18.114  0.00  0.00    +0.000 A 
ATOM      9  C   UNL     1       3.888   4.881  17.983  0.00  0.00    +0.000 A 
ATOM     10  N   UNL     1       4.761   4.204  17.189  0.00  0.00    +0.000 NA
BRANCH   9  11
ATOM     11  C   UNL     1       2.926   4.000  18.708  0.00  0.00    +0.000 A 
ATOM     12  C   UNL     1       1.877   3.367  18.015  0.00  0.00    +0.000 A 
ATOM     13  C   UNL     1       0.953   2.543  18.667  0.00  0.00    +0.000 A 
ATOM     14  C   UNL     1       1.046   2.339  20.038  0.00  0.00    +0.000 A 
ATOM     15  C   UNL     1       2.087   2.921  20.750  0.00  0.00    +0.000 A 
ATOM     16  C   UNL     1       3.031   3.710  20.085  0.00  0.00    +0.000 A 
ENDBRANCH   9  11
BRANCH   5  17
ATOM     17  C   UNL     1       6.676   4.135  15.655  0.00  0.00    +0.000 C 
BRANCH  17  21
ATOM     18  C   UNL     1       5.539   3.218  12.168  0.00  0.00    +0.000 C 
ATOM     19  C   UNL     1       6.350   3.907  13.228  0.00  0.00    +0.000 C 
ATOM     20  O   UNL     1       7.239   4.712  12.966  0.00  0.00    +0.000 OA
ATOM     21  N   UNL     1       6.004   3.550  14.507  0.00  0.00    +0.000 N 
ATOM     22  H   UNL     1       5.255   2.891  14.672  0.00  0.00    +0.000 HD
ENDBRANCH  17  21
ENDBRANCH   5  17
ENDBRANCH   1   8
BRANCH   2  23
ATOM     23  C   UNL     1       1.603   8.997  19.184  0.00  0.00    +0.000 A 
ATOM     24  C   UNL     1       1.024   8.418  20.311  0.00  0.00    +0.000 A 
ATOM     25  C   UNL     1       0.280   9.202  21.195  0.00  0.00    +0.000 A 
ATOM     26  C   UNL     1       0.082  10.584  20.968  0.00  0.00    +0.000 A 
ATOM     27  C   UNL     1       0.654  11.167  19.815  0.00  0.00    +0.000 A 
ATOM     28  C   UNL     1       1.427  10.364  18.948  0.00  0.00    +0.000 A 
BRANCH  27  29
ATOM     29  C   UNL     1       0.463  12.576  19.445  0.00  0.00    +0.000 A 
ATOM     30  C   UNL     1      -0.638  13.151  18.746  0.00  0.00    +0.000 A 
ATOM     31  C   UNL     1      -0.375  14.502  18.673  0.00  0.00    +0.000 A 
ATOM     32  N   UNL     1       0.814  14.669  19.317  0.00  0.00    +0.000 N 
ATOM     33  C   UNL     1       1.493  15.918  19.573  0.00  0.00    +0.000 C 
ATOM     34  N   UNL     1       1.354  13.523  19.757  0.00  0.00    +0.000 NA
ENDBRANCH  27  29
BRANCH  26  35
ATOM     35  C   UNL     1      -0.743  11.363  21.980  0.00  0.00    +0.000 C 
ATOM     36  F   UNL     1      -0.103  12.512  22.377  0.00  0.00    +0.000 F 
ATOM     37  F   UNL     1      -1.942  11.800  21.507  0.00  0.00    +0.000 F 
ATOM     38  F   UNL     1      -0.970  10.694  23.144  0.00  0.00    +0.000 F 
ENDBRANCH  26  35
ENDBRANCH   2  23
TORSDOF 7
ENDMDL
MODEL 5
REMARK VINA RESULT:      -9.4      1.605      1.988
REMARK  Name = 
REMARK  9 active torsions:
REMARK  status: ('A' for Active; 'I' for Inactive)
REMARK    1  A    between atoms: C_1  and  C_2
REMARK    2  A    between atoms: N_4  and  C_5
REMARK    3  A    between atoms: C_5  and  C_6
REMARK    4  A    between atoms: C_9  and  N_10
REMARK    5  A    between atoms: C_11  and  C_13
REMARK    6  A    between atoms: C_16  and  C_17
REMARK    7  A    between atoms: C_21  and  C_22
REMARK    8  A    between atoms: N_25  and  C_26
REMARK    9  A    between atoms: C_29  and  C_30
REMARK                            x       y       z     vdW  Elec       q    Type
REMARK                         _______ _______ _______ _____ _____    ______ ____
ROOT
ATOM      1  N   UNL     1       2.592   7.321  18.851  0.00  0.00    +0.000 N 
ATOM      2  C   UNL     1       2.103   8.495  18.296  0.00  0.00    +0.000 C 
ATOM      3  O   UNL     1       2.304   8.856  17.143  0.00  0.00    +0.000 OA
ATOM      4  H   UNL     1       2.691   7.302  19.860  0.00  0.00    +0.000 HD
ENDROOT
BRANCH   1   8
ATOM      5  C   UNL     1       5.072   4.927  16.555  0.00  0.00    +0.000 A 
ATOM      6  N   UNL     1       5.176   6.260  16.426  0.00  0.00    +0.000 NA
ATOM      7  C   UNL     1       4.388   7.003  17.232  0.00  0.00    +0.000 A 
ATOM      8  C   UNL     1       3.472   6.476  18.127  0.00  0.00    +0.000 A 
ATOM      9  C   UNL     1       3.429   5.083  18.198  0.00  0.00    +0.000 A 
ATOM     10  N   UNL     1       4.212   4.313  17.394  0.00  0.00    +0.000 NA
BRANCH   9  11
ATOM     11  C   UNL     1       2.600   4.300  19.161  0.00  0.00    +0.000 A 
ATOM     12  C   UNL     1       2.890   4.329  20.539  0.00  0.00    +0.000 A 
ATOM     13  C   UNL     1       2.139   3.599  21.467  0.00  0.00    +0.000 A 
ATOM     14  C   UNL     1       1.081   2.807  21.039  0.00  0.00    +0.000 A 
ATOM     15  C   UNL     1       0.745   2.779  19.691  0.00  0.00    +0.000 A 
ATOM     16  C   UNL     1       1.475   3.543  18.775  0.00  0.00    +0.000 A 
ENDBRANCH   9  11
BRANCH   5  17
ATOM     17  C   UNL     1       5.909   4.056  15.640  0.00  0.00    +0.000 C 
BRANCH  17  21
ATOM     18  C   UNL     1       7.966   5.414  12.773  0.00  0.00    +0.000 C 
ATOM     19  C   UNL     1       6.967   4.536  13.472  0.00  0.00    +0.000 C 
ATOM     20  O   UNL     1       6.341   3.651  12.896  0.00  0.00    +0.000 OA
ATOM     21  N   UNL     1       6.822   4.820  14.807  0.00  0.00    +0.000 N 
ATOM     22  H   UNL     1       7.370   5.552  15.240  0.00  0.00    +0.000 HD
ENDBRANCH  17  21
ENDBRANCH   5  17
ENDBRANCH   1   8
BRANCH   2  23
ATOM     23  C   UNL     1       1.399   9.409  19.242  0.00  0.00    +0.000 A 
ATOM     24  C   UNL     1       0.807   8.876  20.384  0.00  0.00    +0.000 A 
ATOM     25  C   UNL     1       0.142   9.715  21.281  0.00  0.00    +0.000 A 
ATOM     26  C   UNL     1       0.037  11.107  21.052  0.00  0.00    +0.000 A 
ATOM     27  C   UNL     1       0.622  11.643  19.883  0.00  0.00    +0.000 A 
ATOM     28  C   UNL     1       1.316  10.784  19.003  0.00  0.00    +0.000 A 
BRANCH  27  29
ATOM     29  C   UNL     1       0.525  13.061  19.511  0.00  0.00    +0.000 A 
ATOM     30  C   UNL     1      -0.559  13.716  18.857  0.00  0.00    +0.000 A 
ATOM     31  C   UNL     1      -0.197  15.042  18.761  0.00  0.00    +0.000 A 
ATOM     32  N   UNL     1       1.029  15.120  19.351  0.00  0.00    +0.000 N 
ATOM     33  C   UNL     1       1.814  16.314  19.566  0.00  0.00    +0.000 C 
ATOM     34  N   UNL     1       1.499  13.937  19.776  0.00  0.00    +0.000 NA
ENDBRANCH  27  29
BRANCH  26  35
ATOM     35  C   UNL     1      -0.706  11.946  22.078  0.00  0.00    +0.000 C 
ATOM     36  F   UNL     1      -0.930  11.245  23.238  0.00  0.00    +0.000 F 
ATOM     37  F   UNL     1      -0.033  13.055  22.488  0.00  0.00    +0.000 F 
ATOM     38  F   UNL     1      -1.951  12.332  21.683  0.00  0.00    +0.000 F 
ENDBRANCH  26  35
ENDBRANCH   2  23
TORSDOF 7
ENDMDL
MODEL 6
REMARK VINA RESULT:      -9.1      1.385      1.759
REMARK  Name = 
REMARK  9 active torsions:
REMARK  status: ('A' for Active; 'I' for Inactive)
REMARK    1  A    between atoms: C_1  and  C_2
REMARK    2  A    between atoms: N_4  and  C_5
REMARK    3  A    between atoms: C_5  and  C_6
REMARK    4  A    between atoms: C_9  and  N_10
REMARK    5  A    between atoms: C_11  and  C_13
REMARK    6  A    between atoms: C_16  and  C_17
REMARK    7  A    between atoms: C_21  and  C_22
REMARK    8  A    between atoms: N_25  and  C_26
REMARK    9  A    between atoms: C_29  and  C_30
REMARK                            x       y       z     vdW  Elec       q    Type
REMARK                         _______ _______ _______ _____ _____    ______ ____
ROOT
ATOM      1  N   UNL     1       2.578   7.480  18.749  0.00  0.00    +0.000 N 
ATOM      2  C   UNL     1       2.001   8.647  18.266  0.00  0.00    +0.000 C 
ATOM      3  O   UNL     1       2.161   9.084  17.133  0.00  0.00    +0.000 OA
ATOM      4  H   UNL     1       2.692   7.413  19.754  0.00  0.00    +0.000 HD
ENDROOT
BRANCH   1   8
ATOM      5  C   UNL     1       5.192   5.406  16.296  0.00  0.00    +0.000 A 
ATOM      6  N   UNL     1       5.259   6.748  16.308  0.00  0.00    +0.000 NA
ATOM      7  C   UNL     1       4.427   7.381  17.161  0.00  0.00    +0.000 A 
ATOM      8  C   UNL     1       3.503   6.740  17.969  0.00  0.00    +0.000 A 
ATOM      9  C   UNL     1       3.500   5.346  17.895  0.00  0.00    +0.000 A 
ATOM     10  N   UNL     1       4.327   4.685  17.040  0.00  0.00    +0.000 NA
BRANCH   9  11
ATOM     11  C   UNL     1       2.668   4.445  18.746  0.00  0.00    +0.000 A 
ATOM     12  C   UNL     1       1.695   3.611  18.162  0.00  0.00    +0.000 A 
ATOM     13  C   UNL     1       0.893   2.762  18.932  0.00  0.00    +0.000 A 
ATOM     14  C   UNL     1       1.033   2.732  20.314  0.00  0.00    +0.000 A 
ATOM     15  C   UNL     1       2.005   3.517  20.922  0.00  0.00    +0.000 A 
ATOM     16  C   UNL     1       2.831   4.333  20.142  0.00  0.00    +0.000 A 
ENDBRANCH   9  11
BRANCH   5  17
ATOM     17  C   UNL     1       6.079   4.657  15.322  0.00  0.00    +0.000 C 
BRANCH  17  21
ATOM     18  C   UNL     1       5.008   3.255  11.978  0.00  0.00    +0.000 C 
ATOM     19  C   UNL     1       5.926   3.866  12.998  0.00  0.00    +0.000 C 
ATOM     20  O   UNL     1       7.093   4.159  12.752  0.00  0.00    +0.000 OA
ATOM     21  N   UNL     1       5.339   4.060  14.224  0.00  0.00    +0.000 N 
ATOM     22  H   UNL     1       4.370   3.813  14.374  0.00  0.00    +0.000 HD
ENDBRANCH  17  21
ENDBRANCH   5  17
ENDBRANCH   1   8
BRANCH   2  23
ATOM     23  C   UNL     1       1.251   9.457  19.269  0.00  0.00    +0.000 A 
ATOM     24  C   UNL     1       0.464   8.803  20.215  0.00  0.00    +0.000 A 
ATOM     25  C   UNL     1      -0.247   9.544  21.161  0.00  0.00    +0.000 A 
ATOM     26  C   UNL     1      -0.204  10.957  21.178  0.00  0.00    +0.000 A 
ATOM     27  C   UNL     1       0.580  11.619  20.206  0.00  0.00    +0.000 A 
ATOM     28  C   UNL     1       1.315  10.853  19.276  0.00  0.00    +0.000 A 
BRANCH  27  29
ATOM     29  C   UNL     1       0.652  13.082  20.088  0.00  0.00    +0.000 A 
ATOM     30  C   UNL     1       1.651  13.949  20.616  0.00  0.00    +0.000 A 
ATOM     31  C   UNL     1       1.302  15.219  20.211  0.00  0.00    +0.000 A 
ATOM     32  N   UNL     1       0.165  15.060  19.477  0.00  0.00    +0.000 N 
ATOM     33  C   UNL     1      -0.563  16.088  18.771  0.00  0.00    +0.000 C 
ATOM     34  N   UNL     1      -0.265  13.790  19.419  0.00  0.00    +0.000 NA
ENDBRANCH  27  29
BRANCH  26  35
ATOM     35  C   UNL     1      -1.011  11.685  22.241  0.00  0.00    +0.000 C 
ATOM     36  F   UNL     1      -1.440  10.827  23.225  0.00  0.00    +0.000 F 
ATOM     37  F   UNL     1      -0.316  12.639  22.916  0.00  0.00    +0.000 F 
ATOM     38  F   UNL     1      -2.159  12.252  21.776  0.00  0.00    +0.000 F 
ENDBRANCH  26  35
ENDBRANCH   2  23
TORSDOF 7
ENDMDL
MODEL 7
REMARK VINA RESULT:      -9.0      1.448      1.926
REMARK  Name = 
REMARK  9 active torsions:
REMARK  status: ('A' for Active; 'I' for Inactive)
REMARK    1  A    between atoms: C_1  and  C_2
REMARK    2  A    between atoms: N_4  and  C_5
REMARK    3  A    between atoms: C_5  and  C_6
REMARK    4  A    between atoms: C_9  and  N_10
REMARK    5  A    between atoms: C_11  and  C_13
REMARK    6  A    between atoms: C_16  and  C_17
REMARK    7  A    between atoms: C_21  and  C_22
REMARK    8  A    between atoms: N_25  and  C_26
REMARK    9  A    between atoms: C_29  and  C_30
REMARK                            x       y       z     vdW  Elec       q    Type
REMARK                         _______ _______ _______ _____ _____    ______ ____
ROOT
ATOM      1  N   UNL     1       2.516   7.527  18.747  0.00  0.00    +0.000 N 
ATOM      2  C   UNL     1       1.988   8.714  18.257  0.00  0.00    +0.000 C 
ATOM      3  O   UNL     1       2.192   9.154  17.133  0.00  0.00    +0.000 OA
ATOM      4  H   UNL     1       2.600   7.449  19.754  0.00  0.00    +0.000 HD
ENDROOT
BRANCH   1   8
ATOM      5  C   UNL     1       5.127   5.385  16.350  0.00  0.00    +0.000 A 
ATOM      6  N   UNL     1       5.207   6.726  16.339  0.00  0.00    +0.000 NA
ATOM      7  C   UNL     1       4.375   7.383  17.175  0.00  0.00    +0.000 A 
ATOM      8  C   UNL     1       3.439   6.764  17.987  0.00  0.00    +0.000 A 
ATOM      9  C   UNL     1       3.424   5.369  17.938  0.00  0.00    +0.000 A 
ATOM     10  N   UNL     1       4.252   4.686  17.101  0.00  0.00    +0.000 NA
BRANCH   9  11
ATOM     11  C   UNL     1       2.579   4.491  18.799  0.00  0.00    +0.000 A 
ATOM     12  C   UNL     1       2.788   4.445  20.191  0.00  0.00    +0.000 A 
ATOM     13  C   UNL     1       2.019   3.626  21.026  0.00  0.00    +0.000 A 
ATOM     14  C   UNL     1       1.026   2.817  20.488  0.00  0.00    +0.000 A 
ATOM     15  C   UNL     1       0.770   2.861  19.123  0.00  0.00    +0.000 A 
ATOM     16  C   UNL     1       1.514   3.713  18.301  0.00  0.00    +0.000 A 
ENDBRANCH   9  11
BRANCH   5  17
ATOM     17  C   UNL     1       6.015   4.612  15.396  0.00  0.00    +0.000 C 
BRANCH  17  21
ATOM     18  C   UNL     1       4.952   3.265  12.027  0.00  0.00    +0.000 C 
ATOM     19  C   UNL     1       5.863   3.871  13.055  0.00  0.00    +0.000 C 
ATOM     20  O   UNL     1       7.021   4.196  12.809  0.00  0.00    +0.000 OA
ATOM     21  N   UNL     1       5.280   4.024  14.289  0.00  0.00    +0.000 N 
ATOM     22  H   UNL     1       4.318   3.752  14.439  0.00  0.00    +0.000 HD
ENDBRANCH  17  21
ENDBRANCH   5  17
ENDBRANCH   1   8
BRANCH   2  23
ATOM     23  C   UNL     1       1.235   9.539  19.246  0.00  0.00    +0.000 A 
ATOM     24  C   UNL     1       0.439   8.900  20.194  0.00  0.00    +0.000 A 
ATOM     25  C   UNL     1      -0.276   9.655  21.127  0.00  0.00    +0.000 A 
ATOM     26  C   UNL     1      -0.225  11.069  21.128  0.00  0.00    +0.000 A 
ATOM     27  C   UNL     1       0.568  11.716  20.154  0.00  0.00    +0.000 A 
ATOM     28  C   UNL     1       1.306  10.935  19.237  0.00  0.00    +0.000 A 
BRANCH  27  29
ATOM     29  C   UNL     1       0.648  13.176  20.019  0.00  0.00    +0.000 A 
ATOM     30  C   UNL     1       1.656  14.043  20.532  0.00  0.00    +0.000 A 
ATOM     31  C   UNL     1       1.312  15.311  20.116  0.00  0.00    +0.000 A 
ATOM     32  N   UNL     1       0.170  15.150  19.389  0.00  0.00    +0.000 N 
ATOM     33  C   UNL     1      -0.556  16.175  18.676  0.00  0.00    +0.000 C 
ATOM     34  N   UNL     1      -0.267  13.882  19.347  0.00  0.00    +0.000 NA
ENDBRANCH  27  29
BRANCH  26  35
ATOM     35  C   UNL     1      -1.036  11.812  22.177  0.00  0.00    +0.000 C 
ATOM     36  F   UNL     1      -0.304  12.815  22.764  0.00  0.00    +0.000 F 
ATOM     37  F   UNL     1      -2.134  12.449  21.688  0.00  0.00    +0.000 F 
ATOM     38  F   UNL     1      -1.431  11.037  23.225  0.00  0.00    +0.000 F 
ENDBRANCH  26  35
ENDBRANCH   2  23
TORSDOF 7
ENDMDL
MODEL 8
REMARK VINA RESULT:      -8.9      1.516      2.029
REMARK  Name = 
REMARK  9 active torsions:
REMARK  status: ('A' for Active; 'I' for Inactive)
REMARK    1  A    between atoms: C_1  and  C_2
REMARK    2  A    between atoms: N_4  and  C_5
REMARK    3  A    between atoms: C_5  and  C_6
REMARK    4  A    between atoms: C_9  and  N_10
REMARK    5  A    between atoms: C_11  and  C_13
REMARK    6  A    between atoms: C_16  and  C_17
REMARK    7  A    between atoms: C_21  and  C_22
REMARK    8  A    between atoms: N_25  and  C_26
REMARK    9  A    between atoms: C_29  and  C_30
REMARK                            x       y       z     vdW  Elec       q    Type
REMARK                         _______ _______ _______ _____ _____    ______ ____
ROOT
ATOM      1  N   UNL     1       2.971   7.347  18.989  0.00  0.00    +0.000 N 
ATOM      2  C   UNL     1       2.078   8.206  18.364  0.00  0.00    +0.000 C 
ATOM      3  O   UNL     1       1.898   8.263  17.154  0.00  0.00    +0.000 OA
ATOM      4  H   UNL     1       3.309   7.629  19.902  0.00  0.00    +0.000 HD
ENDROOT
BRANCH   1   8
ATOM      5  C   UNL     1       5.453   5.031  16.617  0.00  0.00    +0.000 A 
ATOM      6  N   UNL     1       5.735   6.338  16.747  0.00  0.00    +0.000 NA
ATOM      7  C   UNL     1       4.933   7.045  17.571  0.00  0.00    +0.000 A 
ATOM      8  C   UNL     1       3.839   6.515  18.237  0.00  0.00    +0.000 A 
ATOM      9  C   UNL     1       3.619   5.150  18.047  0.00  0.00    +0.000 A 
ATOM     10  N   UNL     1       4.412   4.418  17.218  0.00  0.00    +0.000 NA
BRANCH   9  11
ATOM     11  C   UNL     1       2.571   4.347  18.742  0.00  0.00    +0.000 A 
ATOM     12  C   UNL     1       1.854   3.355  18.046  0.00  0.00    +0.000 A 
ATOM     13  C   UNL     1       0.859   2.591  18.666  0.00  0.00    +0.000 A 
ATOM     14  C   UNL     1       0.543   2.808  20.001  0.00  0.00    +0.000 A 
ATOM     15  C   UNL     1       1.252   3.756  20.729  0.00  0.00    +0.000 A 
ATOM     16  C   UNL     1       2.273   4.487  20.114  0.00  0.00    +0.000 A 
ENDBRANCH   9  11
BRANCH   5  17
ATOM     17  C   UNL     1       6.304   4.210  15.668  0.00  0.00    +0.000 C 
BRANCH  17  21
ATOM     18  C   UNL     1       8.262   5.785  12.843  0.00  0.00    +0.000 C 
ATOM     19  C   UNL     1       7.263   4.879  13.504  0.00  0.00    +0.000 C 
ATOM     20  O   UNL     1       6.563   4.089  12.876  0.00  0.00    +0.000 OA
ATOM     21  N   UNL     1       7.205   5.022  14.868  0.00  0.00    +0.000 N 
ATOM     22  H   UNL     1       7.811   5.678  15.342  0.00  0.00    +0.000 HD
ENDBRANCH  17  21
ENDBRANCH   5  17
ENDBRANCH   1   8
BRANCH   2  23
ATOM     23  C   UNL     1       1.410   9.199  19.255  0.00  0.00    +0.000 A 
ATOM     24  C   UNL     1       0.817   8.758  20.436  0.00  0.00    +0.000 A 
ATOM     25  C   UNL     1       0.185   9.672  21.282  0.00  0.00    +0.000 A 
ATOM     26  C   UNL     1       0.115  11.048  20.964  0.00  0.00    +0.000 A 
ATOM     27  C   UNL     1       0.701  11.491  19.757  0.00  0.00    +0.000 A 
ATOM     28  C   UNL     1       1.361  10.558  18.928  0.00  0.00    +0.000 A 
BRANCH  27  29
ATOM     29  C   UNL     1       0.638  12.883  19.293  0.00  0.00    +0.000 A 
ATOM     30  C   UNL     1      -0.457  13.540  18.660  0.00  0.00    +0.000 A 
ATOM     31  C   UNL     1      -0.049  14.840  18.452  0.00  0.00    +0.000 A 
ATOM     32  N   UNL     1       1.213  14.904  18.962  0.00  0.00    +0.000 N 
ATOM     33  C   UNL     1       2.056  16.074  19.049  0.00  0.00    +0.000 C 
ATOM     34  N   UNL     1       1.660  13.732  19.440  0.00  0.00    +0.000 NA
ENDBRANCH  27  29
BRANCH  26  35
ATOM     35  C   UNL     1      -0.593  11.972  21.940  0.00  0.00    +0.000 C 
ATOM     36  F   UNL     1      -1.805  12.393  21.450  0.00  0.00    +0.000 F 
ATOM     37  F   UNL     1      -0.902  11.396  23.133  0.00  0.00    +0.000 F 
ATOM     38  F   UNL     1       0.078  13.130  22.195  0.00  0.00    +0.000 F 
ENDBRANCH  26  35
ENDBRANCH   2  23
TORSDOF 7
ENDMDL
MODEL 9
REMARK VINA RESULT:      -8.9      4.365     10.411
REMARK  Name = 
REMARK  9 active torsions:
REMARK  status: ('A' for Active; 'I' for Inactive)
REMARK    1  A    between atoms: C_1  and  C_2
REMARK    2  A    between atoms: N_4  and  C_5
REMARK    3  A    between atoms: C_5  and  C_6
REMARK    4  A    between atoms: C_9  and  N_10
REMARK    5  A    between atoms: C_11  and  C_13
REMARK    6  A    between atoms: C_16  and  C_17
REMARK    7  A    between atoms: C_21  and  C_22
REMARK    8  A    between atoms: N_25  and  C_26
REMARK    9  A    between atoms: C_29  and  C_30
REMARK                            x       y       z     vdW  Elec       q    Type
REMARK                         _______ _______ _______ _____ _____    ______ ____
ROOT
ATOM      1  N   UNL     1       0.481  10.056  19.232  0.00  0.00    +0.000 N 
ATOM      2  C   UNL     1       1.003   8.983  19.941  0.00  0.00    +0.000 C 
ATOM      3  O   UNL     1       0.841   8.797  21.140  0.00  0.00    +0.000 OA
ATOM      4  H   UNL     1       0.964  10.315  18.378  0.00  0.00    +0.000 HD
ENDROOT
BRANCH   1   8
ATOM      5  C   UNL     1      -1.568  12.983  21.325  0.00  0.00    +0.000 A 
ATOM      6  N   UNL     1      -0.347  12.628  21.758  0.00  0.00    +0.000 NA
ATOM      7  C   UNL     1       0.308  11.710  21.016  0.00  0.00    +0.000 A 
ATOM      8  C   UNL     1      -0.218  11.101  19.888  0.00  0.00    +0.000 A 
ATOM      9  C   UNL     1      -1.491  11.529  19.508  0.00  0.00    +0.000 A 
ATOM     10  N   UNL     1      -2.172  12.451  20.242  0.00  0.00    +0.000 NA
BRANCH   9  11
ATOM     11  C   UNL     1      -2.208  11.092  18.274  0.00  0.00    +0.000 A 
ATOM     12  C   UNL     1      -3.478  11.616  17.965  0.00  0.00    +0.000 A 
ATOM     13  C   UNL     1      -4.181  11.221  16.821  0.00  0.00    +0.000 A 
ATOM     14  C   UNL     1      -3.636  10.278  15.958  0.00  0.00    +0.000 A 
ATOM     15  C   UNL     1      -2.371   9.764  16.214  0.00  0.00    +0.000 A 
ATOM     16  C   UNL     1      -1.657  10.194  17.337  0.00  0.00    +0.000 A 
ENDBRANCH   9  11
BRANCH   5  17
ATOM     17  C   UNL     1      -2.355  13.980  22.153  0.00  0.00    +0.000 C 
BRANCH  17  21
ATOM     18  C   UNL     1      -4.422  12.276  24.821  0.00  0.00    +0.000 C 
ATOM     19  C   UNL     1      -4.062  12.776  23.451  0.00  0.00    +0.000 C 
ATOM     20  O   UNL     1      -4.789  12.619  22.474  0.00  0.00    +0.000 OA
ATOM     21  N   UNL     1      -2.850  13.418  23.398  0.00  0.00    +0.000 N 
ATOM     22  H   UNL     1      -2.293  13.533  24.234  0.00  0.00    +0.000 HD
ENDBRANCH  17  21
ENDBRANCH   5  17
ENDBRANCH   1   8
BRANCH   2  23
ATOM     23  C   UNL     1       1.924   8.094  19.175  0.00  0.00    +0.000 A 
ATOM     24  C   UNL     1       2.623   8.616  18.089  0.00  0.00    +0.000 A 
ATOM     25  C   UNL     1       3.488   7.799  17.359  0.00  0.00    +0.000 A 
ATOM     26  C   UNL     1       3.667   6.435  17.684  0.00  0.00    +0.000 A 
ATOM     27  C   UNL     1       2.944   5.901  18.775  0.00  0.00    +0.000 A 
ATOM     28  C   UNL     1       2.096   6.749  19.519  0.00  0.00    +0.000 A 
BRANCH  27  29
ATOM     29  C   UNL     1       3.002   4.487  19.166  0.00  0.00    +0.000 A 
ATOM     30  C   UNL     1       2.024   3.478  18.930  0.00  0.00    +0.000 A 
ATOM     31  C   UNL     1       2.549   2.314  19.450  0.00  0.00    +0.000 A 
ATOM     32  N   UNL     1       3.772   2.661  19.939  0.00  0.00    +0.000 N 
ATOM     33  C   UNL     1       4.752   1.780  20.530  0.00  0.00    +0.000 C 
ATOM     34  N   UNL     1       4.051   3.968  19.813  0.00  0.00    +0.000 NA
ENDBRANCH  27  29
BRANCH  26  35
ATOM     35  C   UNL     1       4.627   5.617  16.835  0.00  0.00    +0.000 C 
ATOM     36  F   UNL     1       4.985   6.286  15.690  0.00  0.00    +0.000 F 
ATOM     37  F   UNL     1       5.814   5.341  17.440  0.00  0.00    +0.000 F 
ATOM     38  F   UNL     1       4.105   4.444  16.381  0.00  0.00    +0.000 F 
ENDBRANCH  26  35
ENDBRANCH   2  23
TORSDOF 7
ENDMDL
