MODEL 1
REMARK VINA RESULT:      -7.9      0.000      0.000
REMARK  Name = 
REMARK  8 active torsions:
REMARK  status: ('A' for Active; 'I' for Inactive)
REMARK    1  A    between atoms: C_1  and  C_2
REMARK    2  A    between atoms: C_2  and  C_3
REMARK    3  A    between atoms: C_2  and  N_23
REMARK    4  A    between atoms: C_3  and  C_4
REMARK    5  A    between atoms: C_7  and  C_8
REMARK    6  A    between atoms: C_9  and  C_10
REMARK    7  A    between atoms: N_14  and  C_15
REMARK    8  A    between atoms: C_24  and  C_26
REMARK                            x       y       z     vdW  Elec       q    Type
REMARK                         _______ _______ _______ _____ _____    ______ ____
ROOT
ATOM      1  C   UNL     1      11.156  12.587  19.415  0.00  0.00    +0.000 A 
ATOM      2  C   UNL     1      10.535  11.874  20.450  0.00  0.00    +0.000 A 
ATOM      3  C   UNL     1       9.743  10.751  20.169  0.00  0.00    +0.000 A 
ATOM      4  C   UNL     1       9.570  10.321  18.852  0.00  0.00    +0.000 A 
ATOM      5  C   UNL     1      10.161  11.044  17.815  0.00  0.00    +0.000 A 
ATOM      6  C   UNL     1      10.944  12.169  18.093  0.00  0.00    +0.000 A 
ENDROOT
BRANCH   4   7
ATOM      7  C   UNL     1       8.823   9.130  18.556  0.00  0.00    +0.000 C 
ATOM      8  C   UNL     1       8.159   8.149  18.357  0.00  0.00    +0.000 C 
BRANCH   8   9
ATOM      9  C   UNL     1       7.342   6.992  18.160  0.00  0.00    +0.000 A 
ATOM     10  C   UNL     1       7.323   5.931  19.034  0.00  0.00    +0.000 A 
ATOM     11  N   UNL     1       6.550   4.834  18.871  0.00  0.00    +0.000 NA
ATOM     12  C   UNL     1       5.783   4.784  17.772  0.00  0.00    +0.000 A 
ATOM     13  N   UNL     1       4.978   3.675  17.527  0.00  0.00    +0.000 N 
ATOM     14  N   UNL     1       5.736   5.761  16.852  0.00  0.00    +0.000 NA
ATOM     15  C   UNL     1       6.514   6.847  17.070  0.00  0.00    +0.000 A 
ATOM     16  H   UNL     1       4.380   3.900  16.741  0.00  0.00    +0.000 HD
BRANCH  13  17
ATOM     17  C   UNL     1       4.416   2.853  18.548  0.00  0.00    +0.000 C 
ATOM     18  C   UNL     1       3.241   3.530  19.293  0.00  0.00    +0.000 C 
ATOM     19  C   UNL     1       2.471   2.201  19.168  0.00  0.00    +0.000 C 
ATOM     20  C   UNL     1       3.390   1.842  17.984  0.00  0.00    +0.000 C 
ENDBRANCH  13  17
ENDBRANCH   8   9
ENDBRANCH   4   7
BRANCH   1  21
ATOM     21  C   UNL     1      12.032  13.790  19.704  0.00  0.00    +0.000 C 
BRANCH  21  23
ATOM     22  C   UNL     1      11.994  16.308  20.025  0.00  0.00    +0.000 C 
ATOM     23  C   UNL     1      11.470  15.137  19.184  0.00  0.00    +0.000 C 
BRANCH  23  24
ATOM     24  N   UNL     1      10.009  15.176  19.100  0.00  0.00    +0.000 N 
ATOM     25  C   UNL     1       9.336  15.813  18.088  0.00  0.00    +0.000 C 
ATOM     26  O   UNL     1       9.878  16.401  17.164  0.00  0.00    +0.000 OA
ATOM     27  H   UNL     1       9.486  14.805  19.879  0.00  0.00    +0.000 HD
BRANCH  25  28
ATOM     28  C   UNL     1       7.848  15.812  18.146  0.00  0.00    +0.000 C 
ATOM     29  C   UNL     1       6.995  15.746  19.387  0.00  0.00    +0.000 C 
ATOM     30  C   UNL     1       7.122  17.042  18.639  0.00  0.00    +0.000 C 
ENDBRANCH  25  28
ENDBRANCH  23  24
ENDBRANCH  21  23
ENDBRANCH   1  21
TORSDOF 7
ENDMDL
MODEL 2
REMARK VINA RESULT:      -7.9      3.440     11.433
REMARK  Name = 
REMARK  8 active torsions:
REMARK  status: ('A' for Active; 'I' for Inactive)
REMARK    1  A    between atoms: C_1  and  C_2
REMARK    2  A    between atoms: C_2  and  C_3
REMARK    3  A    between atoms: C_2  and  N_23
REMARK    4  A    between atoms: C_3  and  C_4
REMARK    5  A    between atoms: C_7  and  C_8
REMARK    6  A    between atoms: C_9  and  C_10
REMARK    7  A    between atoms: N_14  and  C_15
REMARK    8  A    between atoms: C_24  and  C_26
REMARK                            x       y       z     vdW  Elec       q    Type
REMARK                         _______ _______ _______ _____ _____    ______ ____
ROOT
ATOM      1  C   UNL     1       5.563   4.906  17.020  0.00  0.00    +0.000 A 
ATOM      2  C   UNL     1       6.754   4.798  17.752  0.00  0.00    +0.000 A 
ATOM      3  C   UNL     1       7.530   5.935  18.027  0.00  0.00    +0.000 A 
ATOM      4  C   UNL     1       7.119   7.193  17.583  0.00  0.00    +0.000 A 
ATOM      5  C   UNL     1       5.950   7.303  16.828  0.00  0.00    +0.000 A 
ATOM      6  C   UNL     1       5.181   6.168  16.546  0.00  0.00    +0.000 A 
ENDROOT
BRANCH   4   7
ATOM      7  C   UNL     1       7.864   8.374  17.919  0.00  0.00    +0.000 C 
ATOM      8  C   UNL     1       8.511   9.330  18.250  0.00  0.00    +0.000 C 
BRANCH   8   9
ATOM      9  C   UNL     1       9.298  10.444  18.683  0.00  0.00    +0.000 A 
ATOM     10  C   UNL     1       9.953  11.282  17.813  0.00  0.00    +0.000 A 
ATOM     11  N   UNL     1      10.692  12.345  18.202  0.00  0.00    +0.000 NA
ATOM     12  C   UNL     1      10.801  12.564  19.521  0.00  0.00    +0.000 A 
ATOM     13  N   UNL     1      11.564  13.627  19.996  0.00  0.00    +0.000 N 
ATOM     14  N   UNL     1      10.210  11.800  20.454  0.00  0.00    +0.000 NA
ATOM     15  C   UNL     1       9.466  10.759  20.013  0.00  0.00    +0.000 A 
ATOM     16  H   UNL     1      11.394  13.703  20.991  0.00  0.00    +0.000 HD
BRANCH  13  17
ATOM     17  C   UNL     1      11.768  14.846  19.284  0.00  0.00    +0.000 C 
ATOM     18  C   UNL     1      10.481  15.694  19.150  0.00  0.00    +0.000 C 
ATOM     19  C   UNL     1      11.320  16.926  19.538  0.00  0.00    +0.000 C 
ATOM     20  C   UNL     1      12.331  15.964  20.191  0.00  0.00    +0.000 C 
ENDBRANCH  13  17
ENDBRANCH   8   9
ENDBRANCH   4   7
BRANCH   1  21
ATOM     21  C   UNL     1       4.704   3.690  16.734  0.00  0.00    +0.000 C 
BRANCH  21  23
ATOM     22  C   UNL     1       3.931   1.412  17.546  0.00  0.00    +0.000 C 
ATOM     23  C   UNL     1       4.402   2.809  17.972  0.00  0.00    +0.000 C 
BRANCH  23  24
ATOM     24  N   UNL     1       3.451   3.409  18.909  0.00  0.00    +0.000 N 
ATOM     25  C   UNL     1       3.412   3.087  20.242  0.00  0.00    +0.000 C 
ATOM     26  O   UNL     1       4.157   2.281  20.777  0.00  0.00    +0.000 OA
ATOM     27  H   UNL     1       2.732   4.005  18.527  0.00  0.00    +0.000 HD
BRANCH  25  28
ATOM     28  C   UNL     1       2.366   3.741  21.076  0.00  0.00    +0.000 C 
ATOM     29  C   UNL     1       0.973   4.120  20.641  0.00  0.00    +0.000 C 
ATOM     30  C   UNL     1       1.175   2.936  21.543  0.00  0.00    +0.000 C 
ENDBRANCH  25  28
ENDBRANCH  23  24
ENDBRANCH  21  23
ENDBRANCH   1  21
TORSDOF 7
ENDMDL
MODEL 3
REMARK VINA RESULT:      -7.8      3.262     11.032
REMARK  Name = 
REMARK  8 active torsions:
REMARK  status: ('A' for Active; 'I' for Inactive)
REMARK    1  A    between atoms: C_1  and  C_2
REMARK    2  A    between atoms: C_2  and  C_3
REMARK    3  A    between atoms: C_2  and  N_23
REMARK    4  A    between atoms: C_3  and  C_4
REMARK    5  A    between atoms: C_7  and  C_8
REMARK    6  A    between atoms: C_9  and  C_10
REMARK    7  A    between atoms: N_14  and  C_15
REMARK    8  A    between atoms: C_24  and  C_26
REMARK                            x       y       z     vdW  Elec       q    Type
REMARK                         _______ _______ _______ _____ _____    ______ ____
ROOT
ATOM      1  C   UNL     1       5.572   4.819  17.126  0.00  0.00    +0.000 A 
ATOM      2  C   UNL     1       6.840   4.695  17.711  0.00  0.00    +0.000 A 
ATOM      3  C   UNL     1       7.625   5.830  17.963  0.00  0.00    +0.000 A 
ATOM      4  C   UNL     1       7.148   7.103  17.643  0.00  0.00    +0.000 A 
ATOM      5  C   UNL     1       5.899   7.230  17.032  0.00  0.00    +0.000 A 
ATOM      6  C   UNL     1       5.120   6.098  16.773  0.00  0.00    +0.000 A 
ENDROOT
BRANCH   4   7
ATOM      7  C   UNL     1       7.909   8.278  17.962  0.00  0.00    +0.000 C 
ATOM      8  C   UNL     1       8.529   9.254  18.290  0.00  0.00    +0.000 C 
BRANCH   8   9
ATOM      9  C   UNL     1       9.250  10.409  18.726  0.00  0.00    +0.000 A 
ATOM     10  C   UNL     1       9.770  11.340  17.857  0.00  0.00    +0.000 A 
ATOM     11  N   UNL     1      10.445  12.443  18.251  0.00  0.00    +0.000 NA
ATOM     12  C   UNL     1      10.631  12.610  19.568  0.00  0.00    +0.000 A 
ATOM     13  N   UNL     1      11.335  13.712  20.044  0.00  0.00    +0.000 N 
ATOM     14  N   UNL     1      10.173  11.756  20.498  0.00  0.00    +0.000 NA
ATOM     15  C   UNL     1       9.487  10.676  20.055  0.00  0.00    +0.000 A 
ATOM     16  H   UNL     1      11.232  13.727  21.052  0.00  0.00    +0.000 HD
BRANCH  13  17
ATOM     17  C   UNL     1      11.387  14.975  19.385  0.00  0.00    +0.000 C 
ATOM     18  C   UNL     1      10.072  15.780  19.512  0.00  0.00    +0.000 C 
ATOM     19  C   UNL     1      10.929  17.019  19.835  0.00  0.00    +0.000 C 
ATOM     20  C   UNL     1      12.060  16.061  20.256  0.00  0.00    +0.000 C 
ENDBRANCH  13  17
ENDBRANCH   8   9
ENDBRANCH   4   7
BRANCH   1  21
ATOM     21  C   UNL     1       4.703   3.603  16.868  0.00  0.00    +0.000 C 
BRANCH  21  23
ATOM     22  C   UNL     1       3.231   1.748  17.782  0.00  0.00    +0.000 C 
ATOM     23  C   UNL     1       4.087   2.969  18.140  0.00  0.00    +0.000 C 
BRANCH  23  24
ATOM     24  N   UNL     1       3.323   3.910  18.961  0.00  0.00    +0.000 N 
ATOM     25  C   UNL     1       2.119   4.438  18.569  0.00  0.00    +0.000 C 
ATOM     26  O   UNL     1       1.566   4.177  17.511  0.00  0.00    +0.000 OA
ATOM     27  H   UNL     1       3.760   4.258  19.802  0.00  0.00    +0.000 HD
BRANCH  25  28
ATOM     28  C   UNL     1       1.468   5.417  19.482  0.00  0.00    +0.000 C 
ATOM     29  C   UNL     1       1.840   5.697  20.915  0.00  0.00    +0.000 C 
ATOM     30  C   UNL     1       2.194   6.691  19.847  0.00  0.00    +0.000 C 
ENDBRANCH  25  28
ENDBRANCH  23  24
ENDBRANCH  21  23
ENDBRANCH   1  21
TORSDOF 7
ENDMDL
MODEL 4
REMARK VINA RESULT:      -7.8      0.666      1.216
REMARK  Name = 
REMARK  8 active torsions:
REMARK  status: ('A' for Active; 'I' for Inactive)
REMARK    1  A    between atoms: C_1  and  C_2
REMARK    2  A    between atoms: C_2  and  C_3
REMARK    3  A    between atoms: C_2  and  N_23
REMARK    4  A    between atoms: C_3  and  C_4
REMARK    5  A    between atoms: C_7  and  C_8
REMARK    6  A    between atoms: C_9  and  C_10
REMARK    7  A    between atoms: N_14  and  C_15
REMARK    8  A    between atoms: C_24  and  C_26
REMARK                            x       y       z     vdW  Elec       q    Type
REMARK                         _______ _______ _______ _____ _____    ______ ____
ROOT
ATOM      1  C   UNL     1      10.818  12.705  19.436  0.00  0.00    +0.000 A 
ATOM      2  C   UNL     1      10.631  12.293  18.109  0.00  0.00    +0.000 A 
ATOM      3  C   UNL     1       9.986  11.081  17.822  0.00  0.00    +0.000 A 
ATOM      4  C   UNL     1       9.513  10.271  18.856  0.00  0.00    +0.000 A 
ATOM      5  C   UNL     1       9.724  10.660  20.179  0.00  0.00    +0.000 A 
ATOM      6  C   UNL     1      10.374  11.865  20.467  0.00  0.00    +0.000 A 
ENDROOT
BRANCH   4   7
ATOM      7  C   UNL     1       8.787   9.063  18.574  0.00  0.00    +0.000 C 
ATOM      8  C   UNL     1       8.132   8.076  18.375  0.00  0.00    +0.000 C 
BRANCH   8   9
ATOM      9  C   UNL     1       7.319   6.918  18.169  0.00  0.00    +0.000 A 
ATOM     10  C   UNL     1       7.286   5.860  19.047  0.00  0.00    +0.000 A 
ATOM     11  N   UNL     1       6.516   4.762  18.875  0.00  0.00    +0.000 NA
ATOM     12  C   UNL     1       5.766   4.708  17.764  0.00  0.00    +0.000 A 
ATOM     13  N   UNL     1       4.965   3.598  17.510  0.00  0.00    +0.000 N 
ATOM     14  N   UNL     1       5.734   5.682  16.840  0.00  0.00    +0.000 NA
ATOM     15  C   UNL     1       6.509   6.769  17.066  0.00  0.00    +0.000 A 
ATOM     16  H   UNL     1       4.380   3.821  16.714  0.00  0.00    +0.000 HD
BRANCH  13  17
ATOM     17  C   UNL     1       4.387   2.780  18.524  0.00  0.00    +0.000 C 
ATOM     18  C   UNL     1       3.227   3.475  19.276  0.00  0.00    +0.000 C 
ATOM     19  C   UNL     1       2.429   2.164  19.141  0.00  0.00    +0.000 C 
ATOM     20  C   UNL     1       3.340   1.796  17.954  0.00  0.00    +0.000 C 
ENDBRANCH  13  17
ENDBRANCH   8   9
ENDBRANCH   4   7
BRANCH   1  21
ATOM     21  C   UNL     1      11.494  14.023  19.762  0.00  0.00    +0.000 C 
BRANCH  21  23
ATOM     22  C   UNL     1      11.154  16.501  20.199  0.00  0.00    +0.000 C 
ATOM     23  C   UNL     1      10.655  15.279  19.416  0.00  0.00    +0.000 C 
BRANCH  23  24
ATOM     24  N   UNL     1       9.215  15.101  19.604  0.00  0.00    +0.000 N 
ATOM     25  C   UNL     1       8.276  15.711  18.811  0.00  0.00    +0.000 C 
ATOM     26  O   UNL     1       8.543  16.453  17.878  0.00  0.00    +0.000 OA
ATOM     27  H   UNL     1       8.909  14.588  20.418  0.00  0.00    +0.000 HD
BRANCH  25  28
ATOM     28  C   UNL     1       6.843  15.477  19.138  0.00  0.00    +0.000 C 
ATOM     29  C   UNL     1       5.662  16.256  18.619  0.00  0.00    +0.000 C 
ATOM     30  C   UNL     1       5.930  14.875  18.095  0.00  0.00    +0.000 C 
ENDBRANCH  25  28
ENDBRANCH  23  24
ENDBRANCH  21  23
ENDBRANCH   1  21
TORSDOF 7
ENDMDL
MODEL 5
REMARK VINA RESULT:      -7.8      3.479     11.133
REMARK  Name = 
REMARK  8 active torsions:
REMARK  status: ('A' for Active; 'I' for Inactive)
REMARK    1  A    between atoms: C_1  and  C_2
REMARK    2  A    between atoms: C_2  and  C_3
REMARK    3  A    between atoms: C_2  and  N_23
REMARK    4  A    between atoms: C_3  and  C_4
REMARK    5  A    between atoms: C_7  and  C_8
REMARK    6  A    between atoms: C_9  and  C_10
REMARK    7  A    between atoms: N_14  and  C_15
REMARK    8  A    between atoms: C_24  and  C_26
REMARK                            x       y       z     vdW  Elec       q    Type
REMARK                         _______ _______ _______ _____ _____    ______ ____
ROOT
ATOM      1  C   UNL     1       5.772   4.823  17.008  0.00  0.00    +0.000 A 
ATOM      2  C   UNL     1       6.898   4.782  17.841  0.00  0.00    +0.000 A 
ATOM      3  C   UNL     1       7.606   5.955  18.144  0.00  0.00    +0.000 A 
ATOM      4  C   UNL     1       7.192   7.183  17.627  0.00  0.00    +0.000 A 
ATOM      5  C   UNL     1       6.089   7.227  16.772  0.00  0.00    +0.000 A 
ATOM      6  C   UNL     1       5.387   6.056  16.463  0.00  0.00    +0.000 A 
ENDROOT
BRANCH   4   7
ATOM      7  C   UNL     1       7.863   8.401  17.988  0.00  0.00    +0.000 C 
ATOM      8  C   UNL     1       8.478   9.394  18.269  0.00  0.00    +0.000 C 
BRANCH   8   9
ATOM      9  C   UNL     1       9.252  10.552  18.590  0.00  0.00    +0.000 A 
ATOM     10  C   UNL     1       9.325  11.655  17.771  0.00  0.00    +0.000 A 
ATOM     11  N   UNL     1      10.042  12.763  18.063  0.00  0.00    +0.000 NA
ATOM     12  C   UNL     1      10.738  12.759  19.210  0.00  0.00    +0.000 A 
ATOM     13  N   UNL     1      11.516  13.857  19.564  0.00  0.00    +0.000 N 
ATOM     14  N   UNL     1      10.742  11.730  20.073  0.00  0.00    +0.000 NA
ATOM     15  C   UNL     1       9.994  10.651  19.745  0.00  0.00    +0.000 A 
ATOM     16  H   UNL     1      11.829  13.713  20.516  0.00  0.00    +0.000 HD
BRANCH  13  17
ATOM     17  C   UNL     1      11.229  15.199  19.177  0.00  0.00    +0.000 C 
ATOM     18  C   UNL     1      11.870  16.251  20.113  0.00  0.00    +0.000 C 
ATOM     19  C   UNL     1      12.307  17.022  18.853  0.00  0.00    +0.000 C 
ATOM     20  C   UNL     1      12.180  15.703  18.067  0.00  0.00    +0.000 C 
ENDBRANCH  13  17
ENDBRANCH   8   9
ENDBRANCH   4   7
BRANCH   1  21
ATOM     21  C   UNL     1       4.983   3.568  16.688  0.00  0.00    +0.000 C 
BRANCH  21  23
ATOM     22  C   UNL     1       2.793   2.382  17.180  0.00  0.00    +0.000 C 
ATOM     23  C   UNL     1       3.980   3.140  17.788  0.00  0.00    +0.000 C 
BRANCH  23  24
ATOM     24  N   UNL     1       3.511   4.246  18.625  0.00  0.00    +0.000 N 
ATOM     25  C   UNL     1       3.133   4.084  19.934  0.00  0.00    +0.000 C 
ATOM     26  O   UNL     1       3.152   3.016  20.529  0.00  0.00    +0.000 OA
ATOM     27  H   UNL     1       3.365   5.140  18.180  0.00  0.00    +0.000 HD
BRANCH  25  28
ATOM     28  C   UNL     1       2.635   5.285  20.659  0.00  0.00    +0.000 C 
ATOM     29  C   UNL     1       2.152   6.573  20.042  0.00  0.00    +0.000 C 
ATOM     30  C   UNL     1       1.159   5.612  20.631  0.00  0.00    +0.000 C 
ENDBRANCH  25  28
ENDBRANCH  23  24
ENDBRANCH  21  23
ENDBRANCH   1  21
TORSDOF 7
ENDMDL
MODEL 6
REMARK VINA RESULT:      -7.8      3.377     11.135
REMARK  Name = 
REMARK  8 active torsions:
REMARK  status: ('A' for Active; 'I' for Inactive)
REMARK    1  A    between atoms: C_1  and  C_2
REMARK    2  A    between atoms: C_2  and  C_3
REMARK    3  A    between atoms: C_2  and  N_23
REMARK    4  A    between atoms: C_3  and  C_4
REMARK    5  A    between atoms: C_7  and  C_8
REMARK    6  A    between atoms: C_9  and  C_10
REMARK    7  A    between atoms: N_14  and  C_15
REMARK    8  A    between atoms: C_24  and  C_26
REMARK                            x       y       z     vdW  Elec       q    Type
REMARK                         _______ _______ _______ _____ _____    ______ ____
ROOT
ATOM      1  C   UNL     1       5.649   4.927  17.003  0.00  0.00    +0.000 A 
ATOM      2  C   UNL     1       5.187   6.191  16.612  0.00  0.00    +0.000 A 
ATOM      3  C   UNL     1       5.907   7.349  16.942  0.00  0.00    +0.000 A 
ATOM      4  C   UNL     1       7.102   7.256  17.657  0.00  0.00    +0.000 A 
ATOM      5  C   UNL     1       7.552   6.003  18.076  0.00  0.00    +0.000 A 
ATOM      6  C   UNL     1       6.830   4.849  17.755  0.00  0.00    +0.000 A 
ENDROOT
BRANCH   4   7
ATOM      7  C   UNL     1       7.888   8.426  17.938  0.00  0.00    +0.000 C 
ATOM      8  C   UNL     1       8.492   9.432  18.196  0.00  0.00    +0.000 C 
BRANCH   8   9
ATOM      9  C   UNL     1       9.170  10.649  18.519  0.00  0.00    +0.000 A 
ATOM     10  C   UNL     1       8.983  11.818  17.820  0.00  0.00    +0.000 A 
ATOM     11  N   UNL     1       9.605  12.981  18.117  0.00  0.00    +0.000 NA
ATOM     12  C   UNL     1      10.472  12.968  19.141  0.00  0.00    +0.000 A 
ATOM     13  N   UNL     1      11.165  14.123  19.489  0.00  0.00    +0.000 N 
ATOM     14  N   UNL     1      10.733  11.877  19.880  0.00  0.00    +0.000 NA
ATOM     15  C   UNL     1      10.071  10.742  19.555  0.00  0.00    +0.000 A 
ATOM     16  H   UNL     1      11.642  13.940  20.363  0.00  0.00    +0.000 HD
BRANCH  13  17
ATOM     17  C   UNL     1      10.668  15.445  19.293  0.00  0.00    +0.000 C 
ATOM     18  C   UNL     1       9.630  15.867  20.360  0.00  0.00    +0.000 C 
ATOM     19  C   UNL     1      10.367  17.216  20.461  0.00  0.00    +0.000 C 
ATOM     20  C   UNL     1      11.613  16.517  19.882  0.00  0.00    +0.000 C 
ENDBRANCH  13  17
ENDBRANCH   8   9
ENDBRANCH   4   7
BRANCH   1  21
ATOM     21  C   UNL     1       4.892   3.665  16.636  0.00  0.00    +0.000 C 
BRANCH  21  23
ATOM     22  C   UNL     1       2.915   2.182  17.217  0.00  0.00    +0.000 C 
ATOM     23  C   UNL     1       4.027   3.077  17.779  0.00  0.00    +0.000 C 
BRANCH  23  24
ATOM     24  N   UNL     1       3.470   4.087  18.680  0.00  0.00    +0.000 N 
ATOM     25  C   UNL     1       3.173   3.832  19.995  0.00  0.00    +0.000 C 
ATOM     26  O   UNL     1       3.343   2.754  20.543  0.00  0.00    +0.000 OA
ATOM     27  H   UNL     1       3.200   4.973  18.279  0.00  0.00    +0.000 HD
BRANCH  25  28
ATOM     28  C   UNL     1       2.570   4.938  20.790  0.00  0.00    +0.000 C 
ATOM     29  C   UNL     1       2.137   6.286  20.273  0.00  0.00    +0.000 C 
ATOM     30  C   UNL     1       1.102   5.257  20.627  0.00  0.00    +0.000 C 
ENDBRANCH  25  28
ENDBRANCH  23  24
ENDBRANCH  21  23
ENDBRANCH   1  21
TORSDOF 7
ENDMDL
MODEL 7
REMARK VINA RESULT:      -7.3      1.699      2.299
REMARK  Name = 
REMARK  8 active torsions:
REMARK  status: ('A' for Active; 'I' for Inactive)
REMARK    1  A    between atoms: C_1  and  C_2
REMARK    2  A    between atoms: C_2  and  C_3
REMARK    3  A    between atoms: C_2  and  N_23
REMARK    4  A    between atoms: C_3  and  C_4
REMARK    5  A    between atoms: C_7  and  C_8
REMARK    6  A    between atoms: C_9  and  C_10
REMARK    7  A    between atoms: N_14  and  C_15
REMARK    8  A    between atoms: C_24  and  C_26
REMARK                            x       y       z     vdW  Elec       q    Type
REMARK                         _______ _______ _______ _____ _____    ______ ____
ROOT
ATOM      1  C   UNL     1      10.523  13.126  18.347  0.00  0.00    +0.000 A 
ATOM      2  C   UNL     1       9.224  13.043  17.826  0.00  0.00    +0.000 A 
ATOM      3  C   UNL     1       8.576  11.803  17.717  0.00  0.00    +0.000 A 
ATOM      4  C   UNL     1       9.214  10.634  18.136  0.00  0.00    +0.000 A 
ATOM      5  C   UNL     1      10.518  10.707  18.627  0.00  0.00    +0.000 A 
ATOM      6  C   UNL     1      11.169  11.941  18.728  0.00  0.00    +0.000 A 
ENDROOT
BRANCH   4   7
ATOM      7  C   UNL     1       8.535   9.368  18.098  0.00  0.00    +0.000 C 
ATOM      8  C   UNL     1       7.930   8.334  18.022  0.00  0.00    +0.000 C 
BRANCH   8   9
ATOM      9  C   UNL     1       7.179   7.123  17.898  0.00  0.00    +0.000 A 
ATOM     10  C   UNL     1       7.280   6.085  18.793  0.00  0.00    +0.000 A 
ATOM     11  N   UNL     1       6.570   4.937  18.699  0.00  0.00    +0.000 NA
ATOM     12  C   UNL     1       5.744   4.813  17.651  0.00  0.00    +0.000 A 
ATOM     13  N   UNL     1       4.998   3.650  17.478  0.00  0.00    +0.000 N 
ATOM     14  N   UNL     1       5.580   5.763  16.716  0.00  0.00    +0.000 NA
ATOM     15  C   UNL     1       6.298   6.900  16.864  0.00  0.00    +0.000 A 
ATOM     16  H   UNL     1       4.341   3.819  16.726  0.00  0.00    +0.000 HD
BRANCH  13  17
ATOM     17  C   UNL     1       4.552   2.820  18.548  0.00  0.00    +0.000 C 
ATOM     18  C   UNL     1       3.440   3.475  19.401  0.00  0.00    +0.000 C 
ATOM     19  C   UNL     1       2.688   2.131  19.350  0.00  0.00    +0.000 C 
ATOM     20  C   UNL     1       3.497   1.788  18.084  0.00  0.00    +0.000 C 
ENDBRANCH  13  17
ENDBRANCH   8   9
ENDBRANCH   4   7
BRANCH   1  21
ATOM     21  C   UNL     1      11.228  14.461  18.491  0.00  0.00    +0.000 C 
BRANCH  21  23
ATOM     22  C   UNL     1      12.042  16.089  20.260  0.00  0.00    +0.000 C 
ATOM     23  C   UNL     1      10.854  15.252  19.768  0.00  0.00    +0.000 C 
BRANCH  23  24
ATOM     24  N   UNL     1      10.329  14.418  20.851  0.00  0.00    +0.000 N 
ATOM     25  C   UNL     1       9.178  14.717  21.534  0.00  0.00    +0.000 C 
ATOM     26  O   UNL     1       8.480  15.695  21.311  0.00  0.00    +0.000 OA
ATOM     27  H   UNL     1      10.902  13.649  21.167  0.00  0.00    +0.000 HD
BRANCH  25  28
ATOM     28  C   UNL     1       8.779  13.805  22.642  0.00  0.00    +0.000 C 
ATOM     29  C   UNL     1       7.560  12.919  22.684  0.00  0.00    +0.000 C 
ATOM     30  C   UNL     1       8.915  12.310  22.460  0.00  0.00    +0.000 C 
ENDBRANCH  25  28
ENDBRANCH  23  24
ENDBRANCH  21  23
ENDBRANCH   1  21
TORSDOF 7
ENDMDL
MODEL 8
REMARK VINA RESULT:      -7.2      7.636     11.968
REMARK  Name = 
REMARK  8 active torsions:
REMARK  status: ('A' for Active; 'I' for Inactive)
REMARK    1  A    between atoms: C_1  and  C_2
REMARK    2  A    between atoms: C_2  and  C_3
REMARK    3  A    between atoms: C_2  and  N_23
REMARK    4  A    between atoms: C_3  and  C_4
REMARK    5  A    between atoms: C_7  and  C_8
REMARK    6  A    between atoms: C_9  and  C_10
REMARK    7  A    between atoms: N_14  and  C_15
REMARK    8  A    between atoms: C_24  and  C_26
REMARK                            x       y       z     vdW  Elec       q    Type
REMARK                         _______ _______ _______ _____ _____    ______ ____
ROOT
ATOM      1  C   UNL     1       4.494   6.034  18.110  0.00  0.00    +0.000 A 
ATOM      2  C   UNL     1       4.248   7.096  17.228  0.00  0.00    +0.000 A 
ATOM      3  C   UNL     1       3.222   8.017  17.489  0.00  0.00    +0.000 A 
ATOM      4  C   UNL     1       2.439   7.895  18.637  0.00  0.00    +0.000 A 
ATOM      5  C   UNL     1       2.659   6.823  19.503  0.00  0.00    +0.000 A 
ATOM      6  C   UNL     1       3.676   5.898  19.240  0.00  0.00    +0.000 A 
ENDROOT
BRANCH   4   7
ATOM      7  C   UNL     1       1.435   8.873  18.954  0.00  0.00    +0.000 C 
ATOM      8  C   UNL     1       0.559   9.665  19.173  0.00  0.00    +0.000 C 
BRANCH   8   9
ATOM      9  C   UNL     1      -0.508  10.590  19.396  0.00  0.00    +0.000 A 
ATOM     10  C   UNL     1      -0.753  11.172  20.617  0.00  0.00    +0.000 A 
ATOM     11  N   UNL     1      -1.750  12.056  20.845  0.00  0.00    +0.000 NA
ATOM     12  C   UNL     1      -2.553  12.352  19.812  0.00  0.00    +0.000 A 
ATOM     13  N   UNL     1      -3.614  13.238  19.979  0.00  0.00    +0.000 N 
ATOM     14  N   UNL     1      -2.407  11.832  18.583  0.00  0.00    +0.000 NA
ATOM     15  C   UNL     1      -1.382  10.966  18.401  0.00  0.00    +0.000 A 
ATOM     16  H   UNL     1      -3.993  13.435  19.060  0.00  0.00    +0.000 HD
BRANCH  13  17
ATOM     17  C   UNL     1      -3.622  14.309  20.920  0.00  0.00    +0.000 C 
ATOM     18  C   UNL     1      -4.801  15.289  20.715  0.00  0.00    +0.000 C 
ATOM     19  C   UNL     1      -5.023  15.252  22.239  0.00  0.00    +0.000 C 
ATOM     20  C   UNL     1      -4.278  13.903  22.260  0.00  0.00    +0.000 C 
ENDBRANCH  13  17
ENDBRANCH   8   9
ENDBRANCH   4   7
BRANCH   1  21
ATOM     21  C   UNL     1       5.612   5.042  17.853  0.00  0.00    +0.000 C 
BRANCH  21  23
ATOM     22  C   UNL     1       5.508   4.106  15.495  0.00  0.00    +0.000 C 
ATOM     23  C   UNL     1       5.210   3.831  16.975  0.00  0.00    +0.000 C 
BRANCH  23  24
ATOM     24  N   UNL     1       3.819   3.409  17.150  0.00  0.00    +0.000 N 
ATOM     25  C   UNL     1       3.407   2.602  18.180  0.00  0.00    +0.000 C 
ATOM     26  O   UNL     1       4.147   2.162  19.047  0.00  0.00    +0.000 OA
ATOM     27  H   UNL     1       3.164   3.642  16.418  0.00  0.00    +0.000 HD
BRANCH  25  28
ATOM     28  C   UNL     1       1.970   2.213  18.216  0.00  0.00    +0.000 C 
ATOM     29  C   UNL     1       1.055   2.257  19.413  0.00  0.00    +0.000 C 
ATOM     30  C   UNL     1       0.911   3.286  18.328  0.00  0.00    +0.000 C 
ENDBRANCH  25  28
ENDBRANCH  23  24
ENDBRANCH  21  23
ENDBRANCH   1  21
TORSDOF 7
ENDMDL
MODEL 9
REMARK VINA RESULT:      -7.2      3.044     10.538
REMARK  Name = 
REMARK  8 active torsions:
REMARK  status: ('A' for Active; 'I' for Inactive)
REMARK    1  A    between atoms: C_1  and  C_2
REMARK    2  A    between atoms: C_2  and  C_3
REMARK    3  A    between atoms: C_2  and  N_23
REMARK    4  A    between atoms: C_3  and  C_4
REMARK    5  A    between atoms: C_7  and  C_8
REMARK    6  A    between atoms: C_9  and  C_10
REMARK    7  A    between atoms: N_14  and  C_15
REMARK    8  A    between atoms: C_24  and  C_26
REMARK                            x       y       z     vdW  Elec       q    Type
REMARK                         _______ _______ _______ _____ _____    ______ ____
ROOT
ATOM      1  C   UNL     1       6.463   5.309  17.640  0.00  0.00    +0.000 A 
ATOM      2  C   UNL     1       6.144   6.409  16.830  0.00  0.00    +0.000 A 
ATOM      3  C   UNL     1       6.779   7.645  17.022  0.00  0.00    +0.000 A 
ATOM      4  C   UNL     1       7.747   7.795  18.017  0.00  0.00    +0.000 A 
ATOM      5  C   UNL     1       8.047   6.713  18.846  0.00  0.00    +0.000 A 
ATOM      6  C   UNL     1       7.408   5.482  18.661  0.00  0.00    +0.000 A 
ENDROOT
BRANCH   4   7
ATOM      7  C   UNL     1       8.457   9.033  18.176  0.00  0.00    +0.000 C 
ATOM      8  C   UNL     1       8.997  10.099  18.297  0.00  0.00    +0.000 C 
BRANCH   8   9
ATOM      9  C   UNL     1       9.598  11.391  18.429  0.00  0.00    +0.000 A 
ATOM     10  C   UNL     1       9.101  12.514  17.810  0.00  0.00    +0.000 A 
ATOM     11  N   UNL     1       9.648  13.744  17.931  0.00  0.00    +0.000 NA
ATOM     12  C   UNL     1      10.754  13.852  18.682  0.00  0.00    +0.000 A 
ATOM     13  N   UNL     1      11.384  15.084  18.833  0.00  0.00    +0.000 N 
ATOM     14  N   UNL     1      11.324  12.816  19.320  0.00  0.00    +0.000 NA
ATOM     15  C   UNL     1      10.728  11.608  19.183  0.00  0.00    +0.000 A 
ATOM     16  H   UNL     1      12.096  14.976  19.545  0.00  0.00    +0.000 HD
BRANCH  13  17
ATOM     17  C   UNL     1      10.709  16.339  18.784  0.00  0.00    +0.000 C 
ATOM     18  C   UNL     1       9.979  16.583  17.442  0.00  0.00    +0.000 C 
ATOM     19  C   UNL     1       8.768  17.076  18.255  0.00  0.00    +0.000 C 
ATOM     20  C   UNL     1       9.317  16.279  19.454  0.00  0.00    +0.000 C 
ENDBRANCH  13  17
ENDBRANCH   8   9
ENDBRANCH   4   7
BRANCH   1  21
ATOM     21  C   UNL     1       5.801   3.961  17.431  0.00  0.00    +0.000 C 
BRANCH  21  23
ATOM     22  C   UNL     1       3.732   2.508  17.658  0.00  0.00    +0.000 C 
ATOM     23  C   UNL     1       4.395   3.829  18.068  0.00  0.00    +0.000 C 
BRANCH  23  24
ATOM     24  N   UNL     1       3.508   4.959  17.787  0.00  0.00    +0.000 N 
ATOM     25  C   UNL     1       3.131   5.868  18.743  0.00  0.00    +0.000 C 
ATOM     26  O   UNL     1       3.494   5.831  19.909  0.00  0.00    +0.000 OA
ATOM     27  H   UNL     1       3.080   5.001  16.874  0.00  0.00    +0.000 HD
BRANCH  25  28
ATOM     28  C   UNL     1       2.190   6.947  18.332  0.00  0.00    +0.000 C 
ATOM     29  C   UNL     1       1.961   8.259  19.037  0.00  0.00    +0.000 C 
ATOM     30  C   UNL     1       2.737   8.230  17.751  0.00  0.00    +0.000 C 
ENDBRANCH  25  28
ENDBRANCH  23  24
ENDBRANCH  21  23
ENDBRANCH   1  21
TORSDOF 7
ENDMDL
