MODEL 1
REMARK VINA RESULT:      -7.8      0.000      0.000
REMARK  Name = 
REMARK  8 active torsions:
REMARK  status: ('A' for Active; 'I' for Inactive)
REMARK    1  A    between atoms: C_1  and  O_2
REMARK    2  A    between atoms: O_2  and  C_3
REMARK    3  A    between atoms: C_8  and  C_9
REMARK    4  A    between atoms: C_9  and  O_11
REMARK    5  A    between atoms: O_11  and  C_12
REMARK    6  A    between atoms: C_12  and  C_13
REMARK    7  A    between atoms: C_13  and  C_14
REMARK    8  A    between atoms: C_14  and  N_15
REMARK                            x       y       z     vdW  Elec       q    Type
REMARK                         _______ _______ _______ _____ _____    ______ ____
ROOT
ATOM      1  C   UNL     1       2.391   6.618  19.947  0.00  0.00    +0.000 C 
ENDROOT
BRANCH   1   2
ATOM      2  N   UNL     1       1.568   7.434  20.877  0.00  0.00    +0.000 N 
ATOM      3  C   UNL     1       1.032   8.651  20.498  0.00  0.00    +0.000 C 
ATOM      4  N   UNL     1       1.228   9.099  19.287  0.00  0.00    +0.000 NA
ATOM      5  S   UNL     1       0.639  10.593  19.094  0.00  0.00    +0.000 S 
ATOM      6  O   UNL     1       1.709  11.536  18.860  0.00  0.00    +0.000 OA
ATOM      7  O   UNL     1      -0.572  10.565  18.289  0.00  0.00    +0.000 OA
ATOM      8  C   UNL     1       0.126  10.805  20.733  0.00  0.00    +0.000 A 
ATOM      9  C   UNL     1      -0.420  11.960  21.272  0.00  0.00    +0.000 A 
ATOM     10  C   UNL     1      -0.973  11.856  22.541  0.00  0.00    +0.000 A 
ATOM     11  C   UNL     1      -0.980  10.609  23.196  0.00  0.00    +0.000 A 
ATOM     12  C   UNL     1      -0.347   9.469  22.634  0.00  0.00    +0.000 A 
ATOM     13  C   UNL     1       0.259   9.591  21.394  0.00  0.00    +0.000 A 
ATOM     14  H   UNL     1       1.679   7.223  21.863  0.00  0.00    +0.000 HD
ENDBRANCH   1   2
BRANCH   1  15
ATOM     15  C   UNL     1       2.148   5.102  20.089  0.00  0.00    +0.000 C 
BRANCH  15  16
ATOM     16  C   UNL     1       1.746   4.390  18.779  0.00  0.00    +0.000 C 
BRANCH  16  17
ATOM     17  O   UNL     1       2.792   4.534  17.772  0.00  0.00    +0.000 OA
BRANCH  17  18
ATOM     18  C   UNL     1       3.819   3.643  17.820  0.00  0.00    +0.000 C 
ATOM     19  O   UNL     1       3.655   2.432  17.869  0.00  0.00    +0.000 OA
BRANCH  18  25
ATOM     20  C   UNL     1       6.166   4.244  16.843  0.00  0.00    +0.000 A 
ATOM     21  C   UNL     1       7.425   4.840  17.072  0.00  0.00    +0.000 A 
ATOM     22  C   UNL     1       7.726   5.471  18.280  0.00  0.00    +0.000 A 
ATOM     23  C   UNL     1       6.782   5.489  19.292  0.00  0.00    +0.000 A 
ATOM     24  C   UNL     1       5.542   4.874  19.094  0.00  0.00    +0.000 A 
ATOM     25  C   UNL     1       5.201   4.248  17.871  0.00  0.00    +0.000 A 
BRANCH  20  27
ATOM     26  C   UNL     1       5.807   4.466  14.515  0.00  0.00    +0.000 C 
ATOM     27  O   UNL     1       5.876   3.617  15.659  0.00  0.00    +0.000 OA
ENDBRANCH  20  27
ENDBRANCH  18  25
ENDBRANCH  17  18
ENDBRANCH  16  17
ENDBRANCH  15  16
ENDBRANCH   1  15
TORSDOF 7
ENDMDL
MODEL 2
REMARK VINA RESULT:      -7.6      1.491      2.240
REMARK  Name = 
REMARK  8 active torsions:
REMARK  status: ('A' for Active; 'I' for Inactive)
REMARK    1  A    between atoms: C_1  and  O_2
REMARK    2  A    between atoms: O_2  and  C_3
REMARK    3  A    between atoms: C_8  and  C_9
REMARK    4  A    between atoms: C_9  and  O_11
REMARK    5  A    between atoms: O_11  and  C_12
REMARK    6  A    between atoms: C_12  and  C_13
REMARK    7  A    between atoms: C_13  and  C_14
REMARK    8  A    between atoms: C_14  and  N_15
REMARK                            x       y       z     vdW  Elec       q    Type
REMARK                         _______ _______ _______ _____ _____    ______ ____
ROOT
ATOM      1  C   UNL     1       2.142   8.381  18.040  0.00  0.00    +0.000 C 
ENDROOT
BRANCH   1   2
ATOM      2  N   UNL     1       1.510   8.645  19.358  0.00  0.00    +0.000 N 
ATOM      3  C   UNL     1       0.591   9.662  19.534  0.00  0.00    +0.000 C 
ATOM      4  N   UNL     1       0.242  10.406  18.520  0.00  0.00    +0.000 NA
ATOM      5  S   UNL     1      -0.732  11.618  18.967  0.00  0.00    +0.000 S 
ATOM      6  O   UNL     1      -0.079  12.893  18.775  0.00  0.00    +0.000 OA
ATOM      7  O   UNL     1      -2.096  11.363  18.534  0.00  0.00    +0.000 OA
ATOM      8  C   UNL     1      -0.689  11.276  20.662  0.00  0.00    +0.000 A 
ATOM      9  C   UNL     1      -1.288  12.030  21.660  0.00  0.00    +0.000 A 
ATOM     10  C   UNL     1      -1.329  11.468  22.928  0.00  0.00    +0.000 A 
ATOM     11  C   UNL     1      -0.799  10.179  23.135  0.00  0.00    +0.000 A 
ATOM     12  C   UNL     1      -0.132   9.473  22.099  0.00  0.00    +0.000 A 
ATOM     13  C   UNL     1      -0.038  10.064  20.848  0.00  0.00    +0.000 A 
ATOM     14  H   UNL     1       2.001   8.271  20.164  0.00  0.00    +0.000 HD
ENDBRANCH   1   2
BRANCH   1  15
ATOM     15  C   UNL     1       3.108   7.179  18.056  0.00  0.00    +0.000 C 
BRANCH  15  16
ATOM     16  C   UNL     1       2.596   5.953  18.842  0.00  0.00    +0.000 C 
BRANCH  16  17
ATOM     17  O   UNL     1       2.701   4.742  18.035  0.00  0.00    +0.000 OA
BRANCH  17  18
ATOM     18  C   UNL     1       3.767   3.931  18.279  0.00  0.00    +0.000 C 
ATOM     19  O   UNL     1       3.777   3.086  19.164  0.00  0.00    +0.000 OA
BRANCH  18  25
ATOM     20  C   UNL     1       6.242   4.643  17.848  0.00  0.00    +0.000 A 
ATOM     21  C   UNL     1       7.266   4.843  16.898  0.00  0.00    +0.000 A 
ATOM     22  C   UNL     1       7.076   4.555  15.546  0.00  0.00    +0.000 A 
ATOM     23  C   UNL     1       5.845   4.090  15.116  0.00  0.00    +0.000 A 
ATOM     24  C   UNL     1       4.809   3.917  16.039  0.00  0.00    +0.000 A 
ATOM     25  C   UNL     1       4.982   4.179  17.419  0.00  0.00    +0.000 A 
BRANCH  20  27
ATOM     26  C   UNL     1       7.580   5.724  19.472  0.00  0.00    +0.000 C 
ATOM     27  O   UNL     1       6.429   4.936  19.173  0.00  0.00    +0.000 OA
ENDBRANCH  20  27
ENDBRANCH  18  25
ENDBRANCH  17  18
ENDBRANCH  16  17
ENDBRANCH  15  16
ENDBRANCH   1  15
TORSDOF 7
ENDMDL
MODEL 3
REMARK VINA RESULT:      -7.5      2.861      8.775
REMARK  Name = 
REMARK  8 active torsions:
REMARK  status: ('A' for Active; 'I' for Inactive)
REMARK    1  A    between atoms: C_1  and  O_2
REMARK    2  A    between atoms: O_2  and  C_3
REMARK    3  A    between atoms: C_8  and  C_9
REMARK    4  A    between atoms: C_9  and  O_11
REMARK    5  A    between atoms: O_11  and  C_12
REMARK    6  A    between atoms: C_12  and  C_13
REMARK    7  A    between atoms: C_13  and  C_14
REMARK    8  A    between atoms: C_14  and  N_15
REMARK                            x       y       z     vdW  Elec       q    Type
REMARK                         _______ _______ _______ _____ _____    ______ ____
ROOT
ATOM      1  C   UNL     1       1.535   7.144  21.048  0.00  0.00    +0.000 C 
ENDROOT
BRANCH   1   2
ATOM      2  N   UNL     1       2.453   7.201  19.881  0.00  0.00    +0.000 N 
ATOM      3  C   UNL     1       2.640   6.113  19.049  0.00  0.00    +0.000 C 
ATOM      4  N   UNL     1       1.984   5.006  19.266  0.00  0.00    +0.000 NA
ATOM      5  S   UNL     1       2.449   3.822  18.267  0.00  0.00    +0.000 S 
ATOM      6  O   UNL     1       3.092   2.758  19.005  0.00  0.00    +0.000 OA
ATOM      7  O   UNL     1       1.430   3.573  17.260  0.00  0.00    +0.000 OA
ATOM      8  C   UNL     1       3.699   4.722  17.480  0.00  0.00    +0.000 A 
ATOM      9  C   UNL     1       4.575   4.233  16.523  0.00  0.00    +0.000 A 
ATOM     10  C   UNL     1       5.353   5.166  15.853  0.00  0.00    +0.000 A 
ATOM     11  C   UNL     1       5.203   6.536  16.147  0.00  0.00    +0.000 A 
ATOM     12  C   UNL     1       4.344   6.985  17.184  0.00  0.00    +0.000 A 
ATOM     13  C   UNL     1       3.614   6.044  17.895  0.00  0.00    +0.000 A 
ATOM     14  H   UNL     1       3.153   7.935  19.908  0.00  0.00    +0.000 HD
ENDBRANCH   1   2
BRANCH   1  15
ATOM     15  C   UNL     1       1.156   8.535  21.594  0.00  0.00    +0.000 C 
BRANCH  15  16
ATOM     16  C   UNL     1       0.179   9.332  20.704  0.00  0.00    +0.000 C 
BRANCH  16  17
ATOM     17  O   UNL     1       0.762   9.580  19.390  0.00  0.00    +0.000 OA
BRANCH  17  18
ATOM     18  C   UNL     1       0.423  10.746  18.777  0.00  0.00    +0.000 C 
ATOM     19  O   UNL     1       1.224  11.642  18.551  0.00  0.00    +0.000 OA
BRANCH  18  25
ATOM     20  C   UNL     1      -1.964  11.769  19.052  0.00  0.00    +0.000 A 
ATOM     21  C   UNL     1      -3.309  11.765  18.623  0.00  0.00    +0.000 A 
ATOM     22  C   UNL     1      -3.741  10.949  17.577  0.00  0.00    +0.000 A 
ATOM     23  C   UNL     1      -2.839  10.098  16.961  0.00  0.00    +0.000 A 
ATOM     24  C   UNL     1      -1.510  10.065  17.396  0.00  0.00    +0.000 A 
ATOM     25  C   UNL     1      -1.040  10.899  18.438  0.00  0.00    +0.000 A 
BRANCH  20  27
ATOM     26  C   UNL     1      -1.276  13.924  19.745  0.00  0.00    +0.000 C 
ATOM     27  O   UNL     1      -1.546  12.565  20.086  0.00  0.00    +0.000 OA
ENDBRANCH  20  27
ENDBRANCH  18  25
ENDBRANCH  17  18
ENDBRANCH  16  17
ENDBRANCH  15  16
ENDBRANCH   1  15
TORSDOF 7
ENDMDL
MODEL 4
REMARK VINA RESULT:      -7.5      2.054      3.129
REMARK  Name = 
REMARK  8 active torsions:
REMARK  status: ('A' for Active; 'I' for Inactive)
REMARK    1  A    between atoms: C_1  and  O_2
REMARK    2  A    between atoms: O_2  and  C_3
REMARK    3  A    between atoms: C_8  and  C_9
REMARK    4  A    between atoms: C_9  and  O_11
REMARK    5  A    between atoms: O_11  and  C_12
REMARK    6  A    between atoms: C_12  and  C_13
REMARK    7  A    between atoms: C_13  and  C_14
REMARK    8  A    between atoms: C_14  and  N_15
REMARK                            x       y       z     vdW  Elec       q    Type
REMARK                         _______ _______ _______ _____ _____    ______ ____
ROOT
ATOM      1  C   UNL     1       2.641   5.091  20.269  0.00  0.00    +0.000 C 
ENDROOT
BRANCH   1   2
ATOM      2  N   UNL     1       2.473   6.368  19.530  0.00  0.00    +0.000 N 
ATOM      3  C   UNL     1       1.858   7.465  20.103  0.00  0.00    +0.000 C 
ATOM      4  N   UNL     1       1.429   7.401  21.334  0.00  0.00    +0.000 NA
ATOM      5  S   UNL     1       0.622   8.737  21.763  0.00  0.00    +0.000 S 
ATOM      6  O   UNL     1      -0.770   8.434  22.005  0.00  0.00    +0.000 OA
ATOM      7  O   UNL     1       1.419   9.544  22.672  0.00  0.00    +0.000 OA
ATOM      8  C   UNL     1       0.713   9.512  20.219  0.00  0.00    +0.000 A 
ATOM      9  C   UNL     1       0.120  10.719  19.879  0.00  0.00    +0.000 A 
ATOM     10  C   UNL     1       0.496  11.280  18.667  0.00  0.00    +0.000 A 
ATOM     11  C   UNL     1       1.459  10.630  17.869  0.00  0.00    +0.000 A 
ATOM     12  C   UNL     1       1.986   9.361  18.225  0.00  0.00    +0.000 A 
ATOM     13  C   UNL     1       1.562   8.774  19.407  0.00  0.00    +0.000 A 
ATOM     14  H   UNL     1       2.535   6.302  18.519  0.00  0.00    +0.000 HD
ENDBRANCH   1   2
BRANCH   1  15
ATOM     15  C   UNL     1       1.732   3.960  19.748  0.00  0.00    +0.000 C 
BRANCH  15  16
ATOM     16  C   UNL     1       1.521   3.957  18.219  0.00  0.00    +0.000 C 
BRANCH  16  17
ATOM     17  O   UNL     1       2.728   4.400  17.530  0.00  0.00    +0.000 OA
BRANCH  17  18
ATOM     18  C   UNL     1       3.676   3.455  17.282  0.00  0.00    +0.000 C 
ATOM     19  O   UNL     1       3.525   2.269  17.541  0.00  0.00    +0.000 OA
BRANCH  18  25
ATOM     20  C   UNL     1       6.097   4.421  17.439  0.00  0.00    +0.000 A 
ATOM     21  C   UNL     1       7.228   4.898  16.741  0.00  0.00    +0.000 A 
ATOM     22  C   UNL     1       7.279   4.900  15.346  0.00  0.00    +0.000 A 
ATOM     23  C   UNL     1       6.185   4.454  14.625  0.00  0.00    +0.000 A 
ATOM     24  C   UNL     1       5.045   4.008  15.300  0.00  0.00    +0.000 A 
ATOM     25  C   UNL     1       4.975   3.973  16.713  0.00  0.00    +0.000 A 
BRANCH  20  27
ATOM     26  C   UNL     1       6.824   5.440  19.446  0.00  0.00    +0.000 C 
ATOM     27  O   UNL     1       6.047   4.428  18.808  0.00  0.00    +0.000 OA
ENDBRANCH  20  27
ENDBRANCH  18  25
ENDBRANCH  17  18
ENDBRANCH  16  17
ENDBRANCH  15  16
ENDBRANCH   1  15
TORSDOF 7
ENDMDL
MODEL 5
REMARK VINA RESULT:      -7.5      4.681      6.261
REMARK  Name = 
REMARK  8 active torsions:
REMARK  status: ('A' for Active; 'I' for Inactive)
REMARK    1  A    between atoms: C_1  and  O_2
REMARK    2  A    between atoms: O_2  and  C_3
REMARK    3  A    between atoms: C_8  and  C_9
REMARK    4  A    between atoms: C_9  and  O_11
REMARK    5  A    between atoms: O_11  and  C_12
REMARK    6  A    between atoms: C_12  and  C_13
REMARK    7  A    between atoms: C_13  and  C_14
REMARK    8  A    between atoms: C_14  and  N_15
REMARK                            x       y       z     vdW  Elec       q    Type
REMARK                         _______ _______ _______ _____ _____    ______ ____
ROOT
ATOM      1  C   UNL     1       6.920   4.468  18.289  0.00  0.00    +0.000 C 
ENDROOT
BRANCH   1   2
ATOM      2  N   UNL     1       5.922   3.896  19.228  0.00  0.00    +0.000 N 
ATOM      3  C   UNL     1       4.568   3.908  18.948  0.00  0.00    +0.000 C 
ATOM      4  N   UNL     1       4.142   4.413  17.822  0.00  0.00    +0.000 NA
ATOM      5  S   UNL     1       2.526   4.455  17.753  0.00  0.00    +0.000 S 
ATOM      6  O   UNL     1       2.053   5.821  17.731  0.00  0.00    +0.000 OA
ATOM      7  O   UNL     1       2.027   3.438  16.842  0.00  0.00    +0.000 OA
ATOM      8  C   UNL     1       2.255   3.850  19.351  0.00  0.00    +0.000 A 
ATOM      9  C   UNL     1       1.022   3.710  19.970  0.00  0.00    +0.000 A 
ATOM     10  C   UNL     1       0.998   2.998  21.161  0.00  0.00    +0.000 A 
ATOM     11  C   UNL     1       2.192   2.440  21.661  0.00  0.00    +0.000 A 
ATOM     12  C   UNL     1       3.443   2.669  21.029  0.00  0.00    +0.000 A 
ATOM     13  C   UNL     1       3.472   3.433  19.873  0.00  0.00    +0.000 A 
ATOM     14  H   UNL     1       6.231   3.790  20.189  0.00  0.00    +0.000 HD
ENDBRANCH   1   2
BRANCH   1  15
ATOM     15  C   UNL     1       7.279   5.935  18.600  0.00  0.00    +0.000 C 
BRANCH  15  16
ATOM     16  C   UNL     1       7.370   6.851  17.361  0.00  0.00    +0.000 C 
BRANCH  16  17
ATOM     17  O   UNL     1       7.412   6.060  16.136  0.00  0.00    +0.000 OA
BRANCH  17  18
ATOM     18  C   UNL     1       6.287   6.050  15.370  0.00  0.00    +0.000 C 
ATOM     19  O   UNL     1       5.304   6.735  15.616  0.00  0.00    +0.000 OA
BRANCH  18  25
ATOM     20  C   UNL     1       7.297   4.953  13.227  0.00  0.00    +0.000 A 
ATOM     21  C   UNL     1       7.133   4.004  12.195  0.00  0.00    +0.000 A 
ATOM     22  C   UNL     1       6.023   3.160  12.147  0.00  0.00    +0.000 A 
ATOM     23  C   UNL     1       5.040   3.273  13.116  0.00  0.00    +0.000 A 
ATOM     24  C   UNL     1       5.171   4.230  14.127  0.00  0.00    +0.000 A 
ATOM     25  C   UNL     1       6.298   5.082  14.213  0.00  0.00    +0.000 A 
BRANCH  20  27
ATOM     26  C   UNL     1       8.719   6.417  12.031  0.00  0.00    +0.000 C 
ATOM     27  O   UNL     1       8.384   5.786  13.266  0.00  0.00    +0.000 OA
ENDBRANCH  20  27
ENDBRANCH  18  25
ENDBRANCH  17  18
ENDBRANCH  16  17
ENDBRANCH  15  16
ENDBRANCH   1  15
TORSDOF 7
ENDMDL
MODEL 6
REMARK VINA RESULT:      -7.5      2.792      8.800
REMARK  Name = 
REMARK  8 active torsions:
REMARK  status: ('A' for Active; 'I' for Inactive)
REMARK    1  A    between atoms: C_1  and  O_2
REMARK    2  A    between atoms: O_2  and  C_3
REMARK    3  A    between atoms: C_8  and  C_9
REMARK    4  A    between atoms: C_9  and  O_11
REMARK    5  A    between atoms: O_11  and  C_12
REMARK    6  A    between atoms: C_12  and  C_13
REMARK    7  A    between atoms: C_13  and  C_14
REMARK    8  A    between atoms: C_14  and  N_15
REMARK                            x       y       z     vdW  Elec       q    Type
REMARK                         _______ _______ _______ _____ _____    ______ ____
ROOT
ATOM      1  C   UNL     1       2.704   8.355  17.700  0.00  0.00    +0.000 C 
ENDROOT
BRANCH   1   2
ATOM      2  N   UNL     1       2.352   7.314  18.698  0.00  0.00    +0.000 N 
ATOM      3  C   UNL     1       3.155   6.208  18.911  0.00  0.00    +0.000 C 
ATOM      4  N   UNL     1       4.267   6.073  18.241  0.00  0.00    +0.000 NA
ATOM      5  S   UNL     1       4.982   4.653  18.538  0.00  0.00    +0.000 S 
ATOM      6  O   UNL     1       4.989   3.829  17.350  0.00  0.00    +0.000 OA
ATOM      7  O   UNL     1       6.159   4.838  19.371  0.00  0.00    +0.000 OA
ATOM      8  C   UNL     1       3.745   4.035  19.578  0.00  0.00    +0.000 A 
ATOM      9  C   UNL     1       3.711   2.767  20.138  0.00  0.00    +0.000 A 
ATOM     10  C   UNL     1       2.756   2.543  21.119  0.00  0.00    +0.000 A 
ATOM     11  C   UNL     1       1.902   3.593  21.511  0.00  0.00    +0.000 A 
ATOM     12  C   UNL     1       1.926   4.855  20.859  0.00  0.00    +0.000 A 
ATOM     13  C   UNL     1       2.841   5.056  19.837  0.00  0.00    +0.000 A 
ATOM     14  H   UNL     1       1.377   7.282  18.976  0.00  0.00    +0.000 HD
ENDBRANCH   1   2
BRANCH   1  15
ATOM     15  C   UNL     1       1.946   9.682  17.909  0.00  0.00    +0.000 C 
BRANCH  15  16
ATOM     16  C   UNL     1       0.839   9.627  18.983  0.00  0.00    +0.000 C 
BRANCH  16  17
ATOM     17  O   UNL     1      -0.119  10.710  18.794  0.00  0.00    +0.000 OA
BRANCH  17  18
ATOM     18  C   UNL     1       0.042  11.817  19.569  0.00  0.00    +0.000 C 
ATOM     19  O   UNL     1       0.870  12.686  19.333  0.00  0.00    +0.000 OA
BRANCH  18  25
ATOM     20  C   UNL     1      -0.550  11.348  22.069  0.00  0.00    +0.000 A 
ATOM     21  C   UNL     1      -1.500  11.482  23.104  0.00  0.00    +0.000 A 
ATOM     22  C   UNL     1      -2.700  12.168  22.911  0.00  0.00    +0.000 A 
ATOM     23  C   UNL     1      -2.984  12.706  21.668  0.00  0.00    +0.000 A 
ATOM     24  C   UNL     1      -2.068  12.554  20.622  0.00  0.00    +0.000 A 
ATOM     25  C   UNL     1      -0.834  11.884  20.796  0.00  0.00    +0.000 A 
BRANCH  20  27
ATOM     26  C   UNL     1       0.487   9.341  22.770  0.00  0.00    +0.000 C 
ATOM     27  O   UNL     1       0.623  10.666  22.259  0.00  0.00    +0.000 OA
ENDBRANCH  20  27
ENDBRANCH  18  25
ENDBRANCH  17  18
ENDBRANCH  16  17
ENDBRANCH  15  16
ENDBRANCH   1  15
TORSDOF 7
ENDMDL
MODEL 7
REMARK VINA RESULT:      -7.5      1.799      3.282
REMARK  Name = 
REMARK  8 active torsions:
REMARK  status: ('A' for Active; 'I' for Inactive)
REMARK    1  A    between atoms: C_1  and  O_2
REMARK    2  A    between atoms: O_2  and  C_3
REMARK    3  A    between atoms: C_8  and  C_9
REMARK    4  A    between atoms: C_9  and  O_11
REMARK    5  A    between atoms: O_11  and  C_12
REMARK    6  A    between atoms: C_12  and  C_13
REMARK    7  A    between atoms: C_13  and  C_14
REMARK    8  A    between atoms: C_14  and  N_15
REMARK                            x       y       z     vdW  Elec       q    Type
REMARK                         _______ _______ _______ _____ _____    ______ ____
ROOT
ATOM      1  C   UNL     1       2.512   8.308  17.690  0.00  0.00    +0.000 C 
ENDROOT
BRANCH   1   2
ATOM      2  N   UNL     1       1.961   8.429  19.065  0.00  0.00    +0.000 N 
ATOM      3  C   UNL     1       0.960   9.332  19.370  0.00  0.00    +0.000 C 
ATOM      4  N   UNL     1       0.459  10.090  18.434  0.00  0.00    +0.000 NA
ATOM      5  S   UNL     1      -0.595  11.166  19.025  0.00  0.00    +0.000 S 
ATOM      6  O   UNL     1      -0.092  12.511  18.868  0.00  0.00    +0.000 OA
ATOM      7  O   UNL     1      -1.956  10.791  18.677  0.00  0.00    +0.000 OA
ATOM      8  C   UNL     1      -0.385  10.736  20.688  0.00  0.00    +0.000 A 
ATOM      9  C   UNL     1      -0.977  11.366  21.772  0.00  0.00    +0.000 A 
ATOM     10  C   UNL     1      -0.862  10.734  23.002  0.00  0.00    +0.000 A 
ATOM     11  C   UNL     1      -0.189   9.498  23.088  0.00  0.00    +0.000 A 
ATOM     12  C   UNL     1       0.463   8.926  21.964  0.00  0.00    +0.000 A 
ATOM     13  C   UNL     1       0.398   9.592  20.750  0.00  0.00    +0.000 A 
ATOM     14  H   UNL     1       2.549   8.065  19.808  0.00  0.00    +0.000 HD
ENDBRANCH   1   2
BRANCH   1  15
ATOM     15  C   UNL     1       3.899   7.636  17.646  0.00  0.00    +0.000 C 
BRANCH  15  16
ATOM     16  C   UNL     1       3.884   6.158  17.204  0.00  0.00    +0.000 C 
BRANCH  16  17
ATOM     17  O   UNL     1       5.026   5.440  17.762  0.00  0.00    +0.000 OA
BRANCH  17  18
ATOM     18  C   UNL     1       4.886   4.946  19.022  0.00  0.00    +0.000 C 
ATOM     19  O   UNL     1       5.815   4.854  19.812  0.00  0.00    +0.000 OA
BRANCH  18  25
ATOM     20  C   UNL     1       2.872   3.289  18.890  0.00  0.00    +0.000 A 
ATOM     21  C   UNL     1       1.558   2.989  19.311  0.00  0.00    +0.000 A 
ATOM     22  C   UNL     1       0.883   3.794  20.230  0.00  0.00    +0.000 A 
ATOM     23  C   UNL     1       1.499   4.932  20.719  0.00  0.00    +0.000 A 
ATOM     24  C   UNL     1       2.788   5.263  20.288  0.00  0.00    +0.000 A 
ATOM     25  C   UNL     1       3.505   4.452  19.376  0.00  0.00    +0.000 A 
BRANCH  20  27
ATOM     26  C   UNL     1       3.828   1.178  18.419  0.00  0.00    +0.000 C 
ATOM     27  O   UNL     1       3.529   2.502  17.982  0.00  0.00    +0.000 OA
ENDBRANCH  20  27
ENDBRANCH  18  25
ENDBRANCH  17  18
ENDBRANCH  16  17
ENDBRANCH  15  16
ENDBRANCH   1  15
TORSDOF 7
ENDMDL
MODEL 8
REMARK VINA RESULT:      -7.4      1.047      1.842
REMARK  Name = 
REMARK  8 active torsions:
REMARK  status: ('A' for Active; 'I' for Inactive)
REMARK    1  A    between atoms: C_1  and  O_2
REMARK    2  A    between atoms: O_2  and  C_3
REMARK    3  A    between atoms: C_8  and  C_9
REMARK    4  A    between atoms: C_9  and  O_11
REMARK    5  A    between atoms: O_11  and  C_12
REMARK    6  A    between atoms: C_12  and  C_13
REMARK    7  A    between atoms: C_13  and  C_14
REMARK    8  A    between atoms: C_14  and  N_15
REMARK                            x       y       z     vdW  Elec       q    Type
REMARK                         _______ _______ _______ _____ _____    ______ ____
ROOT
ATOM      1  C   UNL     1       2.320   6.747  20.104  0.00  0.00    +0.000 C 
ENDROOT
BRANCH   1   2
ATOM      2  N   UNL     1       1.480   7.583  21.000  0.00  0.00    +0.000 N 
ATOM      3  C   UNL     1       0.964   8.798  20.590  0.00  0.00    +0.000 C 
ATOM      4  N   UNL     1       1.194   9.227  19.378  0.00  0.00    +0.000 NA
ATOM      5  S   UNL     1       0.622  10.722  19.148  0.00  0.00    +0.000 S 
ATOM      6  O   UNL     1       1.706  11.653  18.927  0.00  0.00    +0.000 OA
ATOM      7  O   UNL     1      -0.568  10.691  18.313  0.00  0.00    +0.000 OA
ATOM      8  C   UNL     1       0.070  10.962  20.770  0.00  0.00    +0.000 A 
ATOM      9  C   UNL     1      -0.480  12.129  21.278  0.00  0.00    +0.000 A 
ATOM     10  C   UNL     1      -1.066  12.050  22.534  0.00  0.00    +0.000 A 
ATOM     11  C   UNL     1      -1.100  10.812  23.207  0.00  0.00    +0.000 A 
ATOM     12  C   UNL     1      -0.462   9.659  22.678  0.00  0.00    +0.000 A 
ATOM     13  C   UNL     1       0.177   9.758  21.452  0.00  0.00    +0.000 A 
ATOM     14  H   UNL     1       1.564   7.386  21.992  0.00  0.00    +0.000 HD
ENDBRANCH   1   2
BRANCH   1  15
ATOM     15  C   UNL     1       2.152   5.234  20.349  0.00  0.00    +0.000 C 
BRANCH  15  16
ATOM     16  C   UNL     1       1.514   4.460  19.175  0.00  0.00    +0.000 C 
BRANCH  16  17
ATOM     17  O   UNL     1       2.191   4.773  17.921  0.00  0.00    +0.000 OA
BRANCH  17  18
ATOM     18  C   UNL     1       2.929   3.779  17.356  0.00  0.00    +0.000 C 
ATOM     19  O   UNL     1       2.461   2.696  17.035  0.00  0.00    +0.000 OA
BRANCH  18  25
ATOM     20  C   UNL     1       5.375   4.090  18.218  0.00  0.00    +0.000 A 
ATOM     21  C   UNL     1       6.711   4.412  17.895  0.00  0.00    +0.000 A 
ATOM     22  C   UNL     1       7.102   4.675  16.581  0.00  0.00    +0.000 A 
ATOM     23  C   UNL     1       6.156   4.652  15.572  0.00  0.00    +0.000 A 
ATOM     24  C   UNL     1       4.821   4.368  15.879  0.00  0.00    +0.000 A 
ATOM     25  C   UNL     1       4.401   4.074  17.198  0.00  0.00    +0.000 A 
BRANCH  20  27
ATOM     26  C   UNL     1       4.670   2.483  19.805  0.00  0.00    +0.000 C 
ATOM     27  O   UNL     1       4.992   3.841  19.510  0.00  0.00    +0.000 OA
ENDBRANCH  20  27
ENDBRANCH  18  25
ENDBRANCH  17  18
ENDBRANCH  16  17
ENDBRANCH  15  16
ENDBRANCH   1  15
TORSDOF 7
ENDMDL
MODEL 9
REMARK VINA RESULT:      -7.4      2.049      3.405
REMARK  Name = 
REMARK  8 active torsions:
REMARK  status: ('A' for Active; 'I' for Inactive)
REMARK    1  A    between atoms: C_1  and  O_2
REMARK    2  A    between atoms: O_2  and  C_3
REMARK    3  A    between atoms: C_8  and  C_9
REMARK    4  A    between atoms: C_9  and  O_11
REMARK    5  A    between atoms: O_11  and  C_12
REMARK    6  A    between atoms: C_12  and  C_13
REMARK    7  A    between atoms: C_13  and  C_14
REMARK    8  A    between atoms: C_14  and  N_15
REMARK                            x       y       z     vdW  Elec       q    Type
REMARK                         _______ _______ _______ _____ _____    ______ ____
ROOT
ATOM      1  C   UNL     1       1.635   8.893  17.779  0.00  0.00    +0.000 C 
ENDROOT
BRANCH   1   2
ATOM      2  N   UNL     1       1.113   9.118  19.152  0.00  0.00    +0.000 N 
ATOM      3  C   UNL     1       0.141  10.065  19.415  0.00  0.00    +0.000 C 
ATOM      4  N   UNL     1      -0.358  10.774  18.439  0.00  0.00    +0.000 NA
ATOM      5  S   UNL     1      -1.373  11.913  18.977  0.00  0.00    +0.000 S 
ATOM      6  O   UNL     1      -0.839  13.231  18.723  0.00  0.00    +0.000 OA
ATOM      7  O   UNL     1      -2.750  11.553  18.677  0.00  0.00    +0.000 OA
ATOM      8  C   UNL     1      -1.143  11.586  20.660  0.00  0.00    +0.000 A 
ATOM      9  C   UNL     1      -1.699  12.301  21.711  0.00  0.00    +0.000 A 
ATOM     10  C   UNL     1      -1.577  11.747  22.977  0.00  0.00    +0.000 A 
ATOM     11  C   UNL     1      -0.934  10.502  23.133  0.00  0.00    +0.000 A 
ATOM     12  C   UNL     1      -0.318   9.841  22.037  0.00  0.00    +0.000 A 
ATOM     13  C   UNL     1      -0.388  10.428  20.783  0.00  0.00    +0.000 A 
ATOM     14  H   UNL     1       1.705   8.788  19.907  0.00  0.00    +0.000 HD
ENDBRANCH   1   2
BRANCH   1  15
ATOM     15  C   UNL     1       3.037   8.251  17.757  0.00  0.00    +0.000 C 
BRANCH  15  16
ATOM     16  C   UNL     1       3.037   6.709  17.687  0.00  0.00    +0.000 C 
BRANCH  16  17
ATOM     17  O   UNL     1       1.802   6.167  18.243  0.00  0.00    +0.000 OA
BRANCH  17  18
ATOM     18  C   UNL     1       1.604   4.827  18.111  0.00  0.00    +0.000 C 
ATOM     19  O   UNL     1       1.051   4.323  17.143  0.00  0.00    +0.000 OA
BRANCH  18  25
ATOM     20  C   UNL     1       3.361   3.493  19.509  0.00  0.00    +0.000 A 
ATOM     21  C   UNL     1       3.608   2.697  20.648  0.00  0.00    +0.000 A 
ATOM     22  C   UNL     1       2.603   2.416  21.576  0.00  0.00    +0.000 A 
ATOM     23  C   UNL     1       1.325   2.903  21.363  0.00  0.00    +0.000 A 
ATOM     24  C   UNL     1       1.056   3.667  20.222  0.00  0.00    +0.000 A 
ATOM     25  C   UNL     1       2.060   3.986  19.278  0.00  0.00    +0.000 A 
BRANCH  20  27
ATOM     26  C   UNL     1       5.520   4.378  19.120  0.00  0.00    +0.000 C 
ATOM     27  O   UNL     1       4.347   3.759  18.595  0.00  0.00    +0.000 OA
ENDBRANCH  20  27
ENDBRANCH  18  25
ENDBRANCH  17  18
ENDBRANCH  16  17
ENDBRANCH  15  16
ENDBRANCH   1  15
TORSDOF 7
ENDMDL
