MODEL 1
REMARK VINA RESULT:      -8.3      0.000      0.000
REMARK  Name = 
REMARK  6 active torsions:
REMARK  status: ('A' for Active; 'I' for Inactive)
REMARK    1  A    between atoms: C_1  and  C_2
REMARK    2  A    between atoms: C_5  and  C_6
REMARK    3  A    between atoms: N_9  and  C_10
REMARK    4  A    between atoms: C_10  and  C_11
REMARK    5  A    between atoms: N_13  and  C_14
REMARK    6  A    between atoms: C_19  and  N_20
REMARK                            x       y       z     vdW  Elec       q    Type
REMARK                         _______ _______ _______ _____ _____    ______ ____
ROOT
ATOM      1  C   UNL     1       2.526   6.008  18.852  0.00  0.00    +0.000 C 
ATOM      2  O   UNL     1       1.698   5.705  17.990  0.00  0.00    +0.000 OA
ATOM      3  N   UNL     1       3.899   5.835  18.707  0.00  0.00    +0.000 N 
ATOM      4  H   UNL     1       4.373   5.510  19.543  0.00  0.00    +0.000 HD
ENDROOT
BRANCH   3   5
ATOM      5  C   UNL     1       4.425   5.331  17.491  0.00  0.00    +0.000 A 
ATOM      6  C   UNL     1       4.873   6.302  16.581  0.00  0.00    +0.000 A 
ATOM      7  C   UNL     1       5.531   5.927  15.416  0.00  0.00    +0.000 A 
ATOM      8  C   UNL     1       5.709   4.579  15.142  0.00  0.00    +0.000 A 
ATOM      9  C   UNL     1       5.209   3.608  16.021  0.00  0.00    +0.000 A 
ATOM     10  C   UNL     1       4.537   3.941  17.216  0.00  0.00    +0.000 A 
BRANCH  10  11
ATOM     11  N   UNL     1       3.981   2.944  18.007  0.00  0.00    +0.000 N 
ATOM     12  C   UNL     1       2.756   2.208  17.646  0.00  0.00    +0.000 C 
ATOM     13  C   UNL     1       1.661   2.427  18.703  0.00  0.00    +0.000 C 
ATOM     14  O   UNL     1       2.119   2.074  20.018  0.00  0.00    +0.000 OA
ATOM     15  C   UNL     1       3.253   2.881  20.374  0.00  0.00    +0.000 C 
ATOM     16  C   UNL     1       4.426   2.704  19.392  0.00  0.00    +0.000 C 
ENDBRANCH  10  11
ENDBRANCH   3   5
BRANCH   1  17
ATOM     17  C   UNL     1       2.034   6.483  20.205  0.00  0.00    +0.000 C 
BRANCH  17  21
ATOM     18  C   UNL     1       0.606   9.580  20.659  0.00  0.00    +0.000 A 
ATOM     19  N   UNL     1       1.117   9.736  19.392  0.00  0.00    +0.000 NA
ATOM     20  N   UNL     1       1.832   8.649  19.132  0.00  0.00    +0.000 NA
ATOM     21  N   UNL     1       1.712   7.889  20.234  0.00  0.00    +0.000 N 
ATOM     22  N   UNL     1       1.004   8.434  21.240  0.00  0.00    +0.000 NA
BRANCH  18  27
ATOM     23  C   UNL     1      -3.021  13.376  23.023  0.00  0.00    +0.000 C 
ATOM     24  C   UNL     1      -2.132  12.338  22.407  0.00  0.00    +0.000 A 
ATOM     25  C   UNL     1      -1.533  11.343  23.190  0.00  0.00    +0.000 A 
ATOM     26  C   UNL     1      -0.675  10.406  22.608  0.00  0.00    +0.000 A 
ATOM     27  C   UNL     1      -0.393  10.462  21.238  0.00  0.00    +0.000 A 
ATOM     28  C   UNL     1      -1.014  11.440  20.451  0.00  0.00    +0.000 A 
ATOM     29  C   UNL     1      -1.880  12.368  21.032  0.00  0.00    +0.000 A 
ENDBRANCH  18  27
ENDBRANCH  17  21
ENDBRANCH   1  17
TORSDOF 5
ENDMDL
MODEL 2
REMARK VINA RESULT:      -8.3      2.526      4.130
REMARK  Name = 
REMARK  6 active torsions:
REMARK  status: ('A' for Active; 'I' for Inactive)
REMARK    1  A    between atoms: C_1  and  C_2
REMARK    2  A    between atoms: C_5  and  C_6
REMARK    3  A    between atoms: N_9  and  C_10
REMARK    4  A    between atoms: C_10  and  C_11
REMARK    5  A    between atoms: N_13  and  C_14
REMARK    6  A    between atoms: C_19  and  N_20
REMARK                            x       y       z     vdW  Elec       q    Type
REMARK                         _______ _______ _______ _____ _____    ______ ____
ROOT
ATOM      1  C   UNL     1       2.781   6.937  18.327  0.00  0.00    +0.000 C 
ATOM      2  O   UNL     1       2.916   6.828  19.549  0.00  0.00    +0.000 OA
ATOM      3  N   UNL     1       2.685   5.857  17.456  0.00  0.00    +0.000 N 
ATOM      4  H   UNL     1       3.182   5.978  16.579  0.00  0.00    +0.000 HD
ENDROOT
BRANCH   3   5
ATOM      5  C   UNL     1       2.688   4.534  17.964  0.00  0.00    +0.000 A 
ATOM      6  C   UNL     1       1.480   4.108  18.540  0.00  0.00    +0.000 A 
ATOM      7  C   UNL     1       1.320   2.790  18.949  0.00  0.00    +0.000 A 
ATOM      8  C   UNL     1       2.380   1.905  18.815  0.00  0.00    +0.000 A 
ATOM      9  C   UNL     1       3.605   2.344  18.295  0.00  0.00    +0.000 A 
ATOM     10  C   UNL     1       3.814   3.672  17.866  0.00  0.00    +0.000 A 
BRANCH  10  11
ATOM     11  N   UNL     1       5.072   4.081  17.442  0.00  0.00    +0.000 N 
ATOM     12  C   UNL     1       6.010   4.837  18.292  0.00  0.00    +0.000 C 
ATOM     13  C   UNL     1       6.329   6.203  17.664  0.00  0.00    +0.000 C 
ATOM     14  O   UNL     1       6.828   6.064  16.324  0.00  0.00    +0.000 OA
ATOM     15  C   UNL     1       5.848   5.411  15.502  0.00  0.00    +0.000 C 
ATOM     16  C   UNL     1       5.484   4.011  16.028  0.00  0.00    +0.000 C 
ENDBRANCH  10  11
ENDBRANCH   3   5
BRANCH   1  17
ATOM     17  C   UNL     1       2.844   8.318  17.705  0.00  0.00    +0.000 C 
BRANCH  17  21
ATOM     18  C   UNL     1       0.013  10.173  18.322  0.00  0.00    +0.000 A 
ATOM     19  N   UNL     1       0.979  11.117  18.584  0.00  0.00    +0.000 NA
ATOM     20  N   UNL     1       2.148  10.494  18.522  0.00  0.00    +0.000 NA
ATOM     21  N   UNL     1       1.842   9.222  18.218  0.00  0.00    +0.000 N 
ATOM     22  N   UNL     1       0.528   8.946  18.130  0.00  0.00    +0.000 NA
BRANCH  18  27
ATOM     23  C   UNL     1      -5.393  11.785  17.167  0.00  0.00    +0.000 C 
ATOM     24  C   UNL     1      -4.012  11.319  17.520  0.00  0.00    +0.000 A 
ATOM     25  C   UNL     1      -3.343  11.823  18.641  0.00  0.00    +0.000 A 
ATOM     26  C   UNL     1      -2.042  11.409  18.934  0.00  0.00    +0.000 A 
ATOM     27  C   UNL     1      -1.386  10.495  18.100  0.00  0.00    +0.000 A 
ATOM     28  C   UNL     1      -2.066   9.971  16.993  0.00  0.00    +0.000 A 
ATOM     29  C   UNL     1      -3.371  10.377  16.708  0.00  0.00    +0.000 A 
ENDBRANCH  18  27
ENDBRANCH  17  21
ENDBRANCH   1  17
TORSDOF 5
ENDMDL
MODEL 3
REMARK VINA RESULT:      -8.2      1.938      3.402
REMARK  Name = 
REMARK  6 active torsions:
REMARK  status: ('A' for Active; 'I' for Inactive)
REMARK    1  A    between atoms: C_1  and  C_2
REMARK    2  A    between atoms: C_5  and  C_6
REMARK    3  A    between atoms: N_9  and  C_10
REMARK    4  A    between atoms: C_10  and  C_11
REMARK    5  A    between atoms: N_13  and  C_14
REMARK    6  A    between atoms: C_19  and  N_20
REMARK                            x       y       z     vdW  Elec       q    Type
REMARK                         _______ _______ _______ _____ _____    ______ ____
ROOT
ATOM      1  C   UNL     1       2.442   6.898  18.723  0.00  0.00    +0.000 C 
ATOM      2  O   UNL     1       1.884   6.197  17.875  0.00  0.00    +0.000 OA
ATOM      3  N   UNL     1       3.200   6.391  19.773  0.00  0.00    +0.000 N 
ATOM      4  H   UNL     1       3.072   6.875  20.657  0.00  0.00    +0.000 HD
ENDROOT
BRANCH   3   5
ATOM      5  C   UNL     1       3.412   4.994  19.885  0.00  0.00    +0.000 A 
ATOM      6  C   UNL     1       2.608   4.338  20.832  0.00  0.00    +0.000 A 
ATOM      7  C   UNL     1       2.629   2.953  20.935  0.00  0.00    +0.000 A 
ATOM      8  C   UNL     1       3.481   2.224  20.118  0.00  0.00    +0.000 A 
ATOM      9  C   UNL     1       4.326   2.883  19.214  0.00  0.00    +0.000 A 
ATOM     10  C   UNL     1       4.339   4.287  19.073  0.00  0.00    +0.000 A 
BRANCH  10  11
ATOM     11  N   UNL     1       5.259   4.897  18.229  0.00  0.00    +0.000 N 
ATOM     12  C   UNL     1       5.124   4.921  16.762  0.00  0.00    +0.000 C 
ATOM     13  C   UNL     1       6.315   4.213  16.096  0.00  0.00    +0.000 C 
ATOM     14  O   UNL     1       7.568   4.777  16.520  0.00  0.00    +0.000 OA
ATOM     15  C   UNL     1       7.707   4.646  17.943  0.00  0.00    +0.000 C 
ATOM     16  C   UNL     1       6.575   5.357  18.708  0.00  0.00    +0.000 C 
ENDBRANCH  10  11
ENDBRANCH   3   5
BRANCH   1  17
ATOM     17  C   UNL     1       2.199   8.395  18.710  0.00  0.00    +0.000 C 
BRANCH  17  21
ATOM     18  C   UNL     1       0.358  10.176  21.007  0.00  0.00    +0.000 A 
ATOM     19  N   UNL     1       0.659   9.061  21.755  0.00  0.00    +0.000 NA
ATOM     20  N   UNL     1       1.259   8.205  20.939  0.00  0.00    +0.000 NA
ATOM     21  N   UNL     1       1.305   8.836  19.754  0.00  0.00    +0.000 N 
ATOM     22  N   UNL     1       0.717  10.045  19.717  0.00  0.00    +0.000 NA
BRANCH  18  27
ATOM     23  C   UNL     1      -1.235  15.069  23.590  0.00  0.00    +0.000 C 
ATOM     24  C   UNL     1      -0.881  13.800  22.874  0.00  0.00    +0.000 A 
ATOM     25  C   UNL     1      -1.497  12.588  23.204  0.00  0.00    +0.000 A 
ATOM     26  C   UNL     1      -1.128  11.407  22.556  0.00  0.00    +0.000 A 
ATOM     27  C   UNL     1      -0.126  11.421  21.578  0.00  0.00    +0.000 A 
ATOM     28  C   UNL     1       0.471  12.639  21.229  0.00  0.00    +0.000 A 
ATOM     29  C   UNL     1       0.092  13.820  21.869  0.00  0.00    +0.000 A 
ENDBRANCH  18  27
ENDBRANCH  17  21
ENDBRANCH   1  17
TORSDOF 5
ENDMDL
MODEL 4
REMARK VINA RESULT:      -8.2      4.269      7.439
REMARK  Name = 
REMARK  6 active torsions:
REMARK  status: ('A' for Active; 'I' for Inactive)
REMARK    1  A    between atoms: C_1  and  C_2
REMARK    2  A    between atoms: C_5  and  C_6
REMARK    3  A    between atoms: N_9  and  C_10
REMARK    4  A    between atoms: C_10  and  C_11
REMARK    5  A    between atoms: N_13  and  C_14
REMARK    6  A    between atoms: C_19  and  N_20
REMARK                            x       y       z     vdW  Elec       q    Type
REMARK                         _______ _______ _______ _____ _____    ______ ____
ROOT
ATOM      1  C   UNL     1       5.664   5.069  16.402  0.00  0.00    +0.000 C 
ATOM      2  O   UNL     1       4.978   4.965  15.382  0.00  0.00    +0.000 OA
ATOM      3  N   UNL     1       5.203   4.781  17.682  0.00  0.00    +0.000 N 
ATOM      4  H   UNL     1       5.520   5.426  18.399  0.00  0.00    +0.000 HD
ENDROOT
BRANCH   3   5
ATOM      5  C   UNL     1       3.887   4.288  17.867  0.00  0.00    +0.000 A 
ATOM      6  C   UNL     1       3.675   2.966  17.444  0.00  0.00    +0.000 A 
ATOM      7  C   UNL     1       2.467   2.329  17.697  0.00  0.00    +0.000 A 
ATOM      8  C   UNL     1       1.455   3.026  18.342  0.00  0.00    +0.000 A 
ATOM      9  C   UNL     1       1.645   4.364  18.711  0.00  0.00    +0.000 A 
ATOM     10  C   UNL     1       2.854   5.052  18.477  0.00  0.00    +0.000 A 
BRANCH  10  11
ATOM     11  N   UNL     1       2.961   6.403  18.780  0.00  0.00    +0.000 N 
ATOM     12  C   UNL     1       2.632   6.969  20.100  0.00  0.00    +0.000 C 
ATOM     13  C   UNL     1       1.491   7.992  19.982  0.00  0.00    +0.000 C 
ATOM     14  O   UNL     1       1.804   9.023  19.031  0.00  0.00    +0.000 OA
ATOM     15  C   UNL     1       2.022   8.444  17.735  0.00  0.00    +0.000 C 
ATOM     16  C   UNL     1       3.176   7.424  17.738  0.00  0.00    +0.000 C 
ENDBRANCH  10  11
ENDBRANCH   3   5
BRANCH   1  17
ATOM     17  C   UNL     1       7.056   5.661  16.290  0.00  0.00    +0.000 C 
BRANCH  17  21
ATOM     18  C   UNL     1       8.097   8.335  18.189  0.00  0.00    +0.000 A 
ATOM     19  N   UNL     1       8.403   7.301  19.043  0.00  0.00    +0.000 NA
ATOM     20  N   UNL     1       7.920   6.196  18.494  0.00  0.00    +0.000 NA
ATOM     21  N   UNL     1       7.361   6.602  17.341  0.00  0.00    +0.000 N 
ATOM     22  N   UNL     1       7.393   7.928  17.117  0.00  0.00    +0.000 NA
BRANCH  18  27
ATOM     23  C   UNL     1       9.859  13.747  19.057  0.00  0.00    +0.000 C 
ATOM     24  C   UNL     1       9.449  12.333  18.775  0.00  0.00    +0.000 A 
ATOM     25  C   UNL     1       8.566  12.031  17.732  0.00  0.00    +0.000 A 
ATOM     26  C   UNL     1       8.162  10.713  17.506  0.00  0.00    +0.000 A 
ATOM     27  C   UNL     1       8.625   9.681  18.332  0.00  0.00    +0.000 A 
ATOM     28  C   UNL     1       9.530   9.980  19.359  0.00  0.00    +0.000 A 
ATOM     29  C   UNL     1       9.942  11.296  19.575  0.00  0.00    +0.000 A 
ENDBRANCH  18  27
ENDBRANCH  17  21
ENDBRANCH   1  17
TORSDOF 5
ENDMDL
MODEL 5
REMARK VINA RESULT:      -8.2      2.479      3.978
REMARK  Name = 
REMARK  6 active torsions:
REMARK  status: ('A' for Active; 'I' for Inactive)
REMARK    1  A    between atoms: C_1  and  C_2
REMARK    2  A    between atoms: C_5  and  C_6
REMARK    3  A    between atoms: N_9  and  C_10
REMARK    4  A    between atoms: C_10  and  C_11
REMARK    5  A    between atoms: N_13  and  C_14
REMARK    6  A    between atoms: C_19  and  N_20
REMARK                            x       y       z     vdW  Elec       q    Type
REMARK                         _______ _______ _______ _____ _____    ______ ____
ROOT
ATOM      1  C   UNL     1       2.281   6.511  19.503  0.00  0.00    +0.000 C 
ATOM      2  O   UNL     1       1.757   6.425  18.390  0.00  0.00    +0.000 OA
ATOM      3  N   UNL     1       2.965   5.471  20.123  0.00  0.00    +0.000 N 
ATOM      4  H   UNL     1       2.797   5.393  21.121  0.00  0.00    +0.000 HD
ENDROOT
BRANCH   3   5
ATOM      5  C   UNL     1       3.139   4.236  19.450  0.00  0.00    +0.000 A 
ATOM      6  C   UNL     1       2.273   3.206  19.851  0.00  0.00    +0.000 A 
ATOM      7  C   UNL     1       2.257   1.995  19.172  0.00  0.00    +0.000 A 
ATOM      8  C   UNL     1       3.132   1.798  18.113  0.00  0.00    +0.000 A 
ATOM      9  C   UNL     1       4.037   2.805  17.751  0.00  0.00    +0.000 A 
ATOM     10  C   UNL     1       4.089   4.051  18.410  0.00  0.00    +0.000 A 
BRANCH  10  11
ATOM     11  N   UNL     1       5.065   4.981  18.073  0.00  0.00    +0.000 N 
ATOM     12  C   UNL     1       5.026   5.790  16.842  0.00  0.00    +0.000 C 
ATOM     13  C   UNL     1       6.253   5.501  15.963  0.00  0.00    +0.000 C 
ATOM     14  O   UNL     1       7.478   5.703  16.687  0.00  0.00    +0.000 OA
ATOM     15  C   UNL     1       7.525   4.826  17.823  0.00  0.00    +0.000 C 
ATOM     16  C   UNL     1       6.351   5.062  18.791  0.00  0.00    +0.000 C 
ENDBRANCH  10  11
ENDBRANCH   3   5
BRANCH   1  17
ATOM     17  C   UNL     1       2.073   7.776  20.313  0.00  0.00    +0.000 C 
BRANCH  17  21
ATOM     18  C   UNL     1       0.059   9.978  18.601  0.00  0.00    +0.000 A 
ATOM     19  N   UNL     1       1.159   9.971  17.776  0.00  0.00    +0.000 NA
ATOM     20  N   UNL     1       2.093   9.259  18.393  0.00  0.00    +0.000 NA
ATOM     21  N   UNL     1       1.519   8.863  19.542  0.00  0.00    +0.000 N 
ATOM     22  N   UNL     1       0.272   9.319  19.754  0.00  0.00    +0.000 NA
BRANCH  18  27
ATOM     23  C   UNL     1      -5.288  11.657  17.277  0.00  0.00    +0.000 C 
ATOM     24  C   UNL     1      -3.870  11.266  17.569  0.00  0.00    +0.000 A 
ATOM     25  C   UNL     1      -3.196  10.338  16.766  0.00  0.00    +0.000 A 
ATOM     26  C   UNL     1      -1.889   9.954  17.074  0.00  0.00    +0.000 A 
ATOM     27  C   UNL     1      -1.244  10.482  18.200  0.00  0.00    +0.000 A 
ATOM     28  C   UNL     1      -1.909  11.431  18.986  0.00  0.00    +0.000 A 
ATOM     29  C   UNL     1      -3.211  11.823  18.670  0.00  0.00    +0.000 A 
ENDBRANCH  18  27
ENDBRANCH  17  21
ENDBRANCH   1  17
TORSDOF 5
ENDMDL
MODEL 6
REMARK VINA RESULT:      -8.2      1.274      1.685
REMARK  Name = 
REMARK  6 active torsions:
REMARK  status: ('A' for Active; 'I' for Inactive)
REMARK    1  A    between atoms: C_1  and  C_2
REMARK    2  A    between atoms: C_5  and  C_6
REMARK    3  A    between atoms: N_9  and  C_10
REMARK    4  A    between atoms: C_10  and  C_11
REMARK    5  A    between atoms: N_13  and  C_14
REMARK    6  A    between atoms: C_19  and  N_20
REMARK                            x       y       z     vdW  Elec       q    Type
REMARK                         _______ _______ _______ _____ _____    ______ ____
ROOT
ATOM      1  C   UNL     1       3.374   5.980  19.230  0.00  0.00    +0.000 C 
ATOM      2  O   UNL     1       4.498   5.881  19.730  0.00  0.00    +0.000 OA
ATOM      3  N   UNL     1       3.076   5.641  17.914  0.00  0.00    +0.000 N 
ATOM      4  H   UNL     1       2.433   6.276  17.451  0.00  0.00    +0.000 HD
ENDROOT
BRANCH   3   5
ATOM      5  C   UNL     1       4.083   5.100  17.076  0.00  0.00    +0.000 A 
ATOM      6  C   UNL     1       4.708   6.017  16.216  0.00  0.00    +0.000 A 
ATOM      7  C   UNL     1       5.799   5.632  15.448  0.00  0.00    +0.000 A 
ATOM      8  C   UNL     1       6.245   4.320  15.510  0.00  0.00    +0.000 A 
ATOM      9  C   UNL     1       5.584   3.389  16.324  0.00  0.00    +0.000 A 
ATOM     10  C   UNL     1       4.473   3.734  17.123  0.00  0.00    +0.000 A 
BRANCH  10  11
ATOM     11  N   UNL     1       3.798   2.755  17.842  0.00  0.00    +0.000 N 
ATOM     12  C   UNL     1       2.480   2.223  17.450  0.00  0.00    +0.000 C 
ATOM     13  C   UNL     1       1.438   2.495  18.546  0.00  0.00    +0.000 C 
ATOM     14  O   UNL     1       1.860   1.973  19.816  0.00  0.00    +0.000 OA
ATOM     15  C   UNL     1       3.097   2.588  20.212  0.00  0.00    +0.000 C 
ATOM     16  C   UNL     1       4.223   2.341  19.191  0.00  0.00    +0.000 C 
ENDBRANCH  10  11
ENDBRANCH   3   5
BRANCH   1  17
ATOM     17  C   UNL     1       2.266   6.620  20.042  0.00  0.00    +0.000 C 
BRANCH  17  21
ATOM     18  C   UNL     1       0.760   9.631  19.334  0.00  0.00    +0.000 A 
ATOM     19  N   UNL     1       1.455   9.432  18.164  0.00  0.00    +0.000 NA
ATOM     20  N   UNL     1       2.209   8.357  18.348  0.00  0.00    +0.000 NA
ATOM     21  N   UNL     1       1.931   7.953  19.599  0.00  0.00    +0.000 N 
ATOM     22  N   UNL     1       1.075   8.732  20.283  0.00  0.00    +0.000 NA
BRANCH  18  27
ATOM     23  C   UNL     1      -3.767  13.108  20.100  0.00  0.00    +0.000 C 
ATOM     24  C   UNL     1      -2.558  12.255  19.856  0.00  0.00    +0.000 A 
ATOM     25  C   UNL     1      -2.429  11.502  18.683  0.00  0.00    +0.000 A 
ATOM     26  C   UNL     1      -1.316  10.680  18.488  0.00  0.00    +0.000 A 
ATOM     27  C   UNL     1      -0.324  10.590  19.472  0.00  0.00    +0.000 A 
ATOM     28  C   UNL     1      -0.440  11.365  20.634  0.00  0.00    +0.000 A 
ATOM     29  C   UNL     1      -1.547  12.194  20.822  0.00  0.00    +0.000 A 
ENDBRANCH  18  27
ENDBRANCH  17  21
ENDBRANCH   1  17
TORSDOF 5
ENDMDL
MODEL 7
REMARK VINA RESULT:      -8.2      1.844      3.232
REMARK  Name = 
REMARK  6 active torsions:
REMARK  status: ('A' for Active; 'I' for Inactive)
REMARK    1  A    between atoms: C_1  and  C_2
REMARK    2  A    between atoms: C_5  and  C_6
REMARK    3  A    between atoms: N_9  and  C_10
REMARK    4  A    between atoms: C_10  and  C_11
REMARK    5  A    between atoms: N_13  and  C_14
REMARK    6  A    between atoms: C_19  and  N_20
REMARK                            x       y       z     vdW  Elec       q    Type
REMARK                         _______ _______ _______ _____ _____    ______ ____
ROOT
ATOM      1  C   UNL     1       2.412   7.104  18.420  0.00  0.00    +0.000 C 
ATOM      2  O   UNL     1       3.037   7.167  19.482  0.00  0.00    +0.000 OA
ATOM      3  N   UNL     1       2.122   5.916  17.758  0.00  0.00    +0.000 N 
ATOM      4  H   UNL     1       2.207   5.966  16.747  0.00  0.00    +0.000 HD
ENDROOT
BRANCH   3   5
ATOM      5  C   UNL     1       2.503   4.675  18.327  0.00  0.00    +0.000 A 
ATOM      6  C   UNL     1       1.508   4.026  19.076  0.00  0.00    +0.000 A 
ATOM      7  C   UNL     1       1.721   2.745  19.567  0.00  0.00    +0.000 A 
ATOM      8  C   UNL     1       2.941   2.124  19.342  0.00  0.00    +0.000 A 
ATOM      9  C   UNL     1       3.955   2.796  18.646  0.00  0.00    +0.000 A 
ATOM     10  C   UNL     1       3.786   4.096  18.127  0.00  0.00    +0.000 A 
BRANCH  10  11
ATOM     11  N   UNL     1       4.851   4.753  17.523  0.00  0.00    +0.000 N 
ATOM     12  C   UNL     1       5.102   4.732  16.071  0.00  0.00    +0.000 C 
ATOM     13  C   UNL     1       6.469   4.100  15.766  0.00  0.00    +0.000 C 
ATOM     14  O   UNL     1       7.527   4.767  16.473  0.00  0.00    +0.000 OA
ATOM     15  C   UNL     1       7.300   4.681  17.889  0.00  0.00    +0.000 C 
ATOM     16  C   UNL     1       5.964   5.323  18.306  0.00  0.00    +0.000 C 
ENDBRANCH  10  11
ENDBRANCH   3   5
BRANCH   1  17
ATOM     17  C   UNL     1       2.037   8.393  17.715  0.00  0.00    +0.000 C 
BRANCH  17  21
ATOM     18  C   UNL     1       0.638  10.604  19.949  0.00  0.00    +0.000 A 
ATOM     19  N   UNL     1       1.315  11.483  19.136  0.00  0.00    +0.000 NA
ATOM     20  N   UNL     1       2.031  10.749  18.294  0.00  0.00    +0.000 NA
ATOM     21  N   UNL     1       1.749   9.477  18.623  0.00  0.00    +0.000 N 
ATOM     22  N   UNL     1       0.928   9.319  19.676  0.00  0.00    +0.000 NA
BRANCH  18  27
ATOM     23  C   UNL     1      -3.240  12.550  23.734  0.00  0.00    +0.000 C 
ATOM     24  C   UNL     1      -2.273  11.982  22.740  0.00  0.00    +0.000 A 
ATOM     25  C   UNL     1      -1.334  11.015  23.116  0.00  0.00    +0.000 A 
ATOM     26  C   UNL     1      -0.412  10.524  22.188  0.00  0.00    +0.000 A 
ATOM     27  C   UNL     1      -0.408  11.007  20.874  0.00  0.00    +0.000 A 
ATOM     28  C   UNL     1      -1.366  11.955  20.491  0.00  0.00    +0.000 A 
ATOM     29  C   UNL     1      -2.293  12.435  21.417  0.00  0.00    +0.000 A 
ENDBRANCH  18  27
ENDBRANCH  17  21
ENDBRANCH   1  17
TORSDOF 5
ENDMDL
MODEL 8
REMARK VINA RESULT:      -8.1      1.767      3.439
REMARK  Name = 
REMARK  6 active torsions:
REMARK  status: ('A' for Active; 'I' for Inactive)
REMARK    1  A    between atoms: C_1  and  C_2
REMARK    2  A    between atoms: C_5  and  C_6
REMARK    3  A    between atoms: N_9  and  C_10
REMARK    4  A    between atoms: C_10  and  C_11
REMARK    5  A    between atoms: N_13  and  C_14
REMARK    6  A    between atoms: C_19  and  N_20
REMARK                            x       y       z     vdW  Elec       q    Type
REMARK                         _______ _______ _______ _____ _____    ______ ____
ROOT
ATOM      1  C   UNL     1       2.422   6.867  18.780  0.00  0.00    +0.000 C 
ATOM      2  O   UNL     1       1.935   6.181  17.877  0.00  0.00    +0.000 OA
ATOM      3  N   UNL     1       3.128   6.345  19.859  0.00  0.00    +0.000 N 
ATOM      4  H   UNL     1       2.934   6.796  20.747  0.00  0.00    +0.000 HD
ENDROOT
BRANCH   3   5
ATOM      5  C   UNL     1       3.369   4.950  19.940  0.00  0.00    +0.000 A 
ATOM      6  C   UNL     1       2.557   4.252  20.849  0.00  0.00    +0.000 A 
ATOM      7  C   UNL     1       2.608   2.865  20.917  0.00  0.00    +0.000 A 
ATOM      8  C   UNL     1       3.495   2.177  20.103  0.00  0.00    +0.000 A 
ATOM      9  C   UNL     1       4.346   2.878  19.238  0.00  0.00    +0.000 A 
ATOM     10  C   UNL     1       4.331   4.285  19.133  0.00  0.00    +0.000 A 
BRANCH  10  11
ATOM     11  N   UNL     1       5.257   4.937  18.328  0.00  0.00    +0.000 N 
ATOM     12  C   UNL     1       5.143   5.019  16.861  0.00  0.00    +0.000 C 
ATOM     13  C   UNL     1       6.350   4.350  16.185  0.00  0.00    +0.000 C 
ATOM     14  O   UNL     1       7.591   4.908  16.649  0.00  0.00    +0.000 OA
ATOM     15  C   UNL     1       7.711   4.721  18.068  0.00  0.00    +0.000 C 
ATOM     16  C   UNL     1       6.561   5.390  18.844  0.00  0.00    +0.000 C 
ENDBRANCH  10  11
ENDBRANCH   3   5
BRANCH   1  17
ATOM     17  C   UNL     1       2.142   8.357  18.799  0.00  0.00    +0.000 C 
BRANCH  17  21
ATOM     18  C   UNL     1       0.019  10.023  20.933  0.00  0.00    +0.000 A 
ATOM     19  N   UNL     1       0.643   9.182  21.825  0.00  0.00    +0.000 NA
ATOM     20  N   UNL     1       1.404   8.365  21.110  0.00  0.00    +0.000 NA
ATOM     21  N   UNL     1       1.219   8.751  19.836  0.00  0.00    +0.000 N 
ATOM     22  N   UNL     1       0.331   9.743  19.655  0.00  0.00    +0.000 NA
BRANCH  18  27
ATOM     23  C   UNL     1      -3.370  14.382  22.567  0.00  0.00    +0.000 C 
ATOM     24  C   UNL     1      -2.435  13.297  22.123  0.00  0.00    +0.000 A 
ATOM     25  C   UNL     1      -2.292  12.976  20.768  0.00  0.00    +0.000 A 
ATOM     26  C   UNL     1      -1.447  11.936  20.372  0.00  0.00    +0.000 A 
ATOM     27  C   UNL     1      -0.746  11.193  21.330  0.00  0.00    +0.000 A 
ATOM     28  C   UNL     1      -0.870  11.532  22.683  0.00  0.00    +0.000 A 
ATOM     29  C   UNL     1      -1.705  12.579  23.076  0.00  0.00    +0.000 A 
ENDBRANCH  18  27
ENDBRANCH  17  21
ENDBRANCH   1  17
TORSDOF 5
ENDMDL
MODEL 9
REMARK VINA RESULT:      -8.1      2.779      4.188
REMARK  Name = 
REMARK  6 active torsions:
REMARK  status: ('A' for Active; 'I' for Inactive)
REMARK    1  A    between atoms: C_1  and  C_2
REMARK    2  A    between atoms: C_5  and  C_6
REMARK    3  A    between atoms: N_9  and  C_10
REMARK    4  A    between atoms: C_10  and  C_11
REMARK    5  A    between atoms: N_13  and  C_14
REMARK    6  A    between atoms: C_19  and  N_20
REMARK                            x       y       z     vdW  Elec       q    Type
REMARK                         _______ _______ _______ _____ _____    ______ ____
ROOT
ATOM      1  C   UNL     1       2.401   7.454  18.429  0.00  0.00    +0.000 C 
ATOM      2  O   UNL     1       2.618   7.321  19.637  0.00  0.00    +0.000 OA
ATOM      3  N   UNL     1       2.412   6.404  17.517  0.00  0.00    +0.000 N 
ATOM      4  H   UNL     1       2.838   6.627  16.623  0.00  0.00    +0.000 HD
ENDROOT
BRANCH   3   5
ATOM      5  C   UNL     1       2.630   5.077  17.966  0.00  0.00    +0.000 A 
ATOM      6  C   UNL     1       1.536   4.469  18.601  0.00  0.00    +0.000 A 
ATOM      7  C   UNL     1       1.586   3.128  18.961  0.00  0.00    +0.000 A 
ATOM      8  C   UNL     1       2.743   2.403  18.720  0.00  0.00    +0.000 A 
ATOM      9  C   UNL     1       3.857   3.025  18.139  0.00  0.00    +0.000 A 
ATOM     10  C   UNL     1       3.853   4.383  17.755  0.00  0.00    +0.000 A 
BRANCH  10  11
ATOM     11  N   UNL     1       5.011   4.976  17.268  0.00  0.00    +0.000 N 
ATOM     12  C   UNL     1       5.346   5.047  15.834  0.00  0.00    +0.000 C 
ATOM     13  C   UNL     1       6.662   4.307  15.548  0.00  0.00    +0.000 C 
ATOM     14  O   UNL     1       7.735   4.805  16.365  0.00  0.00    +0.000 OA
ATOM     15  C   UNL     1       7.415   4.628  17.754  0.00  0.00    +0.000 C 
ATOM     16  C   UNL     1       6.124   5.365  18.153  0.00  0.00    +0.000 C 
ENDBRANCH  10  11
ENDBRANCH   3   5
BRANCH   1  17
ATOM     17  C   UNL     1       2.233   8.851  17.866  0.00  0.00    +0.000 C 
BRANCH  17  21
ATOM     18  C   UNL     1      -0.691  10.541  18.520  0.00  0.00    +0.000 A 
ATOM     19  N   UNL     1       0.183  11.268  19.295  0.00  0.00    +0.000 NA
ATOM     20  N   UNL     1       1.347  10.634  19.252  0.00  0.00    +0.000 NA
ATOM     21  N   UNL     1       1.132   9.575  18.454  0.00  0.00    +0.000 N 
ATOM     22  N   UNL     1      -0.128   9.433  18.007  0.00  0.00    +0.000 NA
BRANCH  18  27
ATOM     23  C   UNL     1      -6.107  12.018  17.238  0.00  0.00    +0.000 C 
ATOM     24  C   UNL     1      -4.673  11.691  17.530  0.00  0.00    +0.000 A 
ATOM     25  C   UNL     1      -3.891  10.987  16.608  0.00  0.00    +0.000 A 
ATOM     26  C   UNL     1      -2.568  10.654  16.911  0.00  0.00    +0.000 A 
ATOM     27  C   UNL     1      -2.016  11.009  18.148  0.00  0.00    +0.000 A 
ATOM     28  C   UNL     1      -2.791  11.737  19.059  0.00  0.00    +0.000 A 
ATOM     29  C   UNL     1      -4.109  12.079  18.750  0.00  0.00    +0.000 A 
ENDBRANCH  18  27
ENDBRANCH  17  21
ENDBRANCH   1  17
TORSDOF 5
ENDMDL
