MODEL 1
REMARK VINA RESULT:      -8.9      0.000      0.000
REMARK  Name = 
REMARK  7 active torsions:
REMARK  status: ('A' for Active; 'I' for Inactive)
REMARK    1  A    between atoms: C_1  and  O_2
REMARK    2  A    between atoms: O_2  and  C_3
REMARK    3  A    between atoms: C_3  and  C_5
REMARK    4  A    between atoms: C_5  and  C_6
REMARK    5  A    between atoms: C_14  and  O_15
REMARK    6  A    between atoms: C_22  and  C_23
REMARK    7  A    between atoms: C_24  and  O_25
REMARK                            x       y       z     vdW  Elec       q    Type
REMARK                         _______ _______ _______ _____ _____    ______ ____
ROOT
ATOM      1  C   UNL     1       4.762   4.024  16.639  0.00  0.00    +0.000 C 
ATOM      2  C   UNL     1       4.167   5.458  16.539  0.00  0.00    +0.000 C 
ATOM      3  C   UNL     1       3.729   5.780  17.964  0.00  0.00    +0.000 C 
ATOM      4  C   UNL     1       2.722   6.907  18.208  0.00  0.00    +0.000 C 
ATOM      5  C   UNL     1       3.225   8.259  17.693  0.00  0.00    +0.000 C 
ATOM      6  C   UNL     1       2.157   9.339  17.869  0.00  0.00    +0.000 C 
ATOM      7  C   UNL     1       1.350   9.241  19.143  0.00  0.00    +0.000 A 
ATOM      8  C   UNL     1       0.425  10.265  19.418  0.00  0.00    +0.000 A 
ATOM      9  C   UNL     1      -0.364  10.212  20.562  0.00  0.00    +0.000 A 
ATOM     10  C   UNL     1      -0.241   9.158  21.452  0.00  0.00    +0.000 A 
ATOM     11  C   UNL     1       0.671   8.137  21.189  0.00  0.00    +0.000 A 
ATOM     12  C   UNL     1       1.460   8.145  20.025  0.00  0.00    +0.000 A 
ATOM     13  C   UNL     1       2.462   7.031  19.741  0.00  0.00    +0.000 C 
ATOM     14  C   UNL     1       2.099   5.670  20.389  0.00  0.00    +0.000 C 
ATOM     15  C   UNL     1       3.053   4.532  20.008  0.00  0.00    +0.000 C 
ATOM     16  C   UNL     1       3.221   4.423  18.491  0.00  0.00    +0.000 C 
ATOM     17  C   UNL     1       1.893   3.940  17.853  0.00  0.00    +0.000 C 
ATOM     18  C   UNL     1       4.396   3.528  18.065  0.00  0.00    +0.000 C 
ENDROOT
BRANCH   9  19
ATOM     19  O   UNL     1      -1.276  11.179  20.852  0.00  0.00    +0.000 OA
ATOM     20  H   UNL     1      -0.802  11.952  21.207  0.00  0.00    +0.000 HD
ENDBRANCH   9  19
BRANCH  18  21
ATOM     21  O   UNL     1       4.090   2.149  18.123  0.00  0.00    +0.000 OA
ATOM     22  H   UNL     1       3.145   2.040  18.315  0.00  0.00    +0.000 HD
ENDBRANCH  18  21
BRANCH   1  23
ATOM     23  C   UNL     1       6.281   4.017  16.419  0.00  0.00    +0.000 C 
BRANCH  23  24
ATOM     24  C   UNL     1       6.655   4.413  15.011  0.00  0.00    +0.000 C 
ATOM     25  O   UNL     1       7.499   5.256  14.717  0.00  0.00    +0.000 OA
BRANCH  24  27
ATOM     26  C   UNL     1       6.427   3.747  12.778  0.00  0.00    +0.000 C 
ATOM     27  O   UNL     1       5.929   3.688  14.116  0.00  0.00    +0.000 OA
ENDBRANCH  24  27
ENDBRANCH  23  24
ENDBRANCH   1  23
TORSDOF 5
ENDMDL
MODEL 2
REMARK VINA RESULT:      -8.8      1.154      1.657
REMARK  Name = 
REMARK  7 active torsions:
REMARK  status: ('A' for Active; 'I' for Inactive)
REMARK    1  A    between atoms: C_1  and  O_2
REMARK    2  A    between atoms: O_2  and  C_3
REMARK    3  A    between atoms: C_3  and  C_5
REMARK    4  A    between atoms: C_5  and  C_6
REMARK    5  A    between atoms: C_14  and  O_15
REMARK    6  A    between atoms: C_22  and  C_23
REMARK    7  A    between atoms: C_24  and  O_25
REMARK                            x       y       z     vdW  Elec       q    Type
REMARK                         _______ _______ _______ _____ _____    ______ ____
ROOT
ATOM      1  C   UNL     1       4.797   4.002  16.548  0.00  0.00    +0.000 C 
ATOM      2  C   UNL     1       4.181   5.428  16.470  0.00  0.00    +0.000 C 
ATOM      3  C   UNL     1       3.779   5.741  17.908  0.00  0.00    +0.000 C 
ATOM      4  C   UNL     1       2.765   6.853  18.184  0.00  0.00    +0.000 C 
ATOM      5  C   UNL     1       3.236   8.214  17.660  0.00  0.00    +0.000 C 
ATOM      6  C   UNL     1       2.158   9.279  17.869  0.00  0.00    +0.000 C 
ATOM      7  C   UNL     1       1.390   9.167  19.166  0.00  0.00    +0.000 A 
ATOM      8  C   UNL     1       0.459  10.178  19.470  0.00  0.00    +0.000 A 
ATOM      9  C   UNL     1      -0.295  10.110  20.636  0.00  0.00    +0.000 A 
ATOM     10  C   UNL     1      -0.134   9.056  21.519  0.00  0.00    +0.000 A 
ATOM     11  C   UNL     1       0.784   8.048  21.227  0.00  0.00    +0.000 A 
ATOM     12  C   UNL     1       1.539   8.069  20.041  0.00  0.00    +0.000 A 
ATOM     13  C   UNL     1       2.547   6.969  19.724  0.00  0.00    +0.000 C 
ATOM     14  C   UNL     1       2.221   5.602  20.378  0.00  0.00    +0.000 C 
ATOM     15  C   UNL     1       3.178   4.478  19.967  0.00  0.00    +0.000 C 
ATOM     16  C   UNL     1       3.304   4.376  18.445  0.00  0.00    +0.000 C 
ATOM     17  C   UNL     1       1.965   3.877  17.843  0.00  0.00    +0.000 C 
ATOM     18  C   UNL     1       4.478   3.497  17.982  0.00  0.00    +0.000 C 
ENDROOT
BRANCH   9  19
ATOM     19  O   UNL     1      -1.211  11.065  20.955  0.00  0.00    +0.000 OA
ATOM     20  H   UNL     1      -0.781  11.725  21.528  0.00  0.00    +0.000 HD
ENDBRANCH   9  19
BRANCH  18  21
ATOM     21  O   UNL     1       4.192   2.114  18.044  0.00  0.00    +0.000 OA
ATOM     22  H   UNL     1       3.566   1.886  17.338  0.00  0.00    +0.000 HD
ENDBRANCH  18  21
BRANCH   1  23
ATOM     23  C   UNL     1       6.309   4.016  16.285  0.00  0.00    +0.000 C 
BRANCH  23  24
ATOM     24  C   UNL     1       7.046   4.919  17.246  0.00  0.00    +0.000 C 
ATOM     25  O   UNL     1       7.277   4.654  18.423  0.00  0.00    +0.000 OA
BRANCH  24  27
ATOM     26  C   UNL     1       7.392   7.227  17.435  0.00  0.00    +0.000 C 
ATOM     27  O   UNL     1       7.429   6.061  16.610  0.00  0.00    +0.000 OA
ENDBRANCH  24  27
ENDBRANCH  23  24
ENDBRANCH   1  23
TORSDOF 5
ENDMDL
MODEL 3
REMARK VINA RESULT:      -8.6      0.626      1.211
REMARK  Name = 
REMARK  7 active torsions:
REMARK  status: ('A' for Active; 'I' for Inactive)
REMARK    1  A    between atoms: C_1  and  O_2
REMARK    2  A    between atoms: O_2  and  C_3
REMARK    3  A    between atoms: C_3  and  C_5
REMARK    4  A    between atoms: C_5  and  C_6
REMARK    5  A    between atoms: C_14  and  O_15
REMARK    6  A    between atoms: C_22  and  C_23
REMARK    7  A    between atoms: C_24  and  O_25
REMARK                            x       y       z     vdW  Elec       q    Type
REMARK                         _______ _______ _______ _____ _____    ______ ____
ROOT
ATOM      1  C   UNL     1       4.722   4.007  16.727  0.00  0.00    +0.000 C 
ATOM      2  C   UNL     1       4.121   5.436  16.598  0.00  0.00    +0.000 C 
ATOM      3  C   UNL     1       3.688   5.788  18.018  0.00  0.00    +0.000 C 
ATOM      4  C   UNL     1       2.678   6.916  18.242  0.00  0.00    +0.000 C 
ATOM      5  C   UNL     1       3.174   8.259  17.694  0.00  0.00    +0.000 C 
ATOM      6  C   UNL     1       2.102   9.339  17.851  0.00  0.00    +0.000 C 
ATOM      7  C   UNL     1       1.302   9.266  19.132  0.00  0.00    +0.000 A 
ATOM      8  C   UNL     1       0.374  10.292  19.388  0.00  0.00    +0.000 A 
ATOM      9  C   UNL     1      -0.409  10.261  20.537  0.00  0.00    +0.000 A 
ATOM     10  C   UNL     1      -0.278   9.228  21.449  0.00  0.00    +0.000 A 
ATOM     11  C   UNL     1       0.637   8.205  21.205  0.00  0.00    +0.000 A 
ATOM     12  C   UNL     1       1.421   8.190  20.037  0.00  0.00    +0.000 A 
ATOM     13  C   UNL     1       2.425   7.073  19.773  0.00  0.00    +0.000 C 
ATOM     14  C   UNL     1       2.071   5.726  20.453  0.00  0.00    +0.000 C 
ATOM     15  C   UNL     1       3.027   4.583  20.093  0.00  0.00    +0.000 C 
ATOM     16  C   UNL     1       3.188   4.442  18.577  0.00  0.00    +0.000 C 
ATOM     17  C   UNL     1       1.859   3.940  17.956  0.00  0.00    +0.000 C 
ATOM     18  C   UNL     1       4.365   3.541  18.166  0.00  0.00    +0.000 C 
ENDROOT
BRANCH   9  19
ATOM     19  O   UNL     1      -1.323  11.232  20.809  0.00  0.00    +0.000 OA
ATOM     20  H   UNL     1      -2.185  10.807  20.966  0.00  0.00    +0.000 HD
ENDBRANCH   9  19
BRANCH  18  21
ATOM     21  O   UNL     1       4.064   2.163  18.255  0.00  0.00    +0.000 OA
ATOM     22  H   UNL     1       4.127   1.882  19.182  0.00  0.00    +0.000 HD
ENDBRANCH  18  21
BRANCH   1  23
ATOM     23  C   UNL     1       6.240   4.001  16.500  0.00  0.00    +0.000 C 
BRANCH  23  24
ATOM     24  C   UNL     1       6.636   4.791  15.276  0.00  0.00    +0.000 C 
ATOM     25  O   UNL     1       6.309   4.514  14.124  0.00  0.00    +0.000 OA
BRANCH  24  27
ATOM     26  C   UNL     1       7.382   6.137  17.040  0.00  0.00    +0.000 C 
ATOM     27  O   UNL     1       7.394   5.862  15.638  0.00  0.00    +0.000 OA
ENDBRANCH  24  27
ENDBRANCH  23  24
ENDBRANCH   1  23
TORSDOF 5
ENDMDL
MODEL 4
REMARK VINA RESULT:      -7.8      3.575      5.051
REMARK  Name = 
REMARK  7 active torsions:
REMARK  status: ('A' for Active; 'I' for Inactive)
REMARK    1  A    between atoms: C_1  and  O_2
REMARK    2  A    between atoms: O_2  and  C_3
REMARK    3  A    between atoms: C_3  and  C_5
REMARK    4  A    between atoms: C_5  and  C_6
REMARK    5  A    between atoms: C_14  and  O_15
REMARK    6  A    between atoms: C_22  and  C_23
REMARK    7  A    between atoms: C_24  and  O_25
REMARK                            x       y       z     vdW  Elec       q    Type
REMARK                         _______ _______ _______ _____ _____    ______ ____
ROOT
ATOM      1  C   UNL     1       6.610   4.039  14.143  0.00  0.00    +0.000 C 
ATOM      2  C   UNL     1       5.637   3.116  14.930  0.00  0.00    +0.000 C 
ATOM      3  C   UNL     1       4.948   4.054  15.916  0.00  0.00    +0.000 C 
ATOM      4  C   UNL     1       4.240   3.473  17.142  0.00  0.00    +0.000 C 
ATOM      5  C   UNL     1       3.122   2.498  16.762  0.00  0.00    +0.000 C 
ATOM      6  C   UNL     1       2.502   1.868  18.011  0.00  0.00    +0.000 C 
ATOM      7  C   UNL     1       2.357   2.799  19.193  0.00  0.00    +0.000 A 
ATOM      8  C   UNL     1       1.697   2.313  20.337  0.00  0.00    +0.000 A 
ATOM      9  C   UNL     1       1.560   3.116  21.464  0.00  0.00    +0.000 A 
ATOM     10  C   UNL     1       2.060   4.408  21.472  0.00  0.00    +0.000 A 
ATOM     11  C   UNL     1       2.717   4.899  20.345  0.00  0.00    +0.000 A 
ATOM     12  C   UNL     1       2.901   4.101  19.201  0.00  0.00    +0.000 A 
ATOM     13  C   UNL     1       3.616   4.641  17.967  0.00  0.00    +0.000 C 
ATOM     14  C   UNL     1       4.640   5.765  18.266  0.00  0.00    +0.000 C 
ATOM     15  C   UNL     1       5.429   6.224  17.035  0.00  0.00    +0.000 C 
ATOM     16  C   UNL     1       6.067   5.040  16.303  0.00  0.00    +0.000 C 
ATOM     17  C   UNL     1       7.189   4.429  17.180  0.00  0.00    +0.000 C 
ATOM     18  C   UNL     1       6.591   5.395  14.902  0.00  0.00    +0.000 C 
ENDROOT
BRANCH   9  19
ATOM     19  O   UNL     1       0.937   2.674  22.590  0.00  0.00    +0.000 OA
ATOM     20  H   UNL     1      -0.020   2.633  22.417  0.00  0.00    +0.000 HD
ENDBRANCH   9  19
BRANCH  18  21
ATOM     21  O   UNL     1       7.847   6.045  14.930  0.00  0.00    +0.000 OA
ATOM     22  H   UNL     1       8.427   5.591  15.561  0.00  0.00    +0.000 HD
ENDBRANCH  18  21
BRANCH   1  23
ATOM     23  C   UNL     1       6.179   4.213  12.680  0.00  0.00    +0.000 C 
BRANCH  23  24
ATOM     24  C   UNL     1       6.398   2.959  11.869  0.00  0.00    +0.000 C 
ATOM     25  O   UNL     1       7.494   2.541  11.502  0.00  0.00    +0.000 OA
BRANCH  24  27
ATOM     26  C   UNL     1       4.142   3.261  11.321  0.00  0.00    +0.000 C 
ATOM     27  O   UNL     1       5.206   2.353  11.617  0.00  0.00    +0.000 OA
ENDBRANCH  24  27
ENDBRANCH  23  24
ENDBRANCH   1  23
TORSDOF 5
ENDMDL
MODEL 5
REMARK VINA RESULT:      -7.4      1.929      3.886
REMARK  Name = 
REMARK  7 active torsions:
REMARK  status: ('A' for Active; 'I' for Inactive)
REMARK    1  A    between atoms: C_1  and  O_2
REMARK    2  A    between atoms: O_2  and  C_3
REMARK    3  A    between atoms: C_3  and  C_5
REMARK    4  A    between atoms: C_5  and  C_6
REMARK    5  A    between atoms: C_14  and  O_15
REMARK    6  A    between atoms: C_22  and  C_23
REMARK    7  A    between atoms: C_24  and  O_25
REMARK                            x       y       z     vdW  Elec       q    Type
REMARK                         _______ _______ _______ _____ _____    ______ ____
ROOT
ATOM      1  C   UNL     1       4.600   3.185  19.169  0.00  0.00    +0.000 C 
ATOM      2  C   UNL     1       3.716   4.134  20.027  0.00  0.00    +0.000 C 
ATOM      3  C   UNL     1       3.288   5.227  19.053  0.00  0.00    +0.000 C 
ATOM      4  C   UNL     1       2.770   6.562  19.595  0.00  0.00    +0.000 C 
ATOM      5  C   UNL     1       1.530   6.389  20.478  0.00  0.00    +0.000 C 
ATOM      6  C   UNL     1       1.098   7.729  21.076  0.00  0.00    +0.000 C 
ATOM      7  C   UNL     1       1.239   8.918  20.153  0.00  0.00    +0.000 A 
ATOM      8  C   UNL     1       0.760  10.162  20.603  0.00  0.00    +0.000 A 
ATOM      9  C   UNL     1       0.889  11.295  19.806  0.00  0.00    +0.000 A 
ATOM     10  C   UNL     1       1.480  11.212  18.557  0.00  0.00    +0.000 A 
ATOM     11  C   UNL     1       1.960   9.985  18.101  0.00  0.00    +0.000 A 
ATOM     12  C   UNL     1       1.874   8.827  18.895  0.00  0.00    +0.000 A 
ATOM     13  C   UNL     1       2.395   7.485  18.395  0.00  0.00    +0.000 C 
ATOM     14  C   UNL     1       3.539   7.594  17.355  0.00  0.00    +0.000 C 
ATOM     15  C   UNL     1       4.128   6.241  16.940  0.00  0.00    +0.000 C 
ATOM     16  C   UNL     1       4.531   5.407  18.159  0.00  0.00    +0.000 C 
ATOM     17  C   UNL     1       5.743   6.068  18.865  0.00  0.00    +0.000 C 
ATOM     18  C   UNL     1       4.822   3.934  17.826  0.00  0.00    +0.000 C 
ENDROOT
BRANCH   9  19
ATOM     19  O   UNL     1       0.446  12.515  20.215  0.00  0.00    +0.000 OA
ATOM     20  H   UNL     1       1.208  13.025  20.542  0.00  0.00    +0.000 HD
ENDBRANCH   9  19
BRANCH  18  21
ATOM     21  O   UNL     1       6.108   3.735  17.273  0.00  0.00    +0.000 OA
ATOM     22  H   UNL     1       6.493   2.926  17.645  0.00  0.00    +0.000 HD
ENDBRANCH  18  21
BRANCH   1  23
ATOM     23  C   UNL     1       3.928   1.823  18.943  0.00  0.00    +0.000 C 
BRANCH  23  24
ATOM     24  C   UNL     1       2.553   1.961  18.335  0.00  0.00    +0.000 C 
ATOM     25  O   UNL     1       2.329   2.223  17.155  0.00  0.00    +0.000 OA
BRANCH  24  27
ATOM     26  C   UNL     1       0.541   2.696  19.280  0.00  0.00    +0.000 C 
ATOM     27  O   UNL     1       1.600   1.737  19.281  0.00  0.00    +0.000 OA
ENDBRANCH  24  27
ENDBRANCH  23  24
ENDBRANCH   1  23
TORSDOF 5
ENDMDL
MODEL 6
REMARK VINA RESULT:      -7.4      2.067      8.578
REMARK  Name = 
REMARK  7 active torsions:
REMARK  status: ('A' for Active; 'I' for Inactive)
REMARK    1  A    between atoms: C_1  and  O_2
REMARK    2  A    between atoms: O_2  and  C_3
REMARK    3  A    between atoms: C_3  and  C_5
REMARK    4  A    between atoms: C_5  and  C_6
REMARK    5  A    between atoms: C_14  and  O_15
REMARK    6  A    between atoms: C_22  and  C_23
REMARK    7  A    between atoms: C_24  and  O_25
REMARK                            x       y       z     vdW  Elec       q    Type
REMARK                         _______ _______ _______ _____ _____    ______ ____
ROOT
ATOM      1  C   UNL     1      -0.631  10.983  20.386  0.00  0.00    +0.000 C 
ATOM      2  C   UNL     1      -0.331   9.492  20.710  0.00  0.00    +0.000 C 
ATOM      3  C   UNL     1       0.936   9.186  19.918  0.00  0.00    +0.000 C 
ATOM      4  C   UNL     1       1.314   7.731  19.629  0.00  0.00    +0.000 C 
ATOM      5  C   UNL     1       1.509   6.915  20.911  0.00  0.00    +0.000 C 
ATOM      6  C   UNL     1       1.792   5.448  20.584  0.00  0.00    +0.000 C 
ATOM      7  C   UNL     1       2.668   5.219  19.373  0.00  0.00    +0.000 A 
ATOM      8  C   UNL     1       3.055   3.898  19.080  0.00  0.00    +0.000 A 
ATOM      9  C   UNL     1       3.837   3.627  17.963  0.00  0.00    +0.000 A 
ATOM     10  C   UNL     1       4.255   4.651  17.131  0.00  0.00    +0.000 A 
ATOM     11  C   UNL     1       3.875   5.964  17.410  0.00  0.00    +0.000 A 
ATOM     12  C   UNL     1       3.058   6.268  18.514  0.00  0.00    +0.000 A 
ATOM     13  C   UNL     1       2.649   7.704  18.822  0.00  0.00    +0.000 C 
ATOM     14  C   UNL     1       2.606   8.633  17.582  0.00  0.00    +0.000 C 
ATOM     15  C   UNL     1       2.089  10.044  17.886  0.00  0.00    +0.000 C 
ATOM     16  C   UNL     1       0.749  10.004  18.625  0.00  0.00    +0.000 C 
ATOM     17  C   UNL     1      -0.354   9.468  17.677  0.00  0.00    +0.000 C 
ATOM     18  C   UNL     1       0.344  11.356  19.235  0.00  0.00    +0.000 C 
ENDROOT
BRANCH   9  19
ATOM     19  O   UNL     1       4.219   2.360  17.644  0.00  0.00    +0.000 OA
ATOM     20  H   UNL     1       4.513   2.351  16.716  0.00  0.00    +0.000 HD
ENDBRANCH   9  19
BRANCH  18  21
ATOM     21  O   UNL     1      -0.213  12.246  18.288  0.00  0.00    +0.000 OA
ATOM     22  H   UNL     1      -0.028  11.916  17.394  0.00  0.00    +0.000 HD
ENDBRANCH  18  21
BRANCH   1  23
ATOM     23  C   UNL     1      -0.423  11.888  21.608  0.00  0.00    +0.000 C 
BRANCH  23  24
ATOM     24  C   UNL     1      -0.946  11.260  22.878  0.00  0.00    +0.000 C 
ATOM     25  O   UNL     1      -0.299  10.520  23.614  0.00  0.00    +0.000 OA
BRANCH  24  27
ATOM     26  C   UNL     1      -2.393  13.052  23.295  0.00  0.00    +0.000 C 
ATOM     27  O   UNL     1      -2.234  11.646  23.092  0.00  0.00    +0.000 OA
ENDBRANCH  24  27
ENDBRANCH  23  24
ENDBRANCH   1  23
TORSDOF 5
ENDMDL
MODEL 7
REMARK VINA RESULT:      -7.3      1.248      1.781
REMARK  Name = 
REMARK  7 active torsions:
REMARK  status: ('A' for Active; 'I' for Inactive)
REMARK    1  A    between atoms: C_1  and  O_2
REMARK    2  A    between atoms: O_2  and  C_3
REMARK    3  A    between atoms: C_3  and  C_5
REMARK    4  A    between atoms: C_5  and  C_6
REMARK    5  A    between atoms: C_14  and  O_15
REMARK    6  A    between atoms: C_22  and  C_23
REMARK    7  A    between atoms: C_24  and  O_25
REMARK                            x       y       z     vdW  Elec       q    Type
REMARK                         _______ _______ _______ _____ _____    ______ ____
ROOT
ATOM      1  C   UNL     1       4.465   5.512  16.557  0.00  0.00    +0.000 C 
ATOM      2  C   UNL     1       3.736   6.883  16.642  0.00  0.00    +0.000 C 
ATOM      3  C   UNL     1       3.362   7.015  18.115  0.00  0.00    +0.000 C 
ATOM      4  C   UNL     1       2.273   8.007  18.532  0.00  0.00    +0.000 C 
ATOM      5  C   UNL     1       2.616   9.448  18.138  0.00  0.00    +0.000 C 
ATOM      6  C   UNL     1       1.465  10.394  18.485  0.00  0.00    +0.000 C 
ATOM      7  C   UNL     1       0.755  10.089  19.784  0.00  0.00    +0.000 A 
ATOM      8  C   UNL     1      -0.242  10.984  20.216  0.00  0.00    +0.000 A 
ATOM      9  C   UNL     1      -0.947  10.738  21.388  0.00  0.00    +0.000 A 
ATOM     10  C   UNL     1      -0.671   9.617  22.153  0.00  0.00    +0.000 A 
ATOM     11  C   UNL     1       0.313   8.723  21.734  0.00  0.00    +0.000 A 
ATOM     12  C   UNL     1       1.022   8.926  20.536  0.00  0.00    +0.000 A 
ATOM     13  C   UNL     1       2.101   7.949  20.081  0.00  0.00    +0.000 C 
ATOM     14  C   UNL     1       1.908   6.501  20.600  0.00  0.00    +0.000 C 
ATOM     15  C   UNL     1       2.936   5.507  20.048  0.00  0.00    +0.000 C 
ATOM     16  C   UNL     1       3.016   5.569  18.521  0.00  0.00    +0.000 C 
ATOM     17  C   UNL     1       1.700   5.025  17.908  0.00  0.00    +0.000 C 
ATOM     18  C   UNL     1       4.239   4.841  17.939  0.00  0.00    +0.000 C 
ENDROOT
BRANCH   9  19
ATOM     19  O   UNL     1      -1.924  11.577  21.829  0.00  0.00    +0.000 OA
ATOM     20  H   UNL     1      -2.127  11.354  22.754  0.00  0.00    +0.000 HD
ENDBRANCH   9  19
BRANCH  18  21
ATOM     21  O   UNL     1       4.065   3.440  17.866  0.00  0.00    +0.000 OA
ATOM     22  H   UNL     1       3.252   3.244  17.374  0.00  0.00    +0.000 HD
ENDBRANCH  18  21
BRANCH   1  23
ATOM     23  C   UNL     1       5.962   5.677  16.256  0.00  0.00    +0.000 C 
BRANCH  23  24
ATOM     24  C   UNL     1       6.644   4.352  16.014  0.00  0.00    +0.000 C 
ATOM     25  O   UNL     1       6.175   3.430  15.350  0.00  0.00    +0.000 OA
BRANCH  24  27
ATOM     26  C   UNL     1       7.821   4.704  18.007  0.00  0.00    +0.000 C 
ATOM     27  O   UNL     1       7.859   4.335  16.627  0.00  0.00    +0.000 OA
ENDBRANCH  24  27
ENDBRANCH  23  24
ENDBRANCH   1  23
TORSDOF 5
ENDMDL
MODEL 8
REMARK VINA RESULT:      -7.3      1.107      1.250
REMARK  Name = 
REMARK  7 active torsions:
REMARK  status: ('A' for Active; 'I' for Inactive)
REMARK    1  A    between atoms: C_1  and  O_2
REMARK    2  A    between atoms: O_2  and  C_3
REMARK    3  A    between atoms: C_3  and  C_5
REMARK    4  A    between atoms: C_5  and  C_6
REMARK    5  A    between atoms: C_14  and  O_15
REMARK    6  A    between atoms: C_22  and  C_23
REMARK    7  A    between atoms: C_24  and  O_25
REMARK                            x       y       z     vdW  Elec       q    Type
REMARK                         _______ _______ _______ _____ _____    ______ ____
ROOT
ATOM      1  C   UNL     1       4.599   5.532  16.450  0.00  0.00    +0.000 C 
ATOM      2  C   UNL     1       3.821   6.874  16.559  0.00  0.00    +0.000 C 
ATOM      3  C   UNL     1       3.474   6.985  18.040  0.00  0.00    +0.000 C 
ATOM      4  C   UNL     1       2.358   7.933  18.486  0.00  0.00    +0.000 C 
ATOM      5  C   UNL     1       2.639   9.387  18.093  0.00  0.00    +0.000 C 
ATOM      6  C   UNL     1       1.461  10.289  18.469  0.00  0.00    +0.000 C 
ATOM      7  C   UNL     1       0.791   9.951  19.781  0.00  0.00    +0.000 A 
ATOM      8  C   UNL     1      -0.229  10.806  20.239  0.00  0.00    +0.000 A 
ATOM      9  C   UNL     1      -0.899  10.528  21.425  0.00  0.00    +0.000 A 
ATOM     10  C   UNL     1      -0.566   9.414  22.178  0.00  0.00    +0.000 A 
ATOM     11  C   UNL     1       0.442   8.559  21.733  0.00  0.00    +0.000 A 
ATOM     12  C   UNL     1       1.117   8.794  20.521  0.00  0.00    +0.000 A 
ATOM     13  C   UNL     1       2.222   7.861  20.038  0.00  0.00    +0.000 C 
ATOM     14  C   UNL     1       2.094   6.404  20.552  0.00  0.00    +0.000 C 
ATOM     15  C   UNL     1       3.147   5.452  19.973  0.00  0.00    +0.000 C 
ATOM     16  C   UNL     1       3.191   5.525  18.445  0.00  0.00    +0.000 C 
ATOM     17  C   UNL     1       1.884   4.935  17.857  0.00  0.00    +0.000 C 
ATOM     18  C   UNL     1       4.428   4.846  17.833  0.00  0.00    +0.000 C 
ENDROOT
BRANCH   9  19
ATOM     19  O   UNL     1      -1.897  11.328  21.891  0.00  0.00    +0.000 OA
ATOM     20  H   UNL     1      -2.422  10.821  22.535  0.00  0.00    +0.000 HD
ENDBRANCH   9  19
BRANCH  18  21
ATOM     21  O   UNL     1       4.305   3.439  17.756  0.00  0.00    +0.000 OA
ATOM     22  H   UNL     1       4.276   3.173  16.823  0.00  0.00    +0.000 HD
ENDBRANCH  18  21
BRANCH   1  23
ATOM     23  C   UNL     1       6.082   5.754  16.118  0.00  0.00    +0.000 C 
BRANCH  23  24
ATOM     24  C   UNL     1       6.870   4.466  16.143  0.00  0.00    +0.000 C 
ATOM     25  O   UNL     1       7.885   4.275  16.809  0.00  0.00    +0.000 OA
BRANCH  24  27
ATOM     26  C   UNL     1       6.333   3.877  13.941  0.00  0.00    +0.000 C 
ATOM     27  O   UNL     1       6.283   3.545  15.331  0.00  0.00    +0.000 OA
ENDBRANCH  24  27
ENDBRANCH  23  24
ENDBRANCH   1  23
TORSDOF 5
ENDMDL
MODEL 9
REMARK VINA RESULT:      -7.1      9.009     12.133
REMARK  Name = 
REMARK  7 active torsions:
REMARK  status: ('A' for Active; 'I' for Inactive)
REMARK    1  A    between atoms: C_1  and  O_2
REMARK    2  A    between atoms: O_2  and  C_3
REMARK    3  A    between atoms: C_3  and  C_5
REMARK    4  A    between atoms: C_5  and  C_6
REMARK    5  A    between atoms: C_14  and  O_15
REMARK    6  A    between atoms: C_22  and  C_23
REMARK    7  A    between atoms: C_24  and  O_25
REMARK                            x       y       z     vdW  Elec       q    Type
REMARK                         _______ _______ _______ _____ _____    ______ ____
ROOT
ATOM      1  C   UNL     1       6.839  12.456  24.393  0.00  0.00    +0.000 C 
ATOM      2  C   UNL     1       7.317  11.748  23.093  0.00  0.00    +0.000 C 
ATOM      3  C   UNL     1       8.544  12.546  22.663  0.00  0.00    +0.000 C 
ATOM      4  C   UNL     1       9.047  12.439  21.222  0.00  0.00    +0.000 C 
ATOM      5  C   UNL     1       9.425  11.004  20.842  0.00  0.00    +0.000 C 
ATOM      6  C   UNL     1       9.833  10.921  19.370  0.00  0.00    +0.000 C 
ATOM      7  C   UNL     1      10.631  12.099  18.859  0.00  0.00    +0.000 A 
ATOM      8  C   UNL     1      11.129  12.036  17.544  0.00  0.00    +0.000 A 
ATOM      9  C   UNL     1      11.846  13.103  17.013  0.00  0.00    +0.000 A 
ATOM     10  C   UNL     1      12.089  14.235  17.773  0.00  0.00    +0.000 A 
ATOM     11  C   UNL     1      11.599  14.308  19.076  0.00  0.00    +0.000 A 
ATOM     12  C   UNL     1      10.843  13.260  19.631  0.00  0.00    +0.000 A 
ATOM     13  C   UNL     1      10.311  13.339  21.058  0.00  0.00    +0.000 C 
ATOM     14  C   UNL     1      10.076  14.784  21.570  0.00  0.00    +0.000 C 
ATOM     15  C   UNL     1       9.439  14.848  22.963  0.00  0.00    +0.000 C 
ATOM     16  C   UNL     1       8.173  13.993  23.043  0.00  0.00    +0.000 C 
ATOM     17  C   UNL     1       7.061  14.625  22.166  0.00  0.00    +0.000 C 
ATOM     18  C   UNL     1       7.677  13.761  24.480  0.00  0.00    +0.000 C 
ENDROOT
BRANCH   9  19
ATOM     19  O   UNL     1      12.333  13.080  15.742  0.00  0.00    +0.000 OA
ATOM     20  H   UNL     1      11.705  13.547  15.164  0.00  0.00    +0.000 HD
ENDBRANCH   9  19
BRANCH  18  21
ATOM     21  O   UNL     1       6.959  14.861  25.002  0.00  0.00    +0.000 OA
ATOM     22  H   UNL     1       6.100  14.553  25.333  0.00  0.00    +0.000 HD
ENDBRANCH  18  21
BRANCH   1  23
ATOM     23  C   UNL     1       7.046  11.577  25.634  0.00  0.00    +0.000 C 
BRANCH  23  24
ATOM     24  C   UNL     1       5.738  11.096  26.216  0.00  0.00    +0.000 C 
ATOM     25  O   UNL     1       4.787  10.679  25.559  0.00  0.00    +0.000 OA
BRANCH  24  27
ATOM     26  C   UNL     1       5.686  12.512  28.080  0.00  0.00    +0.000 C 
ATOM     27  O   UNL     1       5.775  11.178  27.574  0.00  0.00    +0.000 OA
ENDBRANCH  24  27
ENDBRANCH  23  24
ENDBRANCH   1  23
TORSDOF 5
ENDMDL
