MODEL 1
REMARK VINA RESULT:      -8.6      0.000      0.000
REMARK  Name = 
REMARK  3 active torsions:
REMARK  status: ('A' for Active; 'I' for Inactive)
REMARK    1  A    between atoms: C_7  and  C_8
REMARK    2  A    between atoms: C_8  and  N_9
REMARK    3  A    between atoms: C_15  and  C_16
REMARK                            x       y       z     vdW  Elec       q    Type
REMARK                         _______ _______ _______ _____ _____    ______ ____
ROOT
ATOM      1  N   UNL     1       1.862   4.722  20.044  0.00  0.00    +0.000 N 
ATOM      2  C   UNL     1       0.768   3.907  20.198  0.00  0.00    +0.000 A 
ATOM      3  N   UNL     1       0.770   2.900  19.353  0.00  0.00    +0.000 NA
ATOM      4  C   UNL     1       1.899   3.079  18.609  0.00  0.00    +0.000 A 
ATOM      5  N   UNL     1       2.324   2.283  17.604  0.00  0.00    +0.000 NA
ATOM      6  C   UNL     1       3.464   2.747  17.033  0.00  0.00    +0.000 A 
ATOM      7  C   UNL     1       4.153   3.906  17.419  0.00  0.00    +0.000 A 
ATOM      8  N   UNL     1       3.751   4.683  18.471  0.00  0.00    +0.000 NA
ATOM      9  C   UNL     1       2.601   4.215  19.010  0.00  0.00    +0.000 A 
ENDROOT
BRANCH   7  10
ATOM     10  C   UNL     1       5.327   4.393  16.669  0.00  0.00    +0.000 A 
ATOM     11  C   UNL     1       5.668   3.861  15.416  0.00  0.00    +0.000 A 
ATOM     12  C   UNL     1       6.737   4.398  14.719  0.00  0.00    +0.000 A 
ATOM     13  N   UNL     1       7.508   5.395  15.189  0.00  0.00    +0.000 NA
ATOM     14  C   UNL     1       7.194   5.882  16.407  0.00  0.00    +0.000 A 
ATOM     15  C   UNL     1       6.128   5.429  17.167  0.00  0.00    +0.000 A 
ENDBRANCH   7  10
BRANCH   1  16
ATOM     16  C   UNL     1       2.217   5.833  20.909  0.00  0.00    +0.000 C 
BRANCH  16  23
ATOM     17  C   UNL     1      -0.578  11.384  20.840  0.00  0.00    +0.000 A 
ATOM     18  C   UNL     1      -0.099  11.722  19.589  0.00  0.00    +0.000 A 
ATOM     19  N   UNL     1       0.681  10.912  18.838  0.00  0.00    +0.000 NA
ATOM     20  C   UNL     1       1.015   9.716  19.347  0.00  0.00    +0.000 A 
ATOM     21  C   UNL     1       1.800   8.853  18.593  0.00  0.00    +0.000 A 
ATOM     22  C   UNL     1       2.181   7.590  19.065  0.00  0.00    +0.000 A 
ATOM     23  C   UNL     1       1.796   7.168  20.344  0.00  0.00    +0.000 A 
ATOM     24  C   UNL     1       0.994   8.026  21.113  0.00  0.00    +0.000 A 
ATOM     25  C   UNL     1       0.596   9.283  20.620  0.00  0.00    +0.000 A 
ATOM     26  C   UNL     1      -0.222  10.146  21.363  0.00  0.00    +0.000 A 
ENDBRANCH  16  23
ENDBRANCH   1  16
TORSDOF 3
ENDMDL
MODEL 2
REMARK VINA RESULT:      -8.4      1.902      3.189
REMARK  Name = 
REMARK  3 active torsions:
REMARK  status: ('A' for Active; 'I' for Inactive)
REMARK    1  A    between atoms: C_7  and  C_8
REMARK    2  A    between atoms: C_8  and  N_9
REMARK    3  A    between atoms: C_15  and  C_16
REMARK                            x       y       z     vdW  Elec       q    Type
REMARK                         _______ _______ _______ _____ _____    ______ ____
ROOT
ATOM      1  N   UNL     1       4.068   5.114  18.475  0.00  0.00    +0.000 N 
ATOM      2  C   UNL     1       4.534   5.061  19.765  0.00  0.00    +0.000 A 
ATOM      3  N   UNL     1       5.837   4.902  19.822  0.00  0.00    +0.000 NA
ATOM      4  C   UNL     1       6.232   4.829  18.519  0.00  0.00    +0.000 A 
ATOM      5  N   UNL     1       7.497   4.665  18.078  0.00  0.00    +0.000 NA
ATOM      6  C   UNL     1       7.562   4.594  16.725  0.00  0.00    +0.000 A 
ATOM      7  C   UNL     1       6.468   4.687  15.853  0.00  0.00    +0.000 A 
ATOM      8  N   UNL     1       5.192   4.906  16.297  0.00  0.00    +0.000 NA
ATOM      9  C   UNL     1       5.149   4.950  17.649  0.00  0.00    +0.000 A 
ENDROOT
BRANCH   7  10
ATOM     10  C   UNL     1       6.619   4.491  14.398  0.00  0.00    +0.000 A 
ATOM     11  C   UNL     1       7.577   5.202  13.659  0.00  0.00    +0.000 A 
ATOM     12  C   UNL     1       7.730   4.933  12.309  0.00  0.00    +0.000 A 
ATOM     13  N   UNL     1       6.980   4.040  11.638  0.00  0.00    +0.000 NA
ATOM     14  C   UNL     1       6.041   3.381  12.347  0.00  0.00    +0.000 A 
ATOM     15  C   UNL     1       5.833   3.562  13.705  0.00  0.00    +0.000 A 
ENDBRANCH   7  10
BRANCH   1  16
ATOM     16  C   UNL     1       2.705   5.417  18.079  0.00  0.00    +0.000 C 
BRANCH  16  23
ATOM     17  C   UNL     1       0.659   9.733  22.056  0.00  0.00    +0.000 A 
ATOM     18  C   UNL     1       0.707  10.755  21.127  0.00  0.00    +0.000 A 
ATOM     19  N   UNL     1       1.090  10.587  19.842  0.00  0.00    +0.000 NA
ATOM     20  C   UNL     1       1.452   9.355  19.452  0.00  0.00    +0.000 A 
ATOM     21  C   UNL     1       1.831   9.143  18.133  0.00  0.00    +0.000 A 
ATOM     22  C   UNL     1       2.218   7.882  17.662  0.00  0.00    +0.000 A 
ATOM     23  C   UNL     1       2.257   6.785  18.533  0.00  0.00    +0.000 A 
ATOM     24  C   UNL     1       1.866   6.982  19.866  0.00  0.00    +0.000 A 
ATOM     25  C   UNL     1       1.457   8.248  20.323  0.00  0.00    +0.000 A 
ATOM     26  C   UNL     1       1.043   8.461  21.646  0.00  0.00    +0.000 A 
ENDBRANCH  16  23
ENDBRANCH   1  16
TORSDOF 3
ENDMDL
MODEL 3
REMARK VINA RESULT:      -8.2      1.920      3.363
REMARK  Name = 
REMARK  3 active torsions:
REMARK  status: ('A' for Active; 'I' for Inactive)
REMARK    1  A    between atoms: C_7  and  C_8
REMARK    2  A    between atoms: C_8  and  N_9
REMARK    3  A    between atoms: C_15  and  C_16
REMARK                            x       y       z     vdW  Elec       q    Type
REMARK                         _______ _______ _______ _____ _____    ______ ____
ROOT
ATOM      1  N   UNL     1       4.121   5.162  18.457  0.00  0.00    +0.000 N 
ATOM      2  C   UNL     1       4.589   5.075  19.745  0.00  0.00    +0.000 A 
ATOM      3  N   UNL     1       5.886   4.864  19.794  0.00  0.00    +0.000 NA
ATOM      4  C   UNL     1       6.272   4.791  18.488  0.00  0.00    +0.000 A 
ATOM      5  N   UNL     1       7.528   4.581  18.039  0.00  0.00    +0.000 NA
ATOM      6  C   UNL     1       7.584   4.524  16.685  0.00  0.00    +0.000 A 
ATOM      7  C   UNL     1       6.490   4.670  15.819  0.00  0.00    +0.000 A 
ATOM      8  N   UNL     1       5.227   4.936  16.272  0.00  0.00    +0.000 NA
ATOM      9  C   UNL     1       5.191   4.965  17.625  0.00  0.00    +0.000 A 
ENDROOT
BRANCH   7  10
ATOM     10  C   UNL     1       6.628   4.486  14.361  0.00  0.00    +0.000 A 
ATOM     11  C   UNL     1       7.584   5.198  13.620  0.00  0.00    +0.000 A 
ATOM     12  C   UNL     1       7.723   4.939  12.267  0.00  0.00    +0.000 A 
ATOM     13  N   UNL     1       6.962   4.056  11.595  0.00  0.00    +0.000 NA
ATOM     14  C   UNL     1       6.025   3.397  12.307  0.00  0.00    +0.000 A 
ATOM     15  C   UNL     1       5.830   3.567  13.668  0.00  0.00    +0.000 A 
ENDBRANCH   7  10
BRANCH   1  16
ATOM     16  C   UNL     1       2.770   5.523  18.071  0.00  0.00    +0.000 C 
BRANCH  16  23
ATOM     17  C   UNL     1       1.146  11.480  18.794  0.00  0.00    +0.000 A 
ATOM     18  C   UNL     1       0.727  11.311  20.100  0.00  0.00    +0.000 A 
ATOM     19  N   UNL     1       0.786  10.135  20.763  0.00  0.00    +0.000 NA
ATOM     20  C   UNL     1       1.271   9.069  20.107  0.00  0.00    +0.000 A 
ATOM     21  C   UNL     1       1.363   7.850  20.766  0.00  0.00    +0.000 A 
ATOM     22  C   UNL     1       1.862   6.701  20.140  0.00  0.00    +0.000 A 
ATOM     23  C   UNL     1       2.264   6.746  18.798  0.00  0.00    +0.000 A 
ATOM     24  C   UNL     1       2.186   7.974  18.123  0.00  0.00    +0.000 A 
ATOM     25  C   UNL     1       1.706   9.128  18.769  0.00  0.00    +0.000 A 
ATOM     26  C   UNL     1       1.640  10.369  18.119  0.00  0.00    +0.000 A 
ENDBRANCH  16  23
ENDBRANCH   1  16
TORSDOF 3
ENDMDL
MODEL 4
REMARK VINA RESULT:      -8.2      0.779      1.806
REMARK  Name = 
REMARK  3 active torsions:
REMARK  status: ('A' for Active; 'I' for Inactive)
REMARK    1  A    between atoms: C_7  and  C_8
REMARK    2  A    between atoms: C_8  and  N_9
REMARK    3  A    between atoms: C_15  and  C_16
REMARK                            x       y       z     vdW  Elec       q    Type
REMARK                         _______ _______ _______ _____ _____    ______ ____
ROOT
ATOM      1  N   UNL     1       1.813   4.404  20.108  0.00  0.00    +0.000 N 
ATOM      2  C   UNL     1       0.711   3.587  20.155  0.00  0.00    +0.000 A 
ATOM      3  N   UNL     1       0.699   2.704  19.182  0.00  0.00    +0.000 NA
ATOM      4  C   UNL     1       1.827   2.970  18.463  0.00  0.00    +0.000 A 
ATOM      5  N   UNL     1       2.240   2.314  17.357  0.00  0.00    +0.000 NA
ATOM      6  C   UNL     1       3.383   2.839  16.848  0.00  0.00    +0.000 A 
ATOM      7  C   UNL     1       4.086   3.928  17.384  0.00  0.00    +0.000 A 
ATOM      8  N   UNL     1       3.696   4.559  18.534  0.00  0.00    +0.000 NA
ATOM      9  C   UNL     1       2.543   4.034  19.010  0.00  0.00    +0.000 A 
ENDROOT
BRANCH   7  10
ATOM     10  C   UNL     1       5.263   4.500  16.701  0.00  0.00    +0.000 A 
ATOM     11  C   UNL     1       6.029   5.518  17.290  0.00  0.00    +0.000 A 
ATOM     12  C   UNL     1       7.164   5.974  16.642  0.00  0.00    +0.000 A 
ATOM     13  N   UNL     1       7.571   5.520  15.443  0.00  0.00    +0.000 NA
ATOM     14  C   UNL     1       6.814   4.564  14.868  0.00  0.00    +0.000 A 
ATOM     15  C   UNL     1       5.678   4.025  15.451  0.00  0.00    +0.000 A 
ENDBRANCH   7  10
BRANCH   1  16
ATOM     16  C   UNL     1       2.184   5.383  21.113  0.00  0.00    +0.000 C 
BRANCH  16  23
ATOM     17  C   UNL     1       1.758  10.598  17.756  0.00  0.00    +0.000 A 
ATOM     18  C   UNL     1       0.844  11.190  18.606  0.00  0.00    +0.000 A 
ATOM     19  N   UNL     1       0.383  10.610  19.737  0.00  0.00    +0.000 NA
ATOM     20  C   UNL     1       0.836   9.384  20.043  0.00  0.00    +0.000 A 
ATOM     21  C   UNL     1       0.398   8.768  21.208  0.00  0.00    +0.000 A 
ATOM     22  C   UNL     1       0.833   7.492  21.584  0.00  0.00    +0.000 A 
ATOM     23  C   UNL     1       1.719   6.777  20.766  0.00  0.00    +0.000 A 
ATOM     24  C   UNL     1       2.178   7.392  19.591  0.00  0.00    +0.000 A 
ATOM     25  C   UNL     1       1.753   8.685  19.234  0.00  0.00    +0.000 A 
ATOM     26  C   UNL     1       2.216   9.325  18.075  0.00  0.00    +0.000 A 
ENDBRANCH  16  23
ENDBRANCH   1  16
TORSDOF 3
ENDMDL
MODEL 5
REMARK VINA RESULT:      -7.9      2.578      3.958
REMARK  Name = 
REMARK  3 active torsions:
REMARK  status: ('A' for Active; 'I' for Inactive)
REMARK    1  A    between atoms: C_7  and  C_8
REMARK    2  A    between atoms: C_8  and  N_9
REMARK    3  A    between atoms: C_15  and  C_16
REMARK                            x       y       z     vdW  Elec       q    Type
REMARK                         _______ _______ _______ _____ _____    ______ ____
ROOT
ATOM      1  N   UNL     1       1.493   8.580  19.611  0.00  0.00    +0.000 N 
ATOM      2  C   UNL     1       0.838   8.356  20.797  0.00  0.00    +0.000 A 
ATOM      3  N   UNL     1       1.127   7.183  21.316  0.00  0.00    +0.000 NA
ATOM      4  C   UNL     1       1.989   6.616  20.424  0.00  0.00    +0.000 A 
ATOM      5  N   UNL     1       2.559   5.397  20.533  0.00  0.00    +0.000 NA
ATOM      6  C   UNL     1       3.341   5.100  19.464  0.00  0.00    +0.000 A 
ATOM      7  C   UNL     1       3.561   5.939  18.362  0.00  0.00    +0.000 A 
ATOM      8  N   UNL     1       3.025   7.195  18.276  0.00  0.00    +0.000 NA
ATOM      9  C   UNL     1       2.232   7.460  19.341  0.00  0.00    +0.000 A 
ENDROOT
BRANCH   7  10
ATOM     10  C   UNL     1       4.342   5.490  17.192  0.00  0.00    +0.000 A 
ATOM     11  C   UNL     1       4.894   6.406  16.284  0.00  0.00    +0.000 A 
ATOM     12  C   UNL     1       5.677   5.940  15.242  0.00  0.00    +0.000 A 
ATOM     13  N   UNL     1       5.920   4.636  15.017  0.00  0.00    +0.000 NA
ATOM     14  C   UNL     1       5.363   3.759  15.876  0.00  0.00    +0.000 A 
ATOM     15  C   UNL     1       4.588   4.130  16.964  0.00  0.00    +0.000 A 
ENDBRANCH   7  10
BRANCH   1  16
ATOM     16  C   UNL     1       1.491   9.825  18.866  0.00  0.00    +0.000 C 
BRANCH  16  23
ATOM     17  C   UNL     1      -3.972  10.434  15.963  0.00  0.00    +0.000 A 
ATOM     18  C   UNL     1      -4.483  11.315  16.897  0.00  0.00    +0.000 A 
ATOM     19  N   UNL     1      -3.796  11.751  17.976  0.00  0.00    +0.000 NA
ATOM     20  C   UNL     1      -2.548  11.290  18.152  0.00  0.00    +0.000 A 
ATOM     21  C   UNL     1      -1.807  11.733  19.240  0.00  0.00    +0.000 A 
ATOM     22  C   UNL     1      -0.499  11.293  19.479  0.00  0.00    +0.000 A 
ATOM     23  C   UNL     1       0.099  10.357  18.624  0.00  0.00    +0.000 A 
ATOM     24  C   UNL     1      -0.635   9.909  17.515  0.00  0.00    +0.000 A 
ATOM     25  C   UNL     1      -1.939  10.376  17.270  0.00  0.00    +0.000 A 
ATOM     26  C   UNL     1      -2.681   9.957  16.156  0.00  0.00    +0.000 A 
ENDBRANCH  16  23
ENDBRANCH   1  16
TORSDOF 3
ENDMDL
MODEL 6
REMARK VINA RESULT:      -7.8      2.393      4.637
REMARK  Name = 
REMARK  3 active torsions:
REMARK  status: ('A' for Active; 'I' for Inactive)
REMARK    1  A    between atoms: C_7  and  C_8
REMARK    2  A    between atoms: C_8  and  N_9
REMARK    3  A    between atoms: C_15  and  C_16
REMARK                            x       y       z     vdW  Elec       q    Type
REMARK                         _______ _______ _______ _____ _____    ______ ____
ROOT
ATOM      1  N   UNL     1       5.476   4.744  17.518  0.00  0.00    +0.000 N 
ATOM      2  C   UNL     1       6.437   5.418  18.229  0.00  0.00    +0.000 A 
ATOM      3  N   UNL     1       7.440   5.807  17.474  0.00  0.00    +0.000 NA
ATOM      4  C   UNL     1       7.127   5.353  16.226  0.00  0.00    +0.000 A 
ATOM      5  N   UNL     1       7.870   5.515  15.110  0.00  0.00    +0.000 NA
ATOM      6  C   UNL     1       7.308   4.915  14.031  0.00  0.00    +0.000 A 
ATOM      7  C   UNL     1       6.096   4.209  14.033  0.00  0.00    +0.000 A 
ATOM      8  N   UNL     1       5.318   4.090  15.152  0.00  0.00    +0.000 NA
ATOM      9  C   UNL     1       5.908   4.675  16.220  0.00  0.00    +0.000 A 
ENDROOT
BRANCH   7  10
ATOM     10  C   UNL     1       5.614   3.496  12.834  0.00  0.00    +0.000 A 
ATOM     11  C   UNL     1       6.355   2.455  12.253  0.00  0.00    +0.000 A 
ATOM     12  C   UNL     1       5.830   1.770  11.171  0.00  0.00    +0.000 A 
ATOM     13  N   UNL     1       4.646   2.065  10.606  0.00  0.00    +0.000 NA
ATOM     14  C   UNL     1       3.952   3.086  11.149  0.00  0.00    +0.000 A 
ATOM     15  C   UNL     1       4.382   3.812  12.248  0.00  0.00    +0.000 A 
ENDBRANCH   7  10
BRANCH   1  16
ATOM     16  C   UNL     1       4.192   4.308  18.034  0.00  0.00    +0.000 C 
BRANCH  16  23
ATOM     17  C   UNL     1       1.365   9.835  18.353  0.00  0.00    +0.000 A 
ATOM     18  C   UNL     1       0.909   9.639  19.643  0.00  0.00    +0.000 A 
ATOM     19  N   UNL     1       1.161   8.528  20.370  0.00  0.00    +0.000 NA
ATOM     20  C   UNL     1       1.889   7.557  19.798  0.00  0.00    +0.000 A 
ATOM     21  C   UNL     1       2.183   6.410  20.524  0.00  0.00    +0.000 A 
ATOM     22  C   UNL     1       2.940   5.362  19.987  0.00  0.00    +0.000 A 
ATOM     23  C   UNL     1       3.407   5.431  18.667  0.00  0.00    +0.000 A 
ATOM     24  C   UNL     1       3.126   6.589  17.925  0.00  0.00    +0.000 A 
ATOM     25  C   UNL     1       2.386   7.647  18.483  0.00  0.00    +0.000 A 
ATOM     26  C   UNL     1       2.112   8.821  17.765  0.00  0.00    +0.000 A 
ENDBRANCH  16  23
ENDBRANCH   1  16
TORSDOF 3
ENDMDL
MODEL 7
REMARK VINA RESULT:      -7.8      0.752      1.428
REMARK  Name = 
REMARK  3 active torsions:
REMARK  status: ('A' for Active; 'I' for Inactive)
REMARK    1  A    between atoms: C_7  and  C_8
REMARK    2  A    between atoms: C_8  and  N_9
REMARK    3  A    between atoms: C_15  and  C_16
REMARK                            x       y       z     vdW  Elec       q    Type
REMARK                         _______ _______ _______ _____ _____    ______ ____
ROOT
ATOM      1  N   UNL     1       1.907   4.986  20.102  0.00  0.00    +0.000 N 
ATOM      2  C   UNL     1       0.764   4.253  20.306  0.00  0.00    +0.000 A 
ATOM      3  N   UNL     1       0.659   3.244  19.469  0.00  0.00    +0.000 NA
ATOM      4  C   UNL     1       1.766   3.337  18.679  0.00  0.00    +0.000 A 
ATOM      5  N   UNL     1       2.091   2.508  17.664  0.00  0.00    +0.000 NA
ATOM      6  C   UNL     1       3.237   2.885  17.043  0.00  0.00    +0.000 A 
ATOM      7  C   UNL     1       4.023   3.993  17.392  0.00  0.00    +0.000 A 
ATOM      8  N   UNL     1       3.722   4.802  18.453  0.00  0.00    +0.000 NA
ATOM      9  C   UNL     1       2.565   4.421  19.042  0.00  0.00    +0.000 A 
ENDROOT
BRANCH   7  10
ATOM     10  C   UNL     1       5.198   4.390  16.591  0.00  0.00    +0.000 A 
ATOM     11  C   UNL     1       5.214   4.250  15.194  0.00  0.00    +0.000 A 
ATOM     12  C   UNL     1       6.310   4.702  14.480  0.00  0.00    +0.000 A 
ATOM     13  N   UNL     1       7.400   5.246  15.051  0.00  0.00    +0.000 NA
ATOM     14  C   UNL     1       7.391   5.350  16.395  0.00  0.00    +0.000 A 
ATOM     15  C   UNL     1       6.330   4.952  17.193  0.00  0.00    +0.000 A 
ENDBRANCH   7  10
BRANCH   1  16
ATOM     16  C   UNL     1       2.377   6.071  20.943  0.00  0.00    +0.000 C 
BRANCH  16  23
ATOM     17  C   UNL     1       0.556  11.434  18.382  0.00  0.00    +0.000 A 
ATOM     18  C   UNL     1      -0.484  11.622  19.273  0.00  0.00    +0.000 A 
ATOM     19  N   UNL     1      -0.771  10.773  20.285  0.00  0.00    +0.000 NA
ATOM     20  C   UNL     1      -0.004   9.681  20.423  0.00  0.00    +0.000 A 
ATOM     21  C   UNL     1      -0.259   8.798  21.464  0.00  0.00    +0.000 A 
ATOM     22  C   UNL     1       0.506   7.642  21.665  0.00  0.00    +0.000 A 
ATOM     23  C   UNL     1       1.553   7.326  20.788  0.00  0.00    +0.000 A 
ATOM     24  C   UNL     1       1.828   8.215  19.737  0.00  0.00    +0.000 A 
ATOM     25  C   UNL     1       1.069   9.386  19.559  0.00  0.00    +0.000 A 
ATOM     26  C   UNL     1       1.341  10.297  18.528  0.00  0.00    +0.000 A 
ENDBRANCH  16  23
ENDBRANCH   1  16
TORSDOF 3
ENDMDL
MODEL 8
REMARK VINA RESULT:      -7.7      2.800      5.330
REMARK  Name = 
REMARK  3 active torsions:
REMARK  status: ('A' for Active; 'I' for Inactive)
REMARK    1  A    between atoms: C_7  and  C_8
REMARK    2  A    between atoms: C_8  and  N_9
REMARK    3  A    between atoms: C_15  and  C_16
REMARK                            x       y       z     vdW  Elec       q    Type
REMARK                         _______ _______ _______ _____ _____    ______ ____
ROOT
ATOM      1  N   UNL     1       1.525   9.272  19.135  0.00  0.00    +0.000 N 
ATOM      2  C   UNL     1       1.985  10.086  18.130  0.00  0.00    +0.000 A 
ATOM      3  N   UNL     1       2.795   9.457  17.307  0.00  0.00    +0.000 NA
ATOM      4  C   UNL     1       2.879   8.192  17.808  0.00  0.00    +0.000 A 
ATOM      5  N   UNL     1       3.606   7.178  17.291  0.00  0.00    +0.000 NA
ATOM      6  C   UNL     1       3.514   6.050  18.039  0.00  0.00    +0.000 A 
ATOM      7  C   UNL     1       2.756   5.912  19.211  0.00  0.00    +0.000 A 
ATOM      8  N   UNL     1       1.978   6.923  19.705  0.00  0.00    +0.000 NA
ATOM      9  C   UNL     1       2.104   8.044  18.957  0.00  0.00    +0.000 A 
ENDROOT
BRANCH   7  10
ATOM     10  C   UNL     1       2.800   4.678  20.020  0.00  0.00    +0.000 A 
ATOM     11  C   UNL     1       3.747   3.672  19.770  0.00  0.00    +0.000 A 
ATOM     12  C   UNL     1       3.795   2.565  20.600  0.00  0.00    +0.000 A 
ATOM     13  N   UNL     1       2.953   2.369  21.631  0.00  0.00    +0.000 NA
ATOM     14  C   UNL     1       2.027   3.324  21.847  0.00  0.00    +0.000 A 
ATOM     15  C   UNL     1       1.919   4.479  21.090  0.00  0.00    +0.000 A 
ENDBRANCH   7  10
BRANCH   1  16
ATOM     16  C   UNL     1       0.517   9.628  20.117  0.00  0.00    +0.000 C 
BRANCH  16  23
ATOM     17  C   UNL     1      -3.939  10.547  15.882  0.00  0.00    +0.000 A 
ATOM     18  C   UNL     1      -4.553  11.556  16.601  0.00  0.00    +0.000 A 
ATOM     19  N   UNL     1      -4.106  12.010  17.793  0.00  0.00    +0.000 NA
ATOM     20  C   UNL     1      -3.007  11.439  18.309  0.00  0.00    +0.000 A 
ATOM     21  C   UNL     1      -2.510  11.895  19.523  0.00  0.00    +0.000 A 
ATOM     22  C   UNL     1      -1.366  11.344  20.114  0.00  0.00    +0.000 A 
ATOM     23  C   UNL     1      -0.695  10.279  19.497  0.00  0.00    +0.000 A 
ATOM     24  C   UNL     1      -1.181   9.814  18.265  0.00  0.00    +0.000 A 
ATOM     25  C   UNL     1      -2.317  10.392  17.668  0.00  0.00    +0.000 A 
ATOM     26  C   UNL     1      -2.806   9.956  16.427  0.00  0.00    +0.000 A 
ENDBRANCH  16  23
ENDBRANCH   1  16
TORSDOF 3
ENDMDL
MODEL 9
REMARK VINA RESULT:      -7.7      2.346      3.588
REMARK  Name = 
REMARK  3 active torsions:
REMARK  status: ('A' for Active; 'I' for Inactive)
REMARK    1  A    between atoms: C_7  and  C_8
REMARK    2  A    between atoms: C_8  and  N_9
REMARK    3  A    between atoms: C_15  and  C_16
REMARK                            x       y       z     vdW  Elec       q    Type
REMARK                         _______ _______ _______ _____ _____    ______ ____
ROOT
ATOM      1  N   UNL     1       1.763   8.284  19.330  0.00  0.00    +0.000 N 
ATOM      2  C   UNL     1       1.114   8.052  20.517  0.00  0.00    +0.000 A 
ATOM      3  N   UNL     1       1.437   6.892  21.046  0.00  0.00    +0.000 NA
ATOM      4  C   UNL     1       2.315   6.342  20.159  0.00  0.00    +0.000 A 
ATOM      5  N   UNL     1       2.920   5.141  20.279  0.00  0.00    +0.000 NA
ATOM      6  C   UNL     1       3.710   4.859  19.212  0.00  0.00    +0.000 A 
ATOM      7  C   UNL     1       3.907   5.694  18.103  0.00  0.00    +0.000 A 
ATOM      8  N   UNL     1       3.335   6.933  18.007  0.00  0.00    +0.000 NA
ATOM      9  C   UNL     1       2.534   7.184  19.069  0.00  0.00    +0.000 A 
ENDROOT
BRANCH   7  10
ATOM     10  C   UNL     1       4.701   5.257  16.937  0.00  0.00    +0.000 A 
ATOM     11  C   UNL     1       5.027   3.907  16.738  0.00  0.00    +0.000 A 
ATOM     12  C   UNL     1       5.713   3.537  15.594  0.00  0.00    +0.000 A 
ATOM     13  N   UNL     1       6.126   4.409  14.657  0.00  0.00    +0.000 NA
ATOM     14  C   UNL     1       5.835   5.709  14.869  0.00  0.00    +0.000 A 
ATOM     15  C   UNL     1       5.130   6.172  15.968  0.00  0.00    +0.000 A 
ENDBRANCH   7  10
BRANCH   1  16
ATOM     16  C   UNL     1       1.725   9.523  18.574  0.00  0.00    +0.000 C 
BRANCH  16  23
ATOM     17  C   UNL     1      -4.158  10.625  16.895  0.00  0.00    +0.000 A 
ATOM     18  C   UNL     1      -4.365  11.575  17.877  0.00  0.00    +0.000 A 
ATOM     19  N   UNL     1      -3.420  11.961  18.763  0.00  0.00    +0.000 NA
ATOM     20  C   UNL     1      -2.213  11.379  18.685  0.00  0.00    +0.000 A 
ATOM     21  C   UNL     1      -1.213  11.768  19.567  0.00  0.00    +0.000 A 
ATOM     22  C   UNL     1       0.068  11.201  19.537  0.00  0.00    +0.000 A 
ATOM     23  C   UNL     1       0.371  10.189  18.615  0.00  0.00    +0.000 A 
ATOM     24  C   UNL     1      -0.627   9.794  17.712  0.00  0.00    +0.000 A 
ATOM     25  C   UNL     1      -1.903  10.387  17.734  0.00  0.00    +0.000 A 
ATOM     26  C   UNL     1      -2.908  10.021  16.826  0.00  0.00    +0.000 A 
ENDBRANCH  16  23
ENDBRANCH   1  16
TORSDOF 3
ENDMDL
