MODEL 1
REMARK VINA RESULT:      -8.7      0.000      0.000
REMARK  Name = 
REMARK  7 active torsions:
REMARK  status: ('A' for Active; 'I' for Inactive)
REMARK    1  A    between atoms: C_1  and  C_2
REMARK    2  A    between atoms: C_2  and  N_3
REMARK    3  A    between atoms: N_3  and  C_4
REMARK    4  A    between atoms: N_3  and  S_6
REMARK    5  A    between atoms: C_4  and  C_5
REMARK    6  A    between atoms: S_6  and  C_9
REMARK    7  A    between atoms: C_14  and  C_15
REMARK                            x       y       z     vdW  Elec       q    Type
REMARK                         _______ _______ _______ _____ _____    ______ ____
ROOT
ATOM      1  C   UNL     1       4.544   4.996  16.849  0.00  0.00    +0.000 A 
ATOM      2  C   UNL     1       4.132   3.674  16.710  0.00  0.00    +0.000 A 
ATOM      3  C   UNL     1       3.082   3.213  17.504  0.00  0.00    +0.000 A 
ATOM      4  C   UNL     1       2.501   4.041  18.483  0.00  0.00    +0.000 A 
ATOM      5 CL   UNL     1       1.218   3.349  19.411  0.00  0.00    +0.000 Cl
ATOM      6  C   UNL     1       2.969   5.353  18.669  0.00  0.00    +0.000 A 
ATOM      7  C   UNL     1       3.939   5.839  17.784  0.00  0.00    +0.000 A 
ENDROOT
BRANCH   6   8
ATOM      8  C   UNL     1       2.414   6.278  19.708  0.00  0.00    +0.000 C 
ATOM      9  O   UNL     1       2.301   5.820  20.844  0.00  0.00    +0.000 OA
ATOM     10  N   UNL     1       2.022   7.562  19.327  0.00  0.00    +0.000 N 
ATOM     11  C   UNL     1       2.089   8.176  17.976  0.00  0.00    +0.000 C 
ATOM     12  C   UNL     1       1.547   9.603  18.058  0.00  0.00    +0.000 C 
ATOM     13  C   UNL     1       1.035   9.654  19.457  0.00  0.00    +0.000 A 
ATOM     14  C   UNL     1       0.312  10.688  20.032  0.00  0.00    +0.000 A 
ATOM     15  C   UNL     1      -0.024  10.586  21.380  0.00  0.00    +0.000 A 
ATOM     16  C   UNL     1       0.383   9.470  22.126  0.00  0.00    +0.000 A 
ATOM     17  C   UNL     1       1.092   8.422  21.525  0.00  0.00    +0.000 A 
ATOM     18  C   UNL     1       1.391   8.509  20.177  0.00  0.00    +0.000 A 
ENDBRANCH   6   8
BRANCH   1  19
ATOM     19  S   UNL     1       5.883   5.612  15.863  0.00  0.00    +0.000 S 
ATOM     20  O   UNL     1       5.393   6.784  15.171  0.00  0.00    +0.000 OA
ATOM     21  O   UNL     1       6.446   4.493  15.133  0.00  0.00    +0.000 OA
BRANCH  19  22
ATOM     22  N   UNL     1       7.026   6.106  17.037  0.00  0.00    +0.000 NA
BRANCH  22  24
ATOM     23  C   UNL     1       8.030   8.327  17.629  0.00  0.00    +0.000 C 
ATOM     24  C   UNL     1       6.781   7.464  17.605  0.00  0.00    +0.000 C 
ENDBRANCH  22  24
BRANCH  22  25
ATOM     25  C   UNL     1       7.372   5.045  18.031  0.00  0.00    +0.000 C 
ATOM     26  C   UNL     1       7.181   5.481  19.473  0.00  0.00    +0.000 C 
ENDBRANCH  22  25
ENDBRANCH  19  22
ENDBRANCH   1  19
TORSDOF 5
ENDMDL
MODEL 2
REMARK VINA RESULT:      -8.6      0.412      1.256
REMARK  Name = 
REMARK  7 active torsions:
REMARK  status: ('A' for Active; 'I' for Inactive)
REMARK    1  A    between atoms: C_1  and  C_2
REMARK    2  A    between atoms: C_2  and  N_3
REMARK    3  A    between atoms: N_3  and  C_4
REMARK    4  A    between atoms: N_3  and  S_6
REMARK    5  A    between atoms: C_4  and  C_5
REMARK    6  A    between atoms: S_6  and  C_9
REMARK    7  A    between atoms: C_14  and  C_15
REMARK                            x       y       z     vdW  Elec       q    Type
REMARK                         _______ _______ _______ _____ _____    ______ ____
ROOT
ATOM      1  C   UNL     1       4.609   5.035  17.085  0.00  0.00    +0.000 A 
ATOM      2  C   UNL     1       4.091   3.771  16.817  0.00  0.00    +0.000 A 
ATOM      3  C   UNL     1       2.923   3.375  17.468  0.00  0.00    +0.000 A 
ATOM      4  C   UNL     1       2.321   4.201  18.436  0.00  0.00    +0.000 A 
ATOM      5 CL   UNL     1       0.886   3.591  19.181  0.00  0.00    +0.000 Cl
ATOM      6  C   UNL     1       2.889   5.447  18.756  0.00  0.00    +0.000 A 
ATOM      7  C   UNL     1       3.990   5.881  18.007  0.00  0.00    +0.000 A 
ENDROOT
BRANCH   6   8
ATOM      8  C   UNL     1       2.315   6.362  19.792  0.00  0.00    +0.000 C 
ATOM      9  O   UNL     1       2.172   5.893  20.920  0.00  0.00    +0.000 OA
ATOM     10  N   UNL     1       1.939   7.654  19.417  0.00  0.00    +0.000 N 
ATOM     11  C   UNL     1       2.041   8.282  18.075  0.00  0.00    +0.000 C 
ATOM     12  C   UNL     1       1.506   9.712  18.161  0.00  0.00    +0.000 C 
ATOM     13  C   UNL     1       0.962   9.750  19.548  0.00  0.00    +0.000 A 
ATOM     14  C   UNL     1       0.233  10.781  20.118  0.00  0.00    +0.000 A 
ATOM     15  C   UNL     1      -0.136  10.666  21.457  0.00  0.00    +0.000 A 
ATOM     16  C   UNL     1       0.247   9.540  22.199  0.00  0.00    +0.000 A 
ATOM     17  C   UNL     1       0.964   8.494  21.603  0.00  0.00    +0.000 A 
ATOM     18  C   UNL     1       1.295   8.595  20.263  0.00  0.00    +0.000 A 
ENDBRANCH   6   8
BRANCH   1  19
ATOM     19  S   UNL     1       6.099   5.567  16.283  0.00  0.00    +0.000 S 
ATOM     20  O   UNL     1       5.709   6.483  15.234  0.00  0.00    +0.000 OA
ATOM     21  O   UNL     1       6.890   4.387  15.991  0.00  0.00    +0.000 OA
BRANCH  19  22
ATOM     22  N   UNL     1       6.900   6.450  17.512  0.00  0.00    +0.000 NA
BRANCH  22  24
ATOM     23  C   UNL     1       7.350   5.498  19.788  0.00  0.00    +0.000 C 
ATOM     24  C   UNL     1       7.826   5.636  18.353  0.00  0.00    +0.000 C 
ENDBRANCH  22  24
BRANCH  22  25
ATOM     25  C   UNL     1       7.432   7.771  17.060  0.00  0.00    +0.000 C 
ATOM     26  C   UNL     1       8.249   8.489  18.120  0.00  0.00    +0.000 C 
ENDBRANCH  22  25
ENDBRANCH  19  22
ENDBRANCH   1  19
TORSDOF 5
ENDMDL
MODEL 3
REMARK VINA RESULT:      -8.6      1.554      2.023
REMARK  Name = 
REMARK  7 active torsions:
REMARK  status: ('A' for Active; 'I' for Inactive)
REMARK    1  A    between atoms: C_1  and  C_2
REMARK    2  A    between atoms: C_2  and  N_3
REMARK    3  A    between atoms: N_3  and  C_4
REMARK    4  A    between atoms: N_3  and  S_6
REMARK    5  A    between atoms: C_4  and  C_5
REMARK    6  A    between atoms: S_6  and  C_9
REMARK    7  A    between atoms: C_14  and  C_15
REMARK                            x       y       z     vdW  Elec       q    Type
REMARK                         _______ _______ _______ _____ _____    ______ ____
ROOT
ATOM      1  C   UNL     1       5.677   4.753  18.233  0.00  0.00    +0.000 A 
ATOM      2  C   UNL     1       5.221   3.559  17.683  0.00  0.00    +0.000 A 
ATOM      3  C   UNL     1       3.867   3.244  17.796  0.00  0.00    +0.000 A 
ATOM      4  C   UNL     1       2.991   4.076  18.518  0.00  0.00    +0.000 A 
ATOM      5 CL   UNL     1       1.341   3.569  18.596  0.00  0.00    +0.000 Cl
ATOM      6  C   UNL     1       3.471   5.245  19.134  0.00  0.00    +0.000 A 
ATOM      7  C   UNL     1       4.804   5.609  18.910  0.00  0.00    +0.000 A 
ENDROOT
BRANCH   6   8
ATOM      8  C   UNL     1       2.599   6.160  19.938  0.00  0.00    +0.000 C 
ATOM      9  O   UNL     1       2.208   5.731  21.022  0.00  0.00    +0.000 OA
ATOM     10  N   UNL     1       2.251   7.401  19.402  0.00  0.00    +0.000 N 
ATOM     11  C   UNL     1       2.647   7.975  18.092  0.00  0.00    +0.000 C 
ATOM     12  C   UNL     1       2.020   9.364  17.955  0.00  0.00    +0.000 C 
ATOM     13  C   UNL     1       1.145   9.421  19.159  0.00  0.00    +0.000 A 
ATOM     14  C   UNL     1       0.232  10.419  19.466  0.00  0.00    +0.000 A 
ATOM     15  C   UNL     1      -0.452  10.336  20.676  0.00  0.00    +0.000 A 
ATOM     16  C   UNL     1      -0.199   9.275  21.558  0.00  0.00    +0.000 A 
ATOM     17  C   UNL     1       0.708   8.261  21.223  0.00  0.00    +0.000 A 
ATOM     18  C   UNL     1       1.358   8.327  20.003  0.00  0.00    +0.000 A 
ENDBRANCH   6   8
BRANCH   1  19
ATOM     19  S   UNL     1       7.395   5.180  18.119  0.00  0.00    +0.000 S 
ATOM     20  O   UNL     1       8.089   4.006  17.636  0.00  0.00    +0.000 OA
ATOM     21  O   UNL     1       7.776   5.815  19.365  0.00  0.00    +0.000 OA
BRANCH  19  22
ATOM     22  N   UNL     1       7.412   6.371  16.890  0.00  0.00    +0.000 NA
BRANCH  22  24
ATOM     23  C   UNL     1       5.415   6.462  15.376  0.00  0.00    +0.000 C 
ATOM     24  C   UNL     1       6.820   5.930  15.594  0.00  0.00    +0.000 C 
ENDBRANCH  22  24
BRANCH  22  25
ATOM     25  C   UNL     1       7.001   7.730  17.357  0.00  0.00    +0.000 C 
ATOM     26  C   UNL     1       8.171   8.609  17.765  0.00  0.00    +0.000 C 
ENDBRANCH  22  25
ENDBRANCH  19  22
ENDBRANCH   1  19
TORSDOF 5
ENDMDL
MODEL 4
REMARK VINA RESULT:      -8.4      1.726      2.034
REMARK  Name = 
REMARK  7 active torsions:
REMARK  status: ('A' for Active; 'I' for Inactive)
REMARK    1  A    between atoms: C_1  and  C_2
REMARK    2  A    between atoms: C_2  and  N_3
REMARK    3  A    between atoms: N_3  and  C_4
REMARK    4  A    between atoms: N_3  and  S_6
REMARK    5  A    between atoms: C_4  and  C_5
REMARK    6  A    between atoms: S_6  and  C_9
REMARK    7  A    between atoms: C_14  and  C_15
REMARK                            x       y       z     vdW  Elec       q    Type
REMARK                         _______ _______ _______ _____ _____    ______ ____
ROOT
ATOM      1  C   UNL     1       5.356   4.809  18.933  0.00  0.00    +0.000 A 
ATOM      2  C   UNL     1       4.902   3.538  18.595  0.00  0.00    +0.000 A 
ATOM      3  C   UNL     1       3.538   3.265  18.701  0.00  0.00    +0.000 A 
ATOM      4  C   UNL     1       2.647   4.227  19.213  0.00  0.00    +0.000 A 
ATOM      5 CL   UNL     1       0.985   3.763  19.305  0.00  0.00    +0.000 Cl
ATOM      6  C   UNL     1       3.123   5.486  19.620  0.00  0.00    +0.000 A 
ATOM      7  C   UNL     1       4.472   5.786  19.395  0.00  0.00    +0.000 A 
ENDROOT
BRANCH   6   8
ATOM      8  C   UNL     1       2.234   6.545  20.196  0.00  0.00    +0.000 C 
ATOM      9  O   UNL     1       1.713   6.293  21.281  0.00  0.00    +0.000 OA
ATOM     10  N   UNL     1       2.017   7.714  19.464  0.00  0.00    +0.000 N 
ATOM     11  C   UNL     1       2.575   8.078  18.137  0.00  0.00    +0.000 C 
ATOM     12  C   UNL     1       2.051   9.462  17.748  0.00  0.00    +0.000 C 
ATOM     13  C   UNL     1       1.067   9.730  18.833  0.00  0.00    +0.000 A 
ATOM     14  C   UNL     1       0.192  10.803  18.905  0.00  0.00    +0.000 A 
ATOM     15  C   UNL     1      -0.611  10.924  20.036  0.00  0.00    +0.000 A 
ATOM     16  C   UNL     1      -0.512   9.988  21.075  0.00  0.00    +0.000 A 
ATOM     17  C   UNL     1       0.359   8.895  20.978  0.00  0.00    +0.000 A 
ATOM     18  C   UNL     1       1.129   8.757  19.836  0.00  0.00    +0.000 A 
ENDBRANCH   6   8
BRANCH   1  19
ATOM     19  S   UNL     1       7.086   5.187  18.822  0.00  0.00    +0.000 S 
ATOM     20  O   UNL     1       7.691   4.156  18.008  0.00  0.00    +0.000 OA
ATOM     21  O   UNL     1       7.565   5.460  20.163  0.00  0.00    +0.000 OA
BRANCH  19  22
ATOM     22  N   UNL     1       7.100   6.657  17.946  0.00  0.00    +0.000 NA
BRANCH  22  24
ATOM     23  C   UNL     1       8.002   8.990  17.758  0.00  0.00    +0.000 C 
ATOM     24  C   UNL     1       8.189   7.599  18.337  0.00  0.00    +0.000 C 
ENDBRANCH  22  24
BRANCH  22  25
ATOM     25  C   UNL     1       6.892   6.488  16.476  0.00  0.00    +0.000 C 
ATOM     26  C   UNL     1       5.432   6.539  16.061  0.00  0.00    +0.000 C 
ENDBRANCH  22  25
ENDBRANCH  19  22
ENDBRANCH   1  19
TORSDOF 5
ENDMDL
MODEL 5
REMARK VINA RESULT:      -8.0      1.315      1.825
REMARK  Name = 
REMARK  7 active torsions:
REMARK  status: ('A' for Active; 'I' for Inactive)
REMARK    1  A    between atoms: C_1  and  C_2
REMARK    2  A    between atoms: C_2  and  N_3
REMARK    3  A    between atoms: N_3  and  C_4
REMARK    4  A    between atoms: N_3  and  S_6
REMARK    5  A    between atoms: C_4  and  C_5
REMARK    6  A    between atoms: S_6  and  C_9
REMARK    7  A    between atoms: C_14  and  C_15
REMARK                            x       y       z     vdW  Elec       q    Type
REMARK                         _______ _______ _______ _____ _____    ______ ____
ROOT
ATOM      1  C   UNL     1       4.243   5.711  17.132  0.00  0.00    +0.000 A 
ATOM      2  C   UNL     1       3.855   4.393  16.918  0.00  0.00    +0.000 A 
ATOM      3  C   UNL     1       2.804   3.874  17.675  0.00  0.00    +0.000 A 
ATOM      4  C   UNL     1       2.200   4.639  18.690  0.00  0.00    +0.000 A 
ATOM      5 CL   UNL     1       0.919   3.878  19.565  0.00  0.00    +0.000 Cl
ATOM      6  C   UNL     1       2.645   5.946  18.952  0.00  0.00    +0.000 A 
ATOM      7  C   UNL     1       3.616   6.494  18.104  0.00  0.00    +0.000 A 
ENDROOT
BRANCH   6   8
ATOM      8  C   UNL     1       2.064   6.804  20.032  0.00  0.00    +0.000 C 
ATOM      9  O   UNL     1       1.943   6.284  21.140  0.00  0.00    +0.000 OA
ATOM     10  N   UNL     1       1.658   8.103  19.717  0.00  0.00    +0.000 N 
ATOM     11  C   UNL     1       1.733   8.790  18.402  0.00  0.00    +0.000 C 
ATOM     12  C   UNL     1       1.171  10.204  18.556  0.00  0.00    +0.000 C 
ATOM     13  C   UNL     1       0.641  10.171  19.948  0.00  0.00    +0.000 A 
ATOM     14  C   UNL     1      -0.103  11.162  20.570  0.00  0.00    +0.000 A 
ATOM     15  C   UNL     1      -0.454  10.982  21.905  0.00  0.00    +0.000 A 
ATOM     16  C   UNL     1      -0.041   9.832  22.595  0.00  0.00    +0.000 A 
ATOM     17  C   UNL     1       0.690   8.828  21.946  0.00  0.00    +0.000 A 
ATOM     18  C   UNL     1       1.004   8.993  20.609  0.00  0.00    +0.000 A 
ENDBRANCH   6   8
BRANCH   1  19
ATOM     19  S   UNL     1       5.583   6.400  16.196  0.00  0.00    +0.000 S 
ATOM     20  O   UNL     1       6.300   7.293  17.081  0.00  0.00    +0.000 OA
ATOM     21  O   UNL     1       5.045   6.871  14.934  0.00  0.00    +0.000 OA
BRANCH  19  22
ATOM     22  N   UNL     1       6.568   5.037  15.877  0.00  0.00    +0.000 NA
BRANCH  22  24
ATOM     23  C   UNL     1       6.011   3.822  13.754  0.00  0.00    +0.000 C 
ATOM     24  C   UNL     1       6.905   4.843  14.436  0.00  0.00    +0.000 C 
ENDBRANCH  22  24
BRANCH  22  25
ATOM     25  C   UNL     1       7.705   4.873  16.832  0.00  0.00    +0.000 C 
ATOM     26  C   UNL     1       7.263   4.539  18.246  0.00  0.00    +0.000 C 
ENDBRANCH  22  25
ENDBRANCH  19  22
ENDBRANCH   1  19
TORSDOF 5
ENDMDL
MODEL 6
REMARK VINA RESULT:      -7.7      1.731      2.198
REMARK  Name = 
REMARK  7 active torsions:
REMARK  status: ('A' for Active; 'I' for Inactive)
REMARK    1  A    between atoms: C_1  and  C_2
REMARK    2  A    between atoms: C_2  and  N_3
REMARK    3  A    between atoms: N_3  and  C_4
REMARK    4  A    between atoms: N_3  and  S_6
REMARK    5  A    between atoms: C_4  and  C_5
REMARK    6  A    between atoms: S_6  and  C_9
REMARK    7  A    between atoms: C_14  and  C_15
REMARK                            x       y       z     vdW  Elec       q    Type
REMARK                         _______ _______ _______ _____ _____    ______ ____
ROOT
ATOM      1  C   UNL     1       5.489   4.726  18.141  0.00  0.00    +0.000 A 
ATOM      2  C   UNL     1       5.024   3.484  17.721  0.00  0.00    +0.000 A 
ATOM      3  C   UNL     1       3.692   3.150  17.968  0.00  0.00    +0.000 A 
ATOM      4  C   UNL     1       2.854   4.016  18.696  0.00  0.00    +0.000 A 
ATOM      5 CL   UNL     1       1.230   3.482  18.946  0.00  0.00    +0.000 Cl
ATOM      6  C   UNL     1       3.350   5.238  19.181  0.00  0.00    +0.000 A 
ATOM      7  C   UNL     1       4.651   5.612  18.822  0.00  0.00    +0.000 A 
ENDROOT
BRANCH   6   8
ATOM      8  C   UNL     1       2.521   6.193  19.984  0.00  0.00    +0.000 C 
ATOM      9  O   UNL     1       2.142   5.798  21.085  0.00  0.00    +0.000 OA
ATOM     10  N   UNL     1       2.195   7.432  19.429  0.00  0.00    +0.000 N 
ATOM     11  C   UNL     1       2.578   7.968  18.098  0.00  0.00    +0.000 C 
ATOM     12  C   UNL     1       1.985   9.369  17.945  0.00  0.00    +0.000 C 
ATOM     13  C   UNL     1       1.138   9.476  19.165  0.00  0.00    +0.000 A 
ATOM     14  C   UNL     1       0.259  10.505  19.471  0.00  0.00    +0.000 A 
ATOM     15  C   UNL     1      -0.400  10.466  20.697  0.00  0.00    +0.000 A 
ATOM     16  C   UNL     1      -0.157   9.417  21.596  0.00  0.00    +0.000 A 
ATOM     17  C   UNL     1       0.715   8.372  21.263  0.00  0.00    +0.000 A 
ATOM     18  C   UNL     1       1.340   8.395  20.028  0.00  0.00    +0.000 A 
ENDBRANCH   6   8
BRANCH   1  19
ATOM     19  S   UNL     1       7.180   5.179  17.855  0.00  0.00    +0.000 S 
ATOM     20  O   UNL     1       7.955   3.958  17.889  0.00  0.00    +0.000 OA
ATOM     21  O   UNL     1       7.495   6.289  18.733  0.00  0.00    +0.000 OA
BRANCH  19  22
ATOM     22  N   UNL     1       7.152   5.766  16.248  0.00  0.00    +0.000 NA
BRANCH  22  24
ATOM     23  C   UNL     1       7.539   5.124  13.855  0.00  0.00    +0.000 C 
ATOM     24  C   UNL     1       6.987   4.710  15.207  0.00  0.00    +0.000 C 
ENDBRANCH  22  24
BRANCH  22  25
ATOM     25  C   UNL     1       6.314   6.990  16.065  0.00  0.00    +0.000 C 
ATOM     26  C   UNL     1       4.956   6.706  15.446  0.00  0.00    +0.000 C 
ENDBRANCH  22  25
ENDBRANCH  19  22
ENDBRANCH   1  19
TORSDOF 5
ENDMDL
MODEL 7
REMARK VINA RESULT:      -7.6      1.836      2.403
REMARK  Name = 
REMARK  7 active torsions:
REMARK  status: ('A' for Active; 'I' for Inactive)
REMARK    1  A    between atoms: C_1  and  C_2
REMARK    2  A    between atoms: C_2  and  N_3
REMARK    3  A    between atoms: N_3  and  C_4
REMARK    4  A    between atoms: N_3  and  S_6
REMARK    5  A    between atoms: C_4  and  C_5
REMARK    6  A    between atoms: S_6  and  C_9
REMARK    7  A    between atoms: C_14  and  C_15
REMARK                            x       y       z     vdW  Elec       q    Type
REMARK                         _______ _______ _______ _____ _____    ______ ____
ROOT
ATOM      1  C   UNL     1       5.219   4.936  16.979  0.00  0.00    +0.000 A 
ATOM      2  C   UNL     1       4.677   3.710  16.606  0.00  0.00    +0.000 A 
ATOM      3  C   UNL     1       3.440   3.338  17.133  0.00  0.00    +0.000 A 
ATOM      4  C   UNL     1       2.787   4.147  18.082  0.00  0.00    +0.000 A 
ATOM      5 CL   UNL     1       1.268   3.570  18.669  0.00  0.00    +0.000 Cl
ATOM      6  C   UNL     1       3.375   5.351  18.510  0.00  0.00    +0.000 A 
ATOM      7  C   UNL     1       4.555   5.768  17.883  0.00  0.00    +0.000 A 
ENDROOT
BRANCH   6   8
ATOM      8  C   UNL     1       2.747   6.245  19.535  0.00  0.00    +0.000 C 
ATOM      9  O   UNL     1       2.662   5.795  20.676  0.00  0.00    +0.000 OA
ATOM     10  N   UNL     1       2.264   7.493  19.135  0.00  0.00    +0.000 N 
ATOM     11  C   UNL     1       2.294   8.092  17.777  0.00  0.00    +0.000 C 
ATOM     12  C   UNL     1       1.649   9.478  17.839  0.00  0.00    +0.000 C 
ATOM     13  C   UNL     1       1.127   9.508  19.234  0.00  0.00    +0.000 A 
ATOM     14  C   UNL     1       0.328  10.493  19.793  0.00  0.00    +0.000 A 
ATOM     15  C   UNL     1      -0.007  10.384  21.140  0.00  0.00    +0.000 A 
ATOM     16  C   UNL     1       0.476   9.310  21.903  0.00  0.00    +0.000 A 
ATOM     17  C   UNL     1       1.263   8.309  21.318  0.00  0.00    +0.000 A 
ATOM     18  C   UNL     1       1.562   8.401  19.970  0.00  0.00    +0.000 A 
ENDBRANCH   6   8
BRANCH   1  19
ATOM     19  S   UNL     1       6.796   5.436  16.337  0.00  0.00    +0.000 S 
ATOM     20  O   UNL     1       7.760   4.451  16.777  0.00  0.00    +0.000 OA
ATOM     21  O   UNL     1       6.971   6.843  16.642  0.00  0.00    +0.000 OA
BRANCH  19  22
ATOM     22  N   UNL     1       6.587   5.282  14.646  0.00  0.00    +0.000 NA
BRANCH  22  24
ATOM     23  C   UNL     1       8.281   5.813  12.874  0.00  0.00    +0.000 C 
ATOM     24  C   UNL     1       7.800   4.816  13.913  0.00  0.00    +0.000 C 
ENDBRANCH  22  24
BRANCH  22  25
ATOM     25  C   UNL     1       5.303   4.627  14.250  0.00  0.00    +0.000 C 
ATOM     26  C   UNL     1       5.427   3.748  13.018  0.00  0.00    +0.000 C 
ENDBRANCH  22  25
ENDBRANCH  19  22
ENDBRANCH   1  19
TORSDOF 5
ENDMDL
MODEL 8
REMARK VINA RESULT:      -7.5      1.294      1.877
REMARK  Name = 
REMARK  7 active torsions:
REMARK  status: ('A' for Active; 'I' for Inactive)
REMARK    1  A    between atoms: C_1  and  C_2
REMARK    2  A    between atoms: C_2  and  N_3
REMARK    3  A    between atoms: N_3  and  C_4
REMARK    4  A    between atoms: N_3  and  S_6
REMARK    5  A    between atoms: C_4  and  C_5
REMARK    6  A    between atoms: S_6  and  C_9
REMARK    7  A    between atoms: C_14  and  C_15
REMARK                            x       y       z     vdW  Elec       q    Type
REMARK                         _______ _______ _______ _____ _____    ______ ____
ROOT
ATOM      1  C   UNL     1       4.444   5.835  16.995  0.00  0.00    +0.000 A 
ATOM      2  C   UNL     1       4.131   4.508  16.720  0.00  0.00    +0.000 A 
ATOM      3  C   UNL     1       3.117   3.893  17.454  0.00  0.00    +0.000 A 
ATOM      4  C   UNL     1       2.474   4.573  18.505  0.00  0.00    +0.000 A 
ATOM      5 CL   UNL     1       1.244   3.698  19.347  0.00  0.00    +0.000 Cl
ATOM      6  C   UNL     1       2.843   5.891  18.827  0.00  0.00    +0.000 A 
ATOM      7  C   UNL     1       3.776   6.534  18.004  0.00  0.00    +0.000 A 
ENDROOT
BRANCH   6   8
ATOM      8  C   UNL     1       2.218   6.662  19.948  0.00  0.00    +0.000 C 
ATOM      9  O   UNL     1       2.101   6.072  21.021  0.00  0.00    +0.000 OA
ATOM     10  N   UNL     1       1.771   7.963  19.704  0.00  0.00    +0.000 N 
ATOM     11  C   UNL     1       1.839   8.730  18.434  0.00  0.00    +0.000 C 
ATOM     12  C   UNL     1       1.224  10.111  18.663  0.00  0.00    +0.000 C 
ATOM     13  C   UNL     1       0.678   9.976  20.043  0.00  0.00    +0.000 A 
ATOM     14  C   UNL     1      -0.108  10.902  20.711  0.00  0.00    +0.000 A 
ATOM     15  C   UNL     1      -0.470  10.630  22.028  0.00  0.00    +0.000 A 
ATOM     16  C   UNL     1      -0.026   9.456  22.654  0.00  0.00    +0.000 A 
ATOM     17  C   UNL     1       0.749   8.519  21.958  0.00  0.00    +0.000 A 
ATOM     18  C   UNL     1       1.075   8.774  20.638  0.00  0.00    +0.000 A 
ENDBRANCH   6   8
BRANCH   1  19
ATOM     19  S   UNL     1       5.736   6.645  16.089  0.00  0.00    +0.000 S 
ATOM     20  O   UNL     1       6.281   7.667  16.956  0.00  0.00    +0.000 OA
ATOM     21  O   UNL     1       5.216   6.976  14.777  0.00  0.00    +0.000 OA
BRANCH  19  22
ATOM     22  N   UNL     1       6.903   5.408  15.899  0.00  0.00    +0.000 NA
BRANCH  22  24
ATOM     23  C   UNL     1       7.741   4.724  18.161  0.00  0.00    +0.000 C 
ATOM     24  C   UNL     1       6.877   4.365  16.965  0.00  0.00    +0.000 C 
ENDBRANCH  22  24
BRANCH  22  25
ATOM     25  C   UNL     1       7.021   4.896  14.499  0.00  0.00    +0.000 C 
ATOM     26  C   UNL     1       6.148   3.685  14.222  0.00  0.00    +0.000 C 
ENDBRANCH  22  25
ENDBRANCH  19  22
ENDBRANCH   1  19
TORSDOF 5
ENDMDL
MODEL 9
REMARK VINA RESULT:      -7.5      1.453      2.072
REMARK  Name = 
REMARK  7 active torsions:
REMARK  status: ('A' for Active; 'I' for Inactive)
REMARK    1  A    between atoms: C_1  and  C_2
REMARK    2  A    between atoms: C_2  and  N_3
REMARK    3  A    between atoms: N_3  and  C_4
REMARK    4  A    between atoms: N_3  and  S_6
REMARK    5  A    between atoms: C_4  and  C_5
REMARK    6  A    between atoms: S_6  and  C_9
REMARK    7  A    between atoms: C_14  and  C_15
REMARK                            x       y       z     vdW  Elec       q    Type
REMARK                         _______ _______ _______ _____ _____    ______ ____
ROOT
ATOM      1  C   UNL     1       5.615   5.151  17.027  0.00  0.00    +0.000 A 
ATOM      2  C   UNL     1       5.050   3.883  17.126  0.00  0.00    +0.000 A 
ATOM      3  C   UNL     1       3.682   3.778  17.375  0.00  0.00    +0.000 A 
ATOM      4  C   UNL     1       2.899   4.926  17.600  0.00  0.00    +0.000 A 
ATOM      5 CL   UNL     1       1.220   4.663  17.910  0.00  0.00    +0.000 Cl
ATOM      6  C   UNL     1       3.489   6.202  17.570  0.00  0.00    +0.000 A 
ATOM      7  C   UNL     1       4.836   6.297  17.200  0.00  0.00    +0.000 A 
ENDROOT
BRANCH   6   8
ATOM      8  C   UNL     1       2.720   7.462  17.825  0.00  0.00    +0.000 C 
ATOM      9  O   UNL     1       2.695   8.284  16.911  0.00  0.00    +0.000 OA
ATOM     10  N   UNL     1       2.127   7.647  19.076  0.00  0.00    +0.000 N 
ATOM     11  C   UNL     1       2.143   6.727  20.241  0.00  0.00    +0.000 C 
ATOM     12  C   UNL     1       1.352   7.367  21.382  0.00  0.00    +0.000 C 
ATOM     13  C   UNL     1       1.072   8.724  20.834  0.00  0.00    +0.000 A 
ATOM     14  C   UNL     1       0.489   9.782  21.514  0.00  0.00    +0.000 A 
ATOM     15  C   UNL     1       0.244  10.961  20.813  0.00  0.00    +0.000 A 
ATOM     16  C   UNL     1       0.567  11.051  19.451  0.00  0.00    +0.000 A 
ATOM     17  C   UNL     1       1.177   9.981  18.783  0.00  0.00    +0.000 A 
ATOM     18  C   UNL     1       1.454   8.826  19.493  0.00  0.00    +0.000 A 
ENDBRANCH   6   8
BRANCH   1  19
ATOM     19  S   UNL     1       7.354   5.322  16.723  0.00  0.00    +0.000 S 
ATOM     20  O   UNL     1       7.496   5.933  15.420  0.00  0.00    +0.000 OA
ATOM     21  O   UNL     1       7.983   4.051  17.026  0.00  0.00    +0.000 OA
BRANCH  19  22
ATOM     22  N   UNL     1       7.841   6.451  17.914  0.00  0.00    +0.000 NA
BRANCH  22  24
ATOM     23  C   UNL     1       8.484   8.828  18.387  0.00  0.00    +0.000 C 
ATOM     24  C   UNL     1       7.686   7.879  17.511  0.00  0.00    +0.000 C 
ENDBRANCH  22  24
BRANCH  22  25
ATOM     25  C   UNL     1       7.375   6.115  19.294  0.00  0.00    +0.000 C 
ATOM     26  C   UNL     1       8.443   5.460  20.151  0.00  0.00    +0.000 C 
ENDBRANCH  22  25
ENDBRANCH  19  22
ENDBRANCH   1  19
TORSDOF 5
ENDMDL
