MODEL 1
REMARK VINA RESULT:      -7.9      0.000      0.000
REMARK  Name = 
REMARK  5 active torsions:
REMARK  status: ('A' for Active; 'I' for Inactive)
REMARK    1  A    between atoms: C_1  and  O_2
REMARK    2  A    between atoms: O_2  and  C_3
REMARK    3  A    between atoms: C_5  and  C_6
REMARK    4  A    between atoms: C_12  and  C_13
REMARK    5  A    between atoms: C_22  and  O_23
REMARK                            x       y       z     vdW  Elec       q    Type
REMARK                         _______ _______ _______ _____ _____    ______ ____
ROOT
ATOM      1  C   UNL     1       3.009   6.361  18.453  0.00  0.00    +0.000 C 
ATOM      2  N   UNL     1       2.441   5.211  18.252  0.00  0.00    +0.000 NA
ATOM      3  N   UNL     1       3.438   4.292  17.999  0.00  0.00    +0.000 N 
ATOM      4  C   UNL     1       3.178   2.955  17.840  0.00  0.00    +0.000 C 
ATOM      5  N   UNL     1       1.992   2.506  17.567  0.00  0.00    +0.000 NA
ATOM      6  N   UNL     1       4.178   2.060  17.991  0.00  0.00    +0.000 N 
ATOM      7  C   UNL     1       4.766   4.910  17.984  0.00  0.00    +0.000 C 
ATOM      8  C   UNL     1       4.498   6.379  18.286  0.00  0.00    +0.000 C 
ATOM      9  H   UNL     1       1.426   3.367  17.519  0.00  0.00    +0.000 HD
ATOM     10  H   UNL     1       5.030   2.286  17.493  0.00  0.00    +0.000 HD
ATOM     11  H   UNL     1       3.839   1.143  17.714  0.00  0.00    +0.000 HD
ENDROOT
BRANCH   1  14
ATOM     12  C   UNL     1       1.156   8.985  20.491  0.00  0.00    +0.000 A 
ATOM     13  C   UNL     1       1.857   7.820  20.143  0.00  0.00    +0.000 A 
ATOM     14  C   UNL     1       2.255   7.582  18.824  0.00  0.00    +0.000 A 
ATOM     15  C   UNL     1       1.931   8.513  17.833  0.00  0.00    +0.000 A 
ATOM     16  C   UNL     1       1.230   9.674  18.165  0.00  0.00    +0.000 A 
ATOM     17  C   UNL     1       0.845   9.911  19.490  0.00  0.00    +0.000 A 
BRANCH  12  19
ATOM     18  C   UNL     1      -0.482   8.811  22.231  0.00  0.00    +0.000 C 
ATOM     19  O   UNL     1       0.862   9.041  21.826  0.00  0.00    +0.000 OA
ENDBRANCH  12  19
BRANCH  17  20
ATOM     20  O   UNL     1       0.161  11.062  19.766  0.00  0.00    +0.000 OA
ATOM     21  H   UNL     1      -0.273  10.977  20.632  0.00  0.00    +0.000 HD
ENDBRANCH  17  20
ENDBRANCH   1  14
BRANCH   7  22
ATOM     22  C   UNL     1       5.472   4.748  16.645  0.00  0.00    +0.000 A 
ATOM     23  C   UNL     1       4.766   4.461  15.462  0.00  0.00    +0.000 A 
ATOM     24  C   UNL     1       5.435   4.302  14.250  0.00  0.00    +0.000 A 
ATOM     25  C   UNL     1       6.820   4.447  14.195  0.00  0.00    +0.000 A 
ATOM     26  C   UNL     1       7.531   4.753  15.352  0.00  0.00    +0.000 A 
ATOM     27  C   UNL     1       6.867   4.905  16.567  0.00  0.00    +0.000 A 
ENDBRANCH   7  22
TORSDOF 4
ENDMDL
MODEL 2
REMARK VINA RESULT:      -7.8      0.044      1.007
REMARK  Name = 
REMARK  5 active torsions:
REMARK  status: ('A' for Active; 'I' for Inactive)
REMARK    1  A    between atoms: C_1  and  O_2
REMARK    2  A    between atoms: O_2  and  C_3
REMARK    3  A    between atoms: C_5  and  C_6
REMARK    4  A    between atoms: C_12  and  C_13
REMARK    5  A    between atoms: C_22  and  O_23
REMARK                            x       y       z     vdW  Elec       q    Type
REMARK                         _______ _______ _______ _____ _____    ______ ____
ROOT
ATOM      1  C   UNL     1       3.003   6.363  18.484  0.00  0.00    +0.000 C 
ATOM      2  N   UNL     1       2.435   5.215  18.272  0.00  0.00    +0.000 NA
ATOM      3  N   UNL     1       3.434   4.295  18.030  0.00  0.00    +0.000 N 
ATOM      4  C   UNL     1       3.172   2.959  17.863  0.00  0.00    +0.000 C 
ATOM      5  N   UNL     1       1.989   2.514  17.572  0.00  0.00    +0.000 NA
ATOM      6  N   UNL     1       4.168   2.061  18.026  0.00  0.00    +0.000 N 
ATOM      7  C   UNL     1       4.762   4.909  18.036  0.00  0.00    +0.000 C 
ATOM      8  C   UNL     1       4.494   6.379  18.338  0.00  0.00    +0.000 C 
ATOM      9  H   UNL     1       1.426   3.376  17.519  0.00  0.00    +0.000 HD
ATOM     10  H   UNL     1       5.028   2.286  17.541  0.00  0.00    +0.000 HD
ATOM     11  H   UNL     1       3.830   1.146  17.742  0.00  0.00    +0.000 HD
ENDROOT
BRANCH   1  14
ATOM     12  C   UNL     1       1.145   8.996  20.508  0.00  0.00    +0.000 A 
ATOM     13  C   UNL     1       1.849   7.830  20.167  0.00  0.00    +0.000 A 
ATOM     14  C   UNL     1       2.247   7.585  18.848  0.00  0.00    +0.000 A 
ATOM     15  C   UNL     1       1.920   8.510  17.852  0.00  0.00    +0.000 A 
ATOM     16  C   UNL     1       1.216   9.671  18.178  0.00  0.00    +0.000 A 
ATOM     17  C   UNL     1       0.832   9.916  19.501  0.00  0.00    +0.000 A 
BRANCH  12  19
ATOM     18  C   UNL     1      -0.496   8.858  22.247  0.00  0.00    +0.000 C 
ATOM     19  O   UNL     1       0.852   9.060  21.843  0.00  0.00    +0.000 OA
ENDBRANCH  12  19
BRANCH  17  20
ATOM     20  O   UNL     1       0.146  11.066  19.771  0.00  0.00    +0.000 OA
ATOM     21  H   UNL     1       0.236  11.677  19.021  0.00  0.00    +0.000 HD
ENDBRANCH  17  20
ENDBRANCH   1  14
BRANCH   7  22
ATOM     22  C   UNL     1       5.487   4.750  16.707  0.00  0.00    +0.000 A 
ATOM     23  C   UNL     1       6.887   4.847  16.607  0.00  0.00    +0.000 A 
ATOM     24  C   UNL     1       7.528   4.714  15.377  0.00  0.00    +0.000 A 
ATOM     25  C   UNL     1       6.783   4.461  14.227  0.00  0.00    +0.000 A 
ATOM     26  C   UNL     1       5.398   4.340  14.311  0.00  0.00    +0.000 A 
ATOM     27  C   UNL     1       4.752   4.481  15.538  0.00  0.00    +0.000 A 
ENDBRANCH   7  22
TORSDOF 4
ENDMDL
MODEL 3
REMARK VINA RESULT:      -7.8      0.894      1.862
REMARK  Name = 
REMARK  5 active torsions:
REMARK  status: ('A' for Active; 'I' for Inactive)
REMARK    1  A    between atoms: C_1  and  O_2
REMARK    2  A    between atoms: O_2  and  C_3
REMARK    3  A    between atoms: C_5  and  C_6
REMARK    4  A    between atoms: C_12  and  C_13
REMARK    5  A    between atoms: C_22  and  O_23
REMARK                            x       y       z     vdW  Elec       q    Type
REMARK                         _______ _______ _______ _____ _____    ______ ____
ROOT
ATOM      1  C   UNL     1       2.908   5.959  19.058  0.00  0.00    +0.000 C 
ATOM      2  N   UNL     1       2.338   4.839  18.736  0.00  0.00    +0.000 NA
ATOM      3  N   UNL     1       3.335   3.941  18.414  0.00  0.00    +0.000 N 
ATOM      4  C   UNL     1       3.070   2.628  18.120  0.00  0.00    +0.000 C 
ATOM      5  N   UNL     1       1.887   2.217  17.781  0.00  0.00    +0.000 NA
ATOM      6  N   UNL     1       4.061   1.715  18.203  0.00  0.00    +0.000 N 
ATOM      7  C   UNL     1       4.666   4.547  18.485  0.00  0.00    +0.000 C 
ATOM      8  C   UNL     1       4.401   5.982  18.924  0.00  0.00    +0.000 C 
ATOM      9  H   UNL     1       1.327   3.083  17.806  0.00  0.00    +0.000 HD
ATOM     10  H   UNL     1       4.925   1.981  17.747  0.00  0.00    +0.000 HD
ATOM     11  H   UNL     1       3.722   0.832  17.832  0.00  0.00    +0.000 HD
ENDROOT
BRANCH   1  14
ATOM     12  C   UNL     1       1.242   9.379  19.164  0.00  0.00    +0.000 A 
ATOM     13  C   UNL     1       1.969   8.264  18.715  0.00  0.00    +0.000 A 
ATOM     14  C   UNL     1       2.155   7.144  19.532  0.00  0.00    +0.000 A 
ATOM     15  C   UNL     1       1.622   7.145  20.825  0.00  0.00    +0.000 A 
ATOM     16  C   UNL     1       0.901   8.249  21.285  0.00  0.00    +0.000 A 
ATOM     17  C   UNL     1       0.709   9.361  20.457  0.00  0.00    +0.000 A 
BRANCH  12  19
ATOM     18  C   UNL     1       2.155  11.386  18.230  0.00  0.00    +0.000 C 
ATOM     19  O   UNL     1       1.164  10.367  18.222  0.00  0.00    +0.000 OA
ENDBRANCH  12  19
BRANCH  17  20
ATOM     20  O   UNL     1      -0.003  10.417  20.951  0.00  0.00    +0.000 OA
ATOM     21  H   UNL     1      -0.952  10.211  20.910  0.00  0.00    +0.000 HD
ENDBRANCH  17  20
ENDBRANCH   1  14
BRANCH   7  22
ATOM     22  C   UNL     1       5.398   4.511  17.151  0.00  0.00    +0.000 A 
ATOM     23  C   UNL     1       4.710   4.409  15.928  0.00  0.00    +0.000 A 
ATOM     24  C   UNL     1       5.403   4.362  14.720  0.00  0.00    +0.000 A 
ATOM     25  C   UNL     1       6.794   4.436  14.711  0.00  0.00    +0.000 A 
ATOM     26  C   UNL     1       7.489   4.559  15.911  0.00  0.00    +0.000 A 
ATOM     27  C   UNL     1       6.801   4.598  17.122  0.00  0.00    +0.000 A 
ENDBRANCH   7  22
TORSDOF 4
ENDMDL
MODEL 4
REMARK VINA RESULT:      -7.8      0.908      2.119
REMARK  Name = 
REMARK  5 active torsions:
REMARK  status: ('A' for Active; 'I' for Inactive)
REMARK    1  A    between atoms: C_1  and  O_2
REMARK    2  A    between atoms: O_2  and  C_3
REMARK    3  A    between atoms: C_5  and  C_6
REMARK    4  A    between atoms: C_12  and  C_13
REMARK    5  A    between atoms: C_22  and  O_23
REMARK                            x       y       z     vdW  Elec       q    Type
REMARK                         _______ _______ _______ _____ _____    ______ ____
ROOT
ATOM      1  C   UNL     1       2.908   5.955  19.077  0.00  0.00    +0.000 C 
ATOM      2  N   UNL     1       2.339   4.837  18.743  0.00  0.00    +0.000 NA
ATOM      3  N   UNL     1       3.337   3.936  18.436  0.00  0.00    +0.000 N 
ATOM      4  C   UNL     1       3.072   2.625  18.135  0.00  0.00    +0.000 C 
ATOM      5  N   UNL     1       1.893   2.219  17.776  0.00  0.00    +0.000 NA
ATOM      6  N   UNL     1       4.058   1.707  18.232  0.00  0.00    +0.000 N 
ATOM      7  C   UNL     1       4.669   4.536  18.530  0.00  0.00    +0.000 C 
ATOM      8  C   UNL     1       4.402   5.972  18.967  0.00  0.00    +0.000 C 
ATOM      9  H   UNL     1       1.336   3.087  17.793  0.00  0.00    +0.000 HD
ATOM     10  H   UNL     1       4.930   1.971  17.791  0.00  0.00    +0.000 HD
ATOM     11  H   UNL     1       3.722   0.827  17.854  0.00  0.00    +0.000 HD
ENDROOT
BRANCH   1  14
ATOM     12  C   UNL     1       1.244   9.376  19.157  0.00  0.00    +0.000 A 
ATOM     13  C   UNL     1       1.973   8.259  18.718  0.00  0.00    +0.000 A 
ATOM     14  C   UNL     1       2.151   7.142  19.540  0.00  0.00    +0.000 A 
ATOM     15  C   UNL     1       1.608   7.147  20.828  0.00  0.00    +0.000 A 
ATOM     16  C   UNL     1       0.884   8.253  21.279  0.00  0.00    +0.000 A 
ATOM     17  C   UNL     1       0.700   9.363  20.446  0.00  0.00    +0.000 A 
BRANCH  12  19
ATOM     18  C   UNL     1       2.148  11.397  18.243  0.00  0.00    +0.000 C 
ATOM     19  O   UNL     1       1.174  10.362  18.211  0.00  0.00    +0.000 OA
ENDBRANCH  12  19
BRANCH  17  20
ATOM     20  O   UNL     1      -0.016  10.421  20.931  0.00  0.00    +0.000 OA
ATOM     21  H   UNL     1       0.499  11.237  20.816  0.00  0.00    +0.000 HD
ENDBRANCH  17  20
ENDBRANCH   1  14
BRANCH   7  22
ATOM     22  C   UNL     1       5.423   4.500  17.208  0.00  0.00    +0.000 A 
ATOM     23  C   UNL     1       6.828   4.562  17.152  0.00  0.00    +0.000 A 
ATOM     24  C   UNL     1       7.496   4.543  15.929  0.00  0.00    +0.000 A 
ATOM     25  C   UNL     1       6.774   4.441  14.742  0.00  0.00    +0.000 A 
ATOM     26  C   UNL     1       5.385   4.357  14.781  0.00  0.00    +0.000 A 
ATOM     27  C   UNL     1       4.712   4.384  16.001  0.00  0.00    +0.000 A 
ENDBRANCH   7  22
TORSDOF 4
ENDMDL
MODEL 5
REMARK VINA RESULT:      -7.8      1.132      1.542
REMARK  Name = 
REMARK  5 active torsions:
REMARK  status: ('A' for Active; 'I' for Inactive)
REMARK    1  A    between atoms: C_1  and  O_2
REMARK    2  A    between atoms: O_2  and  C_3
REMARK    3  A    between atoms: C_5  and  C_6
REMARK    4  A    between atoms: C_12  and  C_13
REMARK    5  A    between atoms: C_22  and  O_23
REMARK                            x       y       z     vdW  Elec       q    Type
REMARK                         _______ _______ _______ _____ _____    ______ ____
ROOT
ATOM      1  C   UNL     1       2.990   6.408  19.407  0.00  0.00    +0.000 C 
ATOM      2  N   UNL     1       2.635   5.168  19.554  0.00  0.00    +0.000 NA
ATOM      3  N   UNL     1       3.757   4.388  19.366  0.00  0.00    +0.000 N 
ATOM      4  C   UNL     1       3.742   3.029  19.548  0.00  0.00    +0.000 C 
ATOM      5  N   UNL     1       2.643   2.342  19.561  0.00  0.00    +0.000 NA
ATOM      6  N   UNL     1       4.906   2.372  19.743  0.00  0.00    +0.000 N 
ATOM      7  C   UNL     1       4.932   5.188  19.016  0.00  0.00    +0.000 C 
ATOM      8  C   UNL     1       4.421   6.625  19.021  0.00  0.00    +0.000 C 
ATOM      9  H   UNL     1       1.920   3.062  19.408  0.00  0.00    +0.000 HD
ATOM     10  H   UNL     1       5.641   2.603  19.087  0.00  0.00    +0.000 HD
ATOM     11  H   UNL     1       4.721   1.373  19.731  0.00  0.00    +0.000 HD
ENDROOT
BRANCH   1  14
ATOM     12  C   UNL     1       0.413   8.743  20.951  0.00  0.00    +0.000 A 
ATOM     13  C   UNL     1       1.282   7.657  20.763  0.00  0.00    +0.000 A 
ATOM     14  C   UNL     1       2.060   7.545  19.606  0.00  0.00    +0.000 A 
ATOM     15  C   UNL     1       1.955   8.524  18.614  0.00  0.00    +0.000 A 
ATOM     16  C   UNL     1       1.091   9.608  18.787  0.00  0.00    +0.000 A 
ATOM     17  C   UNL     1       0.324   9.719  19.953  0.00  0.00    +0.000 A 
BRANCH  12  19
ATOM     18  C   UNL     1       0.188   9.510  23.210  0.00  0.00    +0.000 C 
ATOM     19  O   UNL     1      -0.255   8.680  22.144  0.00  0.00    +0.000 OA
ENDBRANCH  12  19
BRANCH  17  20
ATOM     20  O   UNL     1      -0.506  10.797  20.077  0.00  0.00    +0.000 OA
ATOM     21  H   UNL     1      -0.752  10.906  21.011  0.00  0.00    +0.000 HD
ENDBRANCH  17  20
ENDBRANCH   1  14
BRANCH   7  22
ATOM     22  C   UNL     1       5.509   4.820  17.657  0.00  0.00    +0.000 A 
ATOM     23  C   UNL     1       6.894   4.681  17.451  0.00  0.00    +0.000 A 
ATOM     24  C   UNL     1       7.401   4.358  16.193  0.00  0.00    +0.000 A 
ATOM     25  C   UNL     1       6.531   4.148  15.124  0.00  0.00    +0.000 A 
ATOM     26  C   UNL     1       5.157   4.260  15.316  0.00  0.00    +0.000 A 
ATOM     27  C   UNL     1       4.646   4.591  16.570  0.00  0.00    +0.000 A 
ENDBRANCH   7  22
TORSDOF 4
ENDMDL
MODEL 6
REMARK VINA RESULT:      -7.8      1.133      1.175
REMARK  Name = 
REMARK  5 active torsions:
REMARK  status: ('A' for Active; 'I' for Inactive)
REMARK    1  A    between atoms: C_1  and  O_2
REMARK    2  A    between atoms: O_2  and  C_3
REMARK    3  A    between atoms: C_5  and  C_6
REMARK    4  A    between atoms: C_12  and  C_13
REMARK    5  A    between atoms: C_22  and  O_23
REMARK                            x       y       z     vdW  Elec       q    Type
REMARK                         _______ _______ _______ _____ _____    ______ ____
ROOT
ATOM      1  C   UNL     1       2.966   6.412  19.404  0.00  0.00    +0.000 C 
ATOM      2  N   UNL     1       2.613   5.172  19.558  0.00  0.00    +0.000 NA
ATOM      3  N   UNL     1       3.733   4.392  19.364  0.00  0.00    +0.000 N 
ATOM      4  C   UNL     1       3.720   3.033  19.552  0.00  0.00    +0.000 C 
ATOM      5  N   UNL     1       2.620   2.346  19.576  0.00  0.00    +0.000 NA
ATOM      6  N   UNL     1       4.884   2.377  19.741  0.00  0.00    +0.000 N 
ATOM      7  C   UNL     1       4.905   5.191  19.003  0.00  0.00    +0.000 C 
ATOM      8  C   UNL     1       4.395   6.627  19.006  0.00  0.00    +0.000 C 
ATOM      9  H   UNL     1       1.896   3.066  19.425  0.00  0.00    +0.000 HD
ATOM     10  H   UNL     1       5.615   2.605  19.079  0.00  0.00    +0.000 HD
ATOM     11  H   UNL     1       4.700   1.378  19.734  0.00  0.00    +0.000 HD
ENDROOT
BRANCH   1  14
ATOM     12  C   UNL     1       0.396   8.750  20.954  0.00  0.00    +0.000 A 
ATOM     13  C   UNL     1       1.263   7.663  20.764  0.00  0.00    +0.000 A 
ATOM     14  C   UNL     1       2.038   7.549  19.604  0.00  0.00    +0.000 A 
ATOM     15  C   UNL     1       1.930   8.528  18.612  0.00  0.00    +0.000 A 
ATOM     16  C   UNL     1       1.068   9.613  18.787  0.00  0.00    +0.000 A 
ATOM     17  C   UNL     1       0.305   9.725  19.955  0.00  0.00    +0.000 A 
BRANCH  12  19
ATOM     18  C   UNL     1       0.193   9.500  23.220  0.00  0.00    +0.000 C 
ATOM     19  O   UNL     1      -0.268   8.687  22.149  0.00  0.00    +0.000 OA
ENDBRANCH  12  19
BRANCH  17  20
ATOM     20  O   UNL     1      -0.524  10.804  20.082  0.00  0.00    +0.000 OA
ATOM     21  H   UNL     1      -1.203  10.611  20.750  0.00  0.00    +0.000 HD
ENDBRANCH  17  20
ENDBRANCH   1  14
BRANCH   7  22
ATOM     22  C   UNL     1       5.473   4.817  17.641  0.00  0.00    +0.000 A 
ATOM     23  C   UNL     1       4.643   4.592  16.527  0.00  0.00    +0.000 A 
ATOM     24  C   UNL     1       5.184   4.234  15.293  0.00  0.00    +0.000 A 
ATOM     25  C   UNL     1       6.565   4.116  15.146  0.00  0.00    +0.000 A 
ATOM     26  C   UNL     1       7.401   4.356  16.232  0.00  0.00    +0.000 A 
ATOM     27  C   UNL     1       6.864   4.706  17.470  0.00  0.00    +0.000 A 
ENDBRANCH   7  22
TORSDOF 4
ENDMDL
MODEL 7
REMARK VINA RESULT:      -7.5      3.759      7.598
REMARK  Name = 
REMARK  5 active torsions:
REMARK  status: ('A' for Active; 'I' for Inactive)
REMARK    1  A    between atoms: C_1  and  O_2
REMARK    2  A    between atoms: O_2  and  C_3
REMARK    3  A    between atoms: C_5  and  C_6
REMARK    4  A    between atoms: C_12  and  C_13
REMARK    5  A    between atoms: C_22  and  O_23
REMARK                            x       y       z     vdW  Elec       q    Type
REMARK                         _______ _______ _______ _____ _____    ______ ____
ROOT
ATOM      1  C   UNL     1       2.144   7.934  18.642  0.00  0.00    +0.000 C 
ATOM      2  N   UNL     1       2.022   8.140  19.917  0.00  0.00    +0.000 NA
ATOM      3  N   UNL     1       1.127   9.175  20.088  0.00  0.00    +0.000 N 
ATOM      4  C   UNL     1       0.702   9.578  21.329  0.00  0.00    +0.000 C 
ATOM      5  N   UNL     1       1.347   9.279  22.414  0.00  0.00    +0.000 NA
ATOM      6  N   UNL     1      -0.437  10.294  21.442  0.00  0.00    +0.000 N 
ATOM      7  C   UNL     1       0.665   9.721  18.811  0.00  0.00    +0.000 C 
ATOM      8  C   UNL     1       1.379   8.876  17.763  0.00  0.00    +0.000 C 
ATOM      9  H   UNL     1       2.148   8.732  22.063  0.00  0.00    +0.000 HD
ATOM     10  H   UNL     1      -0.513  11.076  20.803  0.00  0.00    +0.000 HD
ATOM     11  H   UNL     1      -0.528  10.612  22.403  0.00  0.00    +0.000 HD
ENDROOT
BRANCH   1  14
ATOM     12  C   UNL     1       5.000   6.074  16.949  0.00  0.00    +0.000 A 
ATOM     13  C   UNL     1       4.211   7.110  17.474  0.00  0.00    +0.000 A 
ATOM     14  C   UNL     1       2.976   6.846  18.073  0.00  0.00    +0.000 A 
ATOM     15  C   UNL     1       2.512   5.528  18.134  0.00  0.00    +0.000 A 
ATOM     16  C   UNL     1       3.286   4.489  17.612  0.00  0.00    +0.000 A 
ATOM     17  C   UNL     1       4.526   4.760  17.024  0.00  0.00    +0.000 A 
BRANCH  12  19
ATOM     18  C   UNL     1       7.240   6.850  17.295  0.00  0.00    +0.000 C 
ATOM     19  O   UNL     1       6.173   6.529  16.412  0.00  0.00    +0.000 OA
ENDBRANCH  12  19
BRANCH  17  20
ATOM     20  O   UNL     1       5.248   3.710  16.528  0.00  0.00    +0.000 OA
ATOM     21  H   UNL     1       4.759   2.885  16.679  0.00  0.00    +0.000 HD
ENDBRANCH  17  20
ENDBRANCH   1  14
BRANCH   7  22
ATOM     22  C   UNL     1       1.007  11.196  18.646  0.00  0.00    +0.000 A 
ATOM     23  C   UNL     1       2.316  11.628  18.367  0.00  0.00    +0.000 A 
ATOM     24  C   UNL     1       2.608  12.985  18.236  0.00  0.00    +0.000 A 
ATOM     25  C   UNL     1       1.594  13.932  18.362  0.00  0.00    +0.000 A 
ATOM     26  C   UNL     1       0.289  13.519  18.616  0.00  0.00    +0.000 A 
ATOM     27  C   UNL     1      -0.007  12.164  18.756  0.00  0.00    +0.000 A 
ENDBRANCH   7  22
TORSDOF 4
ENDMDL
MODEL 8
REMARK VINA RESULT:      -7.5      3.772      7.574
REMARK  Name = 
REMARK  5 active torsions:
REMARK  status: ('A' for Active; 'I' for Inactive)
REMARK    1  A    between atoms: C_1  and  O_2
REMARK    2  A    between atoms: O_2  and  C_3
REMARK    3  A    between atoms: C_5  and  C_6
REMARK    4  A    between atoms: C_12  and  C_13
REMARK    5  A    between atoms: C_22  and  O_23
REMARK                            x       y       z     vdW  Elec       q    Type
REMARK                         _______ _______ _______ _____ _____    ______ ____
ROOT
ATOM      1  C   UNL     1       2.088   7.994  18.677  0.00  0.00    +0.000 C 
ATOM      2  N   UNL     1       1.971   8.206  19.952  0.00  0.00    +0.000 NA
ATOM      3  N   UNL     1       1.081   9.246  20.123  0.00  0.00    +0.000 N 
ATOM      4  C   UNL     1       0.662   9.655  21.363  0.00  0.00    +0.000 C 
ATOM      5  N   UNL     1       1.308   9.355  22.448  0.00  0.00    +0.000 NA
ATOM      6  N   UNL     1      -0.472  10.378  21.477  0.00  0.00    +0.000 N 
ATOM      7  C   UNL     1       0.620   9.791  18.845  0.00  0.00    +0.000 C 
ATOM      8  C   UNL     1       1.326   8.938  17.797  0.00  0.00    +0.000 C 
ATOM      9  H   UNL     1       2.105   8.803  22.096  0.00  0.00    +0.000 HD
ATOM     10  H   UNL     1      -0.546  11.158  20.836  0.00  0.00    +0.000 HD
ATOM     11  H   UNL     1      -0.559  10.698  22.437  0.00  0.00    +0.000 HD
ENDROOT
BRANCH   1  14
ATOM     12  C   UNL     1       4.917   6.117  16.958  0.00  0.00    +0.000 A 
ATOM     13  C   UNL     1       4.134   7.159  17.481  0.00  0.00    +0.000 A 
ATOM     14  C   UNL     1       2.912   6.901  18.110  0.00  0.00    +0.000 A 
ATOM     15  C   UNL     1       2.455   5.582  18.201  0.00  0.00    +0.000 A 
ATOM     16  C   UNL     1       3.222   4.537  17.681  0.00  0.00    +0.000 A 
ATOM     17  C   UNL     1       4.449   4.803  17.063  0.00  0.00    +0.000 A 
BRANCH  12  19
ATOM     18  C   UNL     1       7.245   6.624  17.198  0.00  0.00    +0.000 C 
ATOM     19  O   UNL     1       6.077   6.567  16.390  0.00  0.00    +0.000 OA
ENDBRANCH  12  19
BRANCH  17  20
ATOM     20  O   UNL     1       5.164   3.748  16.570  0.00  0.00    +0.000 OA
ATOM     21  H   UNL     1       4.575   2.983  16.462  0.00  0.00    +0.000 HD
ENDBRANCH  17  20
ENDBRANCH   1  14
BRANCH   7  22
ATOM     22  C   UNL     1       0.969  11.263  18.675  0.00  0.00    +0.000 A 
ATOM     23  C   UNL     1       0.001  12.276  18.803  0.00  0.00    +0.000 A 
ATOM     24  C   UNL     1       0.341  13.616  18.627  0.00  0.00    +0.000 A 
ATOM     25  C   UNL     1       1.659  13.969  18.342  0.00  0.00    +0.000 A 
ATOM     26  C   UNL     1       2.633  12.981  18.233  0.00  0.00    +0.000 A 
ATOM     27  C   UNL     1       2.296  11.639  18.400  0.00  0.00    +0.000 A 
ENDBRANCH   7  22
TORSDOF 4
ENDMDL
MODEL 9
REMARK VINA RESULT:      -7.4      3.974      7.910
REMARK  Name = 
REMARK  5 active torsions:
REMARK  status: ('A' for Active; 'I' for Inactive)
REMARK    1  A    between atoms: C_1  and  O_2
REMARK    2  A    between atoms: O_2  and  C_3
REMARK    3  A    between atoms: C_5  and  C_6
REMARK    4  A    between atoms: C_12  and  C_13
REMARK    5  A    between atoms: C_22  and  O_23
REMARK                            x       y       z     vdW  Elec       q    Type
REMARK                         _______ _______ _______ _____ _____    ______ ____
ROOT
ATOM      1  C   UNL     1       1.835   8.775  18.957  0.00  0.00    +0.000 C 
ATOM      2  N   UNL     1       2.295   9.824  18.348  0.00  0.00    +0.000 NA
ATOM      3  N   UNL     1       1.511  10.898  18.715  0.00  0.00    +0.000 N 
ATOM      4  C   UNL     1       1.793  12.180  18.318  0.00  0.00    +0.000 C 
ATOM      5  N   UNL     1       2.573  12.441  17.315  0.00  0.00    +0.000 NA
ATOM      6  N   UNL     1       1.264  13.219  18.999  0.00  0.00    +0.000 N 
ATOM      7  C   UNL     1       0.415  10.502  19.602  0.00  0.00    +0.000 C 
ATOM      8  C   UNL     1       0.604   9.000  19.782  0.00  0.00    +0.000 C 
ATOM      9  H   UNL     1       2.847  11.502  16.987  0.00  0.00    +0.000 HD
ATOM     10  H   UNL     1       0.270  13.147  19.182  0.00  0.00    +0.000 HD
ATOM     11  H   UNL     1       1.470  14.077  18.496  0.00  0.00    +0.000 HD
ENDROOT
BRANCH   1  14
ATOM     12  C   UNL     1       2.855   5.192  19.733  0.00  0.00    +0.000 A 
ATOM     13  C   UNL     1       2.262   6.461  19.838  0.00  0.00    +0.000 A 
ATOM     14  C   UNL     1       2.469   7.439  18.860  0.00  0.00    +0.000 A 
ATOM     15  C   UNL     1       3.295   7.152  17.769  0.00  0.00    +0.000 A 
ATOM     16  C   UNL     1       3.894   5.895  17.655  0.00  0.00    +0.000 A 
ATOM     17  C   UNL     1       3.673   4.917  18.632  0.00  0.00    +0.000 A 
BRANCH  12  19
ATOM     18  C   UNL     1       1.274   3.707  20.750  0.00  0.00    +0.000 C 
ATOM     19  O   UNL     1       2.530   4.374  20.780  0.00  0.00    +0.000 OA
ENDBRANCH  12  19
BRANCH  17  20
ATOM     20  O   UNL     1       4.280   3.703  18.477  0.00  0.00    +0.000 OA
ATOM     21  H   UNL     1       3.680   3.003  18.785  0.00  0.00    +0.000 HD
ENDBRANCH  17  20
ENDBRANCH   1  14
BRANCH   7  22
ATOM     22  C   UNL     1      -0.954  10.812  19.015  0.00  0.00    +0.000 A 
ATOM     23  C   UNL     1      -1.829  11.735  19.617  0.00  0.00    +0.000 A 
ATOM     24  C   UNL     1      -3.085  11.992  19.071  0.00  0.00    +0.000 A 
ATOM     25  C   UNL     1      -3.481  11.346  17.901  0.00  0.00    +0.000 A 
ATOM     26  C   UNL     1      -2.620  10.446  17.281  0.00  0.00    +0.000 A 
ATOM     27  C   UNL     1      -1.366  10.180  17.828  0.00  0.00    +0.000 A 
ENDBRANCH   7  22
TORSDOF 4
ENDMDL
