MODEL 1
REMARK VINA RESULT:      -7.0      0.000      0.000
REMARK  Name = 
REMARK  11 active torsions:
REMARK  status: ('A' for Active; 'I' for Inactive)
REMARK    1  A    between atoms: C_2  and  C_3
REMARK    2  A    between atoms: C_8  and  N_9
REMARK    3  A    between atoms: N_12  and  C_13
REMARK    4  A    between atoms: C_13  and  C_14
REMARK    5  A    between atoms: C_14  and  O_15
REMARK    6  A    between atoms: C_14  and  C_16
REMARK    7  A    between atoms: C_16  and  O_17
REMARK    8  A    between atoms: O_17  and  C_18
REMARK    9  A    between atoms: C_18  and  C_19
REMARK   10  A    between atoms: C_19  and  O_20
REMARK   11  A    between atoms: O_20  and  C_21
REMARK                            x       y       z     vdW  Elec       q    Type
REMARK                         _______ _______ _______ _____ _____    ______ ____
ROOT
ATOM      1  C   UNL     1       5.562   3.854  16.406  0.00  0.00    +0.000 C 
ENDROOT
BRANCH   1   5
ATOM      2  N   UNL     1       3.322   5.501  18.670  0.00  0.00    +0.000 N 
ATOM      3  C   UNL     1       4.730   5.242  19.007  0.00  0.00    +0.000 C 
ATOM      4  C   UNL     1       5.088   3.758  18.780  0.00  0.00    +0.000 C 
ATOM      5  N   UNL     1       4.719   3.225  17.444  0.00  0.00    +0.000 NA
ATOM      6  C   UNL     1       3.271   3.472  17.265  0.00  0.00    +0.000 C 
ATOM      7  C   UNL     1       2.868   4.961  17.371  0.00  0.00    +0.000 C 
BRANCH   2  13
ATOM      8  C   UNL     1       1.828   6.008  20.588  0.00  0.00    +0.000 A 
ATOM      9  C   UNL     1       1.054   6.958  21.277  0.00  0.00    +0.000 A 
ATOM     10  C   UNL     1       0.961   8.269  20.820  0.00  0.00    +0.000 A 
ATOM     11  C   UNL     1       1.616   8.635  19.653  0.00  0.00    +0.000 A 
ATOM     12  C   UNL     1       2.379   7.693  18.962  0.00  0.00    +0.000 A 
ATOM     13  C   UNL     1       2.532   6.364  19.412  0.00  0.00    +0.000 A 
BRANCH   8  15
ATOM     14  N   UNL     1       1.956   3.651  21.671  0.00  0.00    +0.000 NA
ATOM     15  C   UNL     1       1.889   4.696  21.183  0.00  0.00    +0.000 C 
ENDBRANCH   8  15
ENDBRANCH   2  13
ENDBRANCH   1   5
BRANCH   1  16
ATOM     16  C   UNL     1       6.717   4.757  16.911  0.00  0.00    +0.000 C 
BRANCH  16  17
ATOM     17  O   UNL     1       7.992   4.102  16.887  0.00  0.00    +0.000 OA
ATOM     18  H   UNL     1       8.132   3.673  17.747  0.00  0.00    +0.000 HD
ENDBRANCH  16  17
BRANCH  16  19
ATOM     19  C   UNL     1       6.836   5.975  16.001  0.00  0.00    +0.000 C 
BRANCH  19  20
ATOM     20  O   UNL     1       7.805   6.886  16.501  0.00  0.00    +0.000 OA
BRANCH  20  21
ATOM     21  C   UNL     1       7.402   7.489  17.726  0.00  0.00    +0.000 C 
BRANCH  21  22
ATOM     22  C   UNL     1       7.752   8.968  17.765  0.00  0.00    +0.000 C 
BRANCH  22  23
ATOM     23  O   UNL     1       8.960   9.127  18.485  0.00  0.00    +0.000 OA
BRANCH  23  24
ATOM     24  C   UNL     1       9.208  10.394  18.925  0.00  0.00    +0.000 A 
ATOM     25  C   UNL     1       9.327  11.537  18.127  0.00  0.00    +0.000 A 
ATOM     26  C   UNL     1       9.515  12.783  18.724  0.00  0.00    +0.000 A 
ATOM     27  C   UNL     1       9.589  12.880  20.111  0.00  0.00    +0.000 A 
ATOM     28 BR   UNL     1       9.789  14.575  20.921  0.00  0.00    +0.000 Br
ATOM     29  C   UNL     1       9.500  11.741  20.909  0.00  0.00    +0.000 A 
ATOM     30  C   UNL     1       9.314  10.497  20.311  0.00  0.00    +0.000 A 
ENDBRANCH  23  24
ENDBRANCH  22  23
ENDBRANCH  21  22
ENDBRANCH  20  21
ENDBRANCH  19  20
ENDBRANCH  16  19
ENDBRANCH   1  16
TORSDOF 11
ENDMDL
MODEL 2
REMARK VINA RESULT:      -6.5      4.843      7.378
REMARK  Name = 
REMARK  11 active torsions:
REMARK  status: ('A' for Active; 'I' for Inactive)
REMARK    1  A    between atoms: C_2  and  C_3
REMARK    2  A    between atoms: C_8  and  N_9
REMARK    3  A    between atoms: N_12  and  C_13
REMARK    4  A    between atoms: C_13  and  C_14
REMARK    5  A    between atoms: C_14  and  O_15
REMARK    6  A    between atoms: C_14  and  C_16
REMARK    7  A    between atoms: C_16  and  O_17
REMARK    8  A    between atoms: O_17  and  C_18
REMARK    9  A    between atoms: C_18  and  C_19
REMARK   10  A    between atoms: C_19  and  O_20
REMARK   11  A    between atoms: O_20  and  C_21
REMARK                            x       y       z     vdW  Elec       q    Type
REMARK                         _______ _______ _______ _____ _____    ______ ____
ROOT
ATOM      1  C   UNL     1       1.628   2.994  19.819  0.00  0.00    +0.000 C 
ENDROOT
BRANCH   1   5
ATOM      2  N   UNL     1       4.397   3.646  17.635  0.00  0.00    +0.000 N 
ATOM      3  C   UNL     1       3.148   3.031  17.159  0.00  0.00    +0.000 C 
ATOM      4  C   UNL     1       2.763   1.816  18.031  0.00  0.00    +0.000 C 
ATOM      5  N   UNL     1       2.743   2.080  19.492  0.00  0.00    +0.000 NA
ATOM      6  C   UNL     1       4.075   2.613  19.854  0.00  0.00    +0.000 C 
ATOM      7  C   UNL     1       4.468   3.899  19.089  0.00  0.00    +0.000 C 
BRANCH   2  13
ATOM      8  C   UNL     1       6.493   4.887  17.155  0.00  0.00    +0.000 A 
ATOM      9  C   UNL     1       7.412   5.348  16.196  0.00  0.00    +0.000 A 
ATOM     10  C   UNL     1       7.222   5.085  14.843  0.00  0.00    +0.000 A 
ATOM     11  C   UNL     1       6.097   4.387  14.432  0.00  0.00    +0.000 A 
ATOM     12  C   UNL     1       5.178   3.935  15.380  0.00  0.00    +0.000 A 
ATOM     13  C   UNL     1       5.352   4.144  16.765  0.00  0.00    +0.000 A 
BRANCH   8  15
ATOM     14  N   UNL     1       7.067   5.394  19.637  0.00  0.00    +0.000 NA
ATOM     15  C   UNL     1       6.821   5.176  18.529  0.00  0.00    +0.000 C 
ENDBRANCH   8  15
ENDBRANCH   2  13
ENDBRANCH   1   5
BRANCH   1  16
ATOM     16  C   UNL     1       1.584   3.532  21.273  0.00  0.00    +0.000 C 
BRANCH  16  17
ATOM     17  O   UNL     1       2.571   2.933  22.122  0.00  0.00    +0.000 OA
ATOM     18  H   UNL     1       2.544   1.971  21.992  0.00  0.00    +0.000 HD
ENDBRANCH  16  17
BRANCH  16  19
ATOM     19  C   UNL     1       1.870   5.030  21.262  0.00  0.00    +0.000 C 
BRANCH  19  20
ATOM     20  O   UNL     1       1.853   5.539  19.936  0.00  0.00    +0.000 OA
BRANCH  20  21
ATOM     21  C   UNL     1       2.343   6.873  19.860  0.00  0.00    +0.000 C 
BRANCH  21  22
ATOM     22  C   UNL     1       1.575   7.805  20.783  0.00  0.00    +0.000 C 
BRANCH  22  23
ATOM     23  O   UNL     1       1.254   8.984  20.069  0.00  0.00    +0.000 OA
BRANCH  23  24
ATOM     24  C   UNL     1       0.426   9.849  20.723  0.00  0.00    +0.000 A 
ATOM     25  C   UNL     1      -0.237  10.943  20.159  0.00  0.00    +0.000 A 
ATOM     26  C   UNL     1      -1.109  11.703  20.938  0.00  0.00    +0.000 A 
ATOM     27  C   UNL     1      -1.308  11.370  22.275  0.00  0.00    +0.000 A 
ATOM     28 BR   UNL     1      -2.530  12.366  23.315  0.00  0.00    +0.000 Br
ATOM     29  C   UNL     1      -0.627  10.299  22.850  0.00  0.00    +0.000 A 
ATOM     30  C   UNL     1       0.244   9.541  22.071  0.00  0.00    +0.000 A 
ENDBRANCH  23  24
ENDBRANCH  22  23
ENDBRANCH  21  22
ENDBRANCH  20  21
ENDBRANCH  19  20
ENDBRANCH  16  19
ENDBRANCH   1  16
TORSDOF 11
ENDMDL
MODEL 3
REMARK VINA RESULT:      -6.5      5.132      7.784
REMARK  Name = 
REMARK  11 active torsions:
REMARK  status: ('A' for Active; 'I' for Inactive)
REMARK    1  A    between atoms: C_2  and  C_3
REMARK    2  A    between atoms: C_8  and  N_9
REMARK    3  A    between atoms: N_12  and  C_13
REMARK    4  A    between atoms: C_13  and  C_14
REMARK    5  A    between atoms: C_14  and  O_15
REMARK    6  A    between atoms: C_14  and  C_16
REMARK    7  A    between atoms: C_16  and  O_17
REMARK    8  A    between atoms: O_17  and  C_18
REMARK    9  A    between atoms: C_18  and  C_19
REMARK   10  A    between atoms: C_19  and  O_20
REMARK   11  A    between atoms: O_20  and  C_21
REMARK                            x       y       z     vdW  Elec       q    Type
REMARK                         _______ _______ _______ _____ _____    ______ ____
ROOT
ATOM      1  C   UNL     1       2.563   3.018  19.875  0.00  0.00    +0.000 C 
ENDROOT
BRANCH   1   5
ATOM      2  N   UNL     1       4.443   3.740  16.908  0.00  0.00    +0.000 N 
ATOM      3  C   UNL     1       3.573   4.738  17.549  0.00  0.00    +0.000 C 
ATOM      4  C   UNL     1       2.157   4.167  17.780  0.00  0.00    +0.000 C 
ATOM      5  N   UNL     1       2.120   2.855  18.475  0.00  0.00    +0.000 NA
ATOM      6  C   UNL     1       2.962   1.926  17.688  0.00  0.00    +0.000 C 
ATOM      7  C   UNL     1       4.426   2.394  17.517  0.00  0.00    +0.000 C 
BRANCH   2  13
ATOM      8  C   UNL     1       6.673   4.571  16.197  0.00  0.00    +0.000 A 
ATOM      9  C   UNL     1       7.545   4.889  15.142  0.00  0.00    +0.000 A 
ATOM     10  C   UNL     1       7.148   4.733  13.817  0.00  0.00    +0.000 A 
ATOM     11  C   UNL     1       5.865   4.287  13.535  0.00  0.00    +0.000 A 
ATOM     12  C   UNL     1       4.994   3.978  14.579  0.00  0.00    +0.000 A 
ATOM     13  C   UNL     1       5.369   4.084  15.937  0.00  0.00    +0.000 A 
BRANCH   8  15
ATOM     14  N   UNL     1       7.644   4.827  18.592  0.00  0.00    +0.000 NA
ATOM     15  C   UNL     1       7.212   4.725  17.526  0.00  0.00    +0.000 C 
ENDBRANCH   8  15
ENDBRANCH   2  13
ENDBRANCH   1   5
BRANCH   1  16
ATOM     16  C   UNL     1       1.468   3.405  20.902  0.00  0.00    +0.000 C 
BRANCH  16  17
ATOM     17  O   UNL     1       1.941   3.398  22.255  0.00  0.00    +0.000 OA
ATOM     18  H   UNL     1       1.362   3.971  22.785  0.00  0.00    +0.000 HD
ENDBRANCH  16  17
BRANCH  16  19
ATOM     19  C   UNL     1       0.991   4.826  20.616  0.00  0.00    +0.000 C 
BRANCH  19  20
ATOM     20  O   UNL     1       1.998   5.773  20.947  0.00  0.00    +0.000 OA
BRANCH  20  21
ATOM     21  C   UNL     1       1.712   7.069  20.433  0.00  0.00    +0.000 C 
BRANCH  21  22
ATOM     22  C   UNL     1       0.989   7.930  21.456  0.00  0.00    +0.000 C 
BRANCH  22  23
ATOM     23  O   UNL     1       1.173   9.291  21.112  0.00  0.00    +0.000 OA
BRANCH  23  24
ATOM     24  C   UNL     1       0.188  10.133  21.537  0.00  0.00    +0.000 A 
ATOM     25  C   UNL     1      -0.421  10.122  22.796  0.00  0.00    +0.000 A 
ATOM     26  C   UNL     1      -1.372  11.092  23.115  0.00  0.00    +0.000 A 
ATOM     27  C   UNL     1      -1.712  12.060  22.174  0.00  0.00    +0.000 A 
ATOM     28 BR   UNL     1      -2.960  13.405  22.625  0.00  0.00    +0.000 Br
ATOM     29  C   UNL     1      -1.130  12.057  20.908  0.00  0.00    +0.000 A 
ATOM     30  C   UNL     1      -0.181  11.088  20.591  0.00  0.00    +0.000 A 
ENDBRANCH  23  24
ENDBRANCH  22  23
ENDBRANCH  21  22
ENDBRANCH  20  21
ENDBRANCH  19  20
ENDBRANCH  16  19
ENDBRANCH   1  16
TORSDOF 11
ENDMDL
MODEL 4
REMARK VINA RESULT:      -6.5      1.924      3.166
REMARK  Name = 
REMARK  11 active torsions:
REMARK  status: ('A' for Active; 'I' for Inactive)
REMARK    1  A    between atoms: C_2  and  C_3
REMARK    2  A    between atoms: C_8  and  N_9
REMARK    3  A    between atoms: N_12  and  C_13
REMARK    4  A    between atoms: C_13  and  C_14
REMARK    5  A    between atoms: C_14  and  O_15
REMARK    6  A    between atoms: C_14  and  C_16
REMARK    7  A    between atoms: C_16  and  O_17
REMARK    8  A    between atoms: O_17  and  C_18
REMARK    9  A    between atoms: C_18  and  C_19
REMARK   10  A    between atoms: C_19  and  O_20
REMARK   11  A    between atoms: O_20  and  C_21
REMARK                            x       y       z     vdW  Elec       q    Type
REMARK                         _______ _______ _______ _____ _____    ______ ____
ROOT
ATOM      1  C   UNL     1       7.245   6.333  16.958  0.00  0.00    +0.000 C 
ENDROOT
BRANCH   1   5
ATOM      2  N   UNL     1       4.462   4.721  18.545  0.00  0.00    +0.000 N 
ATOM      3  C   UNL     1       5.593   5.270  19.309  0.00  0.00    +0.000 C 
ATOM      4  C   UNL     1       6.936   4.743  18.761  0.00  0.00    +0.000 C 
ATOM      5  N   UNL     1       7.115   4.899  17.296  0.00  0.00    +0.000 NA
ATOM      6  C   UNL     1       5.962   4.237  16.646  0.00  0.00    +0.000 C 
ATOM      7  C   UNL     1       4.588   4.801  17.074  0.00  0.00    +0.000 C 
BRANCH   2  13
ATOM      8  C   UNL     1       2.757   3.029  19.176  0.00  0.00    +0.000 A 
ATOM      9  C   UNL     1       1.542   2.746  19.823  0.00  0.00    +0.000 A 
ATOM     10  C   UNL     1       0.817   3.754  20.452  0.00  0.00    +0.000 A 
ATOM     11  C   UNL     1       1.285   5.059  20.414  0.00  0.00    +0.000 A 
ATOM     12  C   UNL     1       2.487   5.346  19.766  0.00  0.00    +0.000 A 
ATOM     13  C   UNL     1       3.274   4.348  19.150  0.00  0.00    +0.000 A 
BRANCH   8  15
ATOM     14  N   UNL     1       3.984   0.977  18.161  0.00  0.00    +0.000 NA
ATOM     15  C   UNL     1       3.444   1.897  18.605  0.00  0.00    +0.000 C 
ENDBRANCH   8  15
ENDBRANCH   2  13
ENDBRANCH   1   5
BRANCH   1  16
ATOM     16  C   UNL     1       7.508   7.297  18.144  0.00  0.00    +0.000 C 
BRANCH  16  17
ATOM     17  O   UNL     1       8.633   6.908  18.943  0.00  0.00    +0.000 OA
ATOM     18  H   UNL     1       9.312   6.536  18.356  0.00  0.00    +0.000 HD
ENDBRANCH  16  17
BRANCH  16  19
ATOM     19  C   UNL     1       7.822   8.687  17.600  0.00  0.00    +0.000 C 
BRANCH  19  20
ATOM     20  O   UNL     1       8.756   9.357  18.435  0.00  0.00    +0.000 OA
BRANCH  20  21
ATOM     21  C   UNL     1       8.828  10.752  18.157  0.00  0.00    +0.000 C 
BRANCH  21  22
ATOM     22  C   UNL     1      10.265  11.248  18.149  0.00  0.00    +0.000 C 
BRANCH  22  23
ATOM     23  O   UNL     1      10.775  11.177  19.468  0.00  0.00    +0.000 OA
BRANCH  23  24
ATOM     24  C   UNL     1      10.368  12.179  20.299  0.00  0.00    +0.000 A 
ATOM     25  C   UNL     1       9.471  12.055  21.365  0.00  0.00    +0.000 A 
ATOM     26  C   UNL     1       9.199  13.157  22.175  0.00  0.00    +0.000 A 
ATOM     27  C   UNL     1       9.819  14.376  21.912  0.00  0.00    +0.000 A 
ATOM     28 BR   UNL     1       9.491  15.854  23.043  0.00  0.00    +0.000 Br
ATOM     29  C   UNL     1      10.690  14.513  20.834  0.00  0.00    +0.000 A 
ATOM     30  C   UNL     1      10.960  13.411  20.025  0.00  0.00    +0.000 A 
ENDBRANCH  23  24
ENDBRANCH  22  23
ENDBRANCH  21  22
ENDBRANCH  20  21
ENDBRANCH  19  20
ENDBRANCH  16  19
ENDBRANCH   1  16
TORSDOF 11
ENDMDL
MODEL 5
REMARK VINA RESULT:      -6.5      2.285      3.641
REMARK  Name = 
REMARK  11 active torsions:
REMARK  status: ('A' for Active; 'I' for Inactive)
REMARK    1  A    between atoms: C_2  and  C_3
REMARK    2  A    between atoms: C_8  and  N_9
REMARK    3  A    between atoms: N_12  and  C_13
REMARK    4  A    between atoms: C_13  and  C_14
REMARK    5  A    between atoms: C_14  and  O_15
REMARK    6  A    between atoms: C_14  and  C_16
REMARK    7  A    between atoms: C_16  and  O_17
REMARK    8  A    between atoms: O_17  and  C_18
REMARK    9  A    between atoms: C_18  and  C_19
REMARK   10  A    between atoms: C_19  and  O_20
REMARK   11  A    between atoms: O_20  and  C_21
REMARK                            x       y       z     vdW  Elec       q    Type
REMARK                         _______ _______ _______ _____ _____    ______ ____
ROOT
ATOM      1  C   UNL     1       6.843   6.610  16.980  0.00  0.00    +0.000 C 
ENDROOT
BRANCH   1   5
ATOM      2  N   UNL     1       4.216   4.699  18.499  0.00  0.00    +0.000 N 
ATOM      3  C   UNL     1       5.352   5.227  19.271  0.00  0.00    +0.000 C 
ATOM      4  C   UNL     1       6.693   4.831  18.619  0.00  0.00    +0.000 C 
ATOM      5  N   UNL     1       6.800   5.145  17.172  0.00  0.00    +0.000 NA
ATOM      6  C   UNL     1       5.653   4.492  16.503  0.00  0.00    +0.000 C 
ATOM      7  C   UNL     1       4.272   4.935  17.041  0.00  0.00    +0.000 C 
BRANCH   2  13
ATOM      8  C   UNL     1       2.703   2.837  19.138  0.00  0.00    +0.000 A 
ATOM      9  C   UNL     1       1.526   2.427  19.789  0.00  0.00    +0.000 A 
ATOM     10  C   UNL     1       0.700   3.354  20.418  0.00  0.00    +0.000 A 
ATOM     11  C   UNL     1       1.027   4.701  20.377  0.00  0.00    +0.000 A 
ATOM     12  C   UNL     1       2.190   5.113  19.726  0.00  0.00    +0.000 A 
ATOM     13  C   UNL     1       3.076   4.203  19.109  0.00  0.00    +0.000 A 
BRANCH   8  15
ATOM     14  N   UNL     1       4.155   0.953  18.095  0.00  0.00    +0.000 NA
ATOM     15  C   UNL     1       3.504   1.783  18.566  0.00  0.00    +0.000 C 
ENDBRANCH   8  15
ENDBRANCH   2  13
ENDBRANCH   1   5
BRANCH   1  16
ATOM     16  C   UNL     1       7.382   7.444  18.172  0.00  0.00    +0.000 C 
BRANCH  16  17
ATOM     17  O   UNL     1       8.489   6.820  18.837  0.00  0.00    +0.000 OA
ATOM     18  H   UNL     1       9.306   7.260  18.549  0.00  0.00    +0.000 HD
ENDBRANCH  16  17
BRANCH  16  19
ATOM     19  C   UNL     1       7.887   8.788  17.657  0.00  0.00    +0.000 C 
BRANCH  19  20
ATOM     20  O   UNL     1       8.717   9.419  18.622  0.00  0.00    +0.000 OA
BRANCH  20  21
ATOM     21  C   UNL     1       9.132  10.718  18.212  0.00  0.00    +0.000 C 
BRANCH  21  22
ATOM     22  C   UNL     1      10.407  11.148  18.921  0.00  0.00    +0.000 C 
BRANCH  22  23
ATOM     23  O   UNL     1      11.264  11.763  17.977  0.00  0.00    +0.000 OA
BRANCH  23  24
ATOM     24  C   UNL     1      11.465  13.099  18.163  0.00  0.00    +0.000 A 
ATOM     25  C   UNL     1      11.847  13.717  19.357  0.00  0.00    +0.000 A 
ATOM     26  C   UNL     1      12.083  15.092  19.383  0.00  0.00    +0.000 A 
ATOM     27  C   UNL     1      11.930  15.839  18.218  0.00  0.00    +0.000 A 
ATOM     28 BR   UNL     1      12.303  17.691  18.240  0.00  0.00    +0.000 Br
ATOM     29  C   UNL     1      11.522  15.232  17.032  0.00  0.00    +0.000 A 
ATOM     30  C   UNL     1      11.285  13.860  17.009  0.00  0.00    +0.000 A 
ENDBRANCH  23  24
ENDBRANCH  22  23
ENDBRANCH  21  22
ENDBRANCH  20  21
ENDBRANCH  19  20
ENDBRANCH  16  19
ENDBRANCH   1  16
TORSDOF 11
ENDMDL
MODEL 6
REMARK VINA RESULT:      -6.5      5.381      7.829
REMARK  Name = 
REMARK  11 active torsions:
REMARK  status: ('A' for Active; 'I' for Inactive)
REMARK    1  A    between atoms: C_2  and  C_3
REMARK    2  A    between atoms: C_8  and  N_9
REMARK    3  A    between atoms: N_12  and  C_13
REMARK    4  A    between atoms: C_13  and  C_14
REMARK    5  A    between atoms: C_14  and  O_15
REMARK    6  A    between atoms: C_14  and  C_16
REMARK    7  A    between atoms: C_16  and  O_17
REMARK    8  A    between atoms: O_17  and  C_18
REMARK    9  A    between atoms: C_18  and  C_19
REMARK   10  A    between atoms: C_19  and  O_20
REMARK   11  A    between atoms: O_20  and  C_21
REMARK                            x       y       z     vdW  Elec       q    Type
REMARK                         _______ _______ _______ _____ _____    ______ ____
ROOT
ATOM      1  C   UNL     1       2.376   3.181  20.891  0.00  0.00    +0.000 C 
ENDROOT
BRANCH   1   5
ATOM      2  N   UNL     1       4.212   3.791  17.871  0.00  0.00    +0.000 N 
ATOM      3  C   UNL     1       2.759   3.557  17.874  0.00  0.00    +0.000 C 
ATOM      4  C   UNL     1       2.411   2.267  18.647  0.00  0.00    +0.000 C 
ATOM      5  N   UNL     1       3.001   2.176  20.006  0.00  0.00    +0.000 NA
ATOM      6  C   UNL     1       4.464   2.344  19.854  0.00  0.00    +0.000 C 
ATOM      7  C   UNL     1       4.879   3.674  19.184  0.00  0.00    +0.000 C 
BRANCH   2  13
ATOM      8  C   UNL     1       4.887   5.651  16.370  0.00  0.00    +0.000 A 
ATOM      9  C   UNL     1       5.597   6.063  15.229  0.00  0.00    +0.000 A 
ATOM     10  C   UNL     1       6.304   5.145  14.459  0.00  0.00    +0.000 A 
ATOM     11  C   UNL     1       6.284   3.802  14.804  0.00  0.00    +0.000 A 
ATOM     12  C   UNL     1       5.574   3.387  15.931  0.00  0.00    +0.000 A 
ATOM     13  C   UNL     1       4.876   4.290  16.763  0.00  0.00    +0.000 A 
BRANCH   8  15
ATOM     14  N   UNL     1       3.703   7.544  17.696  0.00  0.00    +0.000 NA
ATOM     15  C   UNL     1       4.235   6.698  17.116  0.00  0.00    +0.000 C 
ENDBRANCH   8  15
ENDBRANCH   2  13
ENDBRANCH   1   5
BRANCH   1  16
ATOM     16  C   UNL     1       1.661   4.364  20.189  0.00  0.00    +0.000 C 
BRANCH  16  17
ATOM     17  O   UNL     1       0.250   4.396  20.443  0.00  0.00    +0.000 OA
ATOM     18  H   UNL     1      -0.129   5.156  19.971  0.00  0.00    +0.000 HD
ENDBRANCH  16  17
BRANCH  16  19
ATOM     19  C   UNL     1       2.227   5.678  20.717  0.00  0.00    +0.000 C 
BRANCH  19  20
ATOM     20  O   UNL     1       1.197   6.644  20.878  0.00  0.00    +0.000 OA
BRANCH  20  21
ATOM     21  C   UNL     1       1.624   7.955  20.524  0.00  0.00    +0.000 C 
BRANCH  21  22
ATOM     22  C   UNL     1       0.611   9.007  20.946  0.00  0.00    +0.000 C 
BRANCH  22  23
ATOM     23  O   UNL     1       0.763  10.141  20.114  0.00  0.00    +0.000 OA
BRANCH  23  24
ATOM     24  C   UNL     1      -0.295  10.402  19.293  0.00  0.00    +0.000 A 
ATOM     25  C   UNL     1      -0.542   9.810  18.051  0.00  0.00    +0.000 A 
ATOM     26  C   UNL     1      -1.706  10.127  17.350  0.00  0.00    +0.000 A 
ATOM     27  C   UNL     1      -2.610  11.037  17.891  0.00  0.00    +0.000 A 
ATOM     28 BR   UNL     1      -4.211  11.425  16.966  0.00  0.00    +0.000 Br
ATOM     29  C   UNL     1      -2.354  11.653  19.114  0.00  0.00    +0.000 A 
ATOM     30  C   UNL     1      -1.191  11.336  19.812  0.00  0.00    +0.000 A 
ENDBRANCH  23  24
ENDBRANCH  22  23
ENDBRANCH  21  22
ENDBRANCH  20  21
ENDBRANCH  19  20
ENDBRANCH  16  19
ENDBRANCH   1  16
TORSDOF 11
ENDMDL
MODEL 7
REMARK VINA RESULT:      -6.5      2.534      4.375
REMARK  Name = 
REMARK  11 active torsions:
REMARK  status: ('A' for Active; 'I' for Inactive)
REMARK    1  A    between atoms: C_2  and  C_3
REMARK    2  A    between atoms: C_8  and  N_9
REMARK    3  A    between atoms: N_12  and  C_13
REMARK    4  A    between atoms: C_13  and  C_14
REMARK    5  A    between atoms: C_14  and  O_15
REMARK    6  A    between atoms: C_14  and  C_16
REMARK    7  A    between atoms: C_16  and  O_17
REMARK    8  A    between atoms: O_17  and  C_18
REMARK    9  A    between atoms: C_18  and  C_19
REMARK   10  A    between atoms: C_19  and  O_20
REMARK   11  A    between atoms: O_20  and  C_21
REMARK                            x       y       z     vdW  Elec       q    Type
REMARK                         _______ _______ _______ _____ _____    ______ ____
ROOT
ATOM      1  C   UNL     1       7.763   7.269  18.341  0.00  0.00    +0.000 C 
ENDROOT
BRANCH   1   5
ATOM      2  N   UNL     1       4.956   5.052  18.088  0.00  0.00    +0.000 N 
ATOM      3  C   UNL     1       6.129   4.743  18.920  0.00  0.00    +0.000 C 
ATOM      4  C   UNL     1       7.434   4.880  18.107  0.00  0.00    +0.000 C 
ATOM      5  N   UNL     1       7.581   6.164  17.376  0.00  0.00    +0.000 NA
ATOM      6  C   UNL     1       6.384   6.313  16.519  0.00  0.00    +0.000 C 
ATOM      7  C   UNL     1       5.047   6.296  17.295  0.00  0.00    +0.000 C 
BRANCH   2  13
ATOM      8  C   UNL     1       2.595   4.825  18.825  0.00  0.00    +0.000 A 
ATOM      9  C   UNL     1       1.435   4.034  18.878  0.00  0.00    +0.000 A 
ATOM     10  C   UNL     1       1.412   2.762  18.313  0.00  0.00    +0.000 A 
ATOM     11  C   UNL     1       2.558   2.257  17.717  0.00  0.00    +0.000 A 
ATOM     12  C   UNL     1       3.714   3.036  17.669  0.00  0.00    +0.000 A 
ATOM     13  C   UNL     1       3.769   4.346  18.194  0.00  0.00    +0.000 A 
BRANCH   8  15
ATOM     14  N   UNL     1       2.379   7.204  19.845  0.00  0.00    +0.000 NA
ATOM     15  C   UNL     1       2.484   6.143  19.398  0.00  0.00    +0.000 C 
ENDBRANCH   8  15
ENDBRANCH   2  13
ENDBRANCH   1   5
BRANCH   1  16
ATOM     16  C   UNL     1       8.193   8.636  17.747  0.00  0.00    +0.000 C 
BRANCH  16  17
ATOM     17  O   UNL     1       7.080   9.451  17.356  0.00  0.00    +0.000 OA
ATOM     18  H   UNL     1       6.366   9.326  18.003  0.00  0.00    +0.000 HD
ENDBRANCH  16  17
BRANCH  16  19
ATOM     19  C   UNL     1       8.959   9.424  18.805  0.00  0.00    +0.000 C 
BRANCH  19  20
ATOM     20  O   UNL     1       9.498  10.617  18.253  0.00  0.00    +0.000 OA
BRANCH  20  21
ATOM     21  C   UNL     1      10.163  11.413  19.229  0.00  0.00    +0.000 C 
BRANCH  21  22
ATOM     22  C   UNL     1       9.562  11.220  20.612  0.00  0.00    +0.000 C 
BRANCH  22  23
ATOM     23  O   UNL     1       8.738  12.333  20.907  0.00  0.00    +0.000 OA
BRANCH  23  24
ATOM     24  C   UNL     1       8.515  12.553  22.234  0.00  0.00    +0.000 A 
ATOM     25  C   UNL     1       8.088  11.603  23.167  0.00  0.00    +0.000 A 
ATOM     26  C   UNL     1       7.966  11.956  24.511  0.00  0.00    +0.000 A 
ATOM     27  C   UNL     1       8.265  13.255  24.912  0.00  0.00    +0.000 A 
ATOM     28 BR   UNL     1       8.152  13.718  26.740  0.00  0.00    +0.000 Br
ATOM     29  C   UNL     1       8.662  14.213  23.982  0.00  0.00    +0.000 A 
ATOM     30  C   UNL     1       8.782  13.859  22.640  0.00  0.00    +0.000 A 
ENDBRANCH  23  24
ENDBRANCH  22  23
ENDBRANCH  21  22
ENDBRANCH  20  21
ENDBRANCH  19  20
ENDBRANCH  16  19
ENDBRANCH   1  16
TORSDOF 11
ENDMDL
MODEL 8
REMARK VINA RESULT:      -6.4      2.073      3.793
REMARK  Name = 
REMARK  11 active torsions:
REMARK  status: ('A' for Active; 'I' for Inactive)
REMARK    1  A    between atoms: C_2  and  C_3
REMARK    2  A    between atoms: C_8  and  N_9
REMARK    3  A    between atoms: N_12  and  C_13
REMARK    4  A    between atoms: C_13  and  C_14
REMARK    5  A    between atoms: C_14  and  O_15
REMARK    6  A    between atoms: C_14  and  C_16
REMARK    7  A    between atoms: C_16  and  O_17
REMARK    8  A    between atoms: O_17  and  C_18
REMARK    9  A    between atoms: C_18  and  C_19
REMARK   10  A    between atoms: C_19  and  O_20
REMARK   11  A    between atoms: O_20  and  C_21
REMARK                            x       y       z     vdW  Elec       q    Type
REMARK                         _______ _______ _______ _____ _____    ______ ____
ROOT
ATOM      1  C   UNL     1       7.363   6.964  16.831  0.00  0.00    +0.000 C 
ENDROOT
BRANCH   1   5
ATOM      2  N   UNL     1       4.763   4.634  17.649  0.00  0.00    +0.000 N 
ATOM      3  C   UNL     1       5.687   5.168  18.661  0.00  0.00    +0.000 C 
ATOM      4  C   UNL     1       7.154   4.988  18.218  0.00  0.00    +0.000 C 
ATOM      5  N   UNL     1       7.459   5.489  16.855  0.00  0.00    +0.000 NA
ATOM      6  C   UNL     1       6.522   4.816  15.927  0.00  0.00    +0.000 C 
ATOM      7  C   UNL     1       5.030   5.054  16.257  0.00  0.00    +0.000 C 
BRANCH   2  13
ATOM      8  C   UNL     1       2.464   4.552  18.584  0.00  0.00    +0.000 A 
ATOM      9  C   UNL     1       1.329   3.782  18.891  0.00  0.00    +0.000 A 
ATOM     10  C   UNL     1       1.299   2.418  18.620  0.00  0.00    +0.000 A 
ATOM     11  C   UNL     1       2.414   1.804  18.068  0.00  0.00    +0.000 A 
ATOM     12  C   UNL     1       3.545   2.564  17.769  0.00  0.00    +0.000 A 
ATOM     13  C   UNL     1       3.604   3.957  17.991  0.00  0.00    +0.000 A 
BRANCH   8  15
ATOM     14  N   UNL     1       2.289   7.091  19.105  0.00  0.00    +0.000 NA
ATOM     15  C   UNL     1       2.360   5.963  18.863  0.00  0.00    +0.000 C 
ENDBRANCH   8  15
ENDBRANCH   2  13
ENDBRANCH   1   5
BRANCH   1  16
ATOM     16  C   UNL     1       7.620   7.691  18.176  0.00  0.00    +0.000 C 
BRANCH  16  17
ATOM     17  O   UNL     1       8.567   7.010  19.010  0.00  0.00    +0.000 OA
ATOM     18  H   UNL     1       8.838   7.613  19.721  0.00  0.00    +0.000 HD
ENDBRANCH  16  17
BRANCH  16  19
ATOM     19  C   UNL     1       8.203   9.073  17.897  0.00  0.00    +0.000 C 
BRANCH  19  20
ATOM     20  O   UNL     1       9.270   9.361  18.789  0.00  0.00    +0.000 OA
BRANCH  20  21
ATOM     21  C   UNL     1       9.439  10.759  18.999  0.00  0.00    +0.000 C 
BRANCH  21  22
ATOM     22  C   UNL     1       9.344  11.120  20.472  0.00  0.00    +0.000 C 
BRANCH  22  23
ATOM     23  O   UNL     1      10.569  11.703  20.875  0.00  0.00    +0.000 OA
BRANCH  23  24
ATOM     24  C   UNL     1      10.989  12.752  20.111  0.00  0.00    +0.000 A 
ATOM     25  C   UNL     1      12.060  12.742  19.212  0.00  0.00    +0.000 A 
ATOM     26  C   UNL     1      12.333  13.875  18.445  0.00  0.00    +0.000 A 
ATOM     27  C   UNL     1      11.539  15.011  18.586  0.00  0.00    +0.000 A 
ATOM     28 BR   UNL     1      11.876  16.525  17.508  0.00  0.00    +0.000 Br
ATOM     29  C   UNL     1      10.490  15.036  19.501  0.00  0.00    +0.000 A 
ATOM     30  C   UNL     1      10.219  13.904  20.267  0.00  0.00    +0.000 A 
ENDBRANCH  23  24
ENDBRANCH  22  23
ENDBRANCH  21  22
ENDBRANCH  20  21
ENDBRANCH  19  20
ENDBRANCH  16  19
ENDBRANCH   1  16
TORSDOF 11
ENDMDL
MODEL 9
REMARK VINA RESULT:      -6.3      0.919      1.287
REMARK  Name = 
REMARK  11 active torsions:
REMARK  status: ('A' for Active; 'I' for Inactive)
REMARK    1  A    between atoms: C_2  and  C_3
REMARK    2  A    between atoms: C_8  and  N_9
REMARK    3  A    between atoms: N_12  and  C_13
REMARK    4  A    between atoms: C_13  and  C_14
REMARK    5  A    between atoms: C_14  and  O_15
REMARK    6  A    between atoms: C_14  and  C_16
REMARK    7  A    between atoms: C_16  and  O_17
REMARK    8  A    between atoms: O_17  and  C_18
REMARK    9  A    between atoms: C_18  and  C_19
REMARK   10  A    between atoms: C_19  and  O_20
REMARK   11  A    between atoms: O_20  and  C_21
REMARK                            x       y       z     vdW  Elec       q    Type
REMARK                         _______ _______ _______ _____ _____    ______ ____
ROOT
ATOM      1  C   UNL     1       5.154   4.511  16.053  0.00  0.00    +0.000 C 
ENDROOT
BRANCH   1   5
ATOM      2  N   UNL     1       3.101   5.899  18.646  0.00  0.00    +0.000 N 
ATOM      3  C   UNL     1       4.570   5.883  18.729  0.00  0.00    +0.000 C 
ATOM      4  C   UNL     1       5.121   4.464  18.475  0.00  0.00    +0.000 C 
ATOM      5  N   UNL     1       4.619   3.812  17.240  0.00  0.00    +0.000 NA
ATOM      6  C   UNL     1       3.141   3.818  17.319  0.00  0.00    +0.000 C 
ATOM      7  C   UNL     1       2.523   5.228  17.462  0.00  0.00    +0.000 C 
BRANCH   2  13
ATOM      8  C   UNL     1       1.713   6.187  20.685  0.00  0.00    +0.000 A 
ATOM      9  C   UNL     1       0.942   7.042  21.490  0.00  0.00    +0.000 A 
ATOM     10  C   UNL     1       0.757   8.376  21.140  0.00  0.00    +0.000 A 
ATOM     11  C   UNL     1       1.316   8.860  19.967  0.00  0.00    +0.000 A 
ATOM     12  C   UNL     1       2.076   8.012  19.160  0.00  0.00    +0.000 A 
ATOM     13  C   UNL     1       2.321   6.663  19.498  0.00  0.00    +0.000 A 
BRANCH   8  15
ATOM     14  N   UNL     1       1.995   3.754  21.549  0.00  0.00    +0.000 NA
ATOM     15  C   UNL     1       1.876   4.840  21.174  0.00  0.00    +0.000 C 
ENDBRANCH   8  15
ENDBRANCH   2  13
ENDBRANCH   1   5
BRANCH   1  16
ATOM     16  C   UNL     1       6.538   4.036  15.541  0.00  0.00    +0.000 C 
BRANCH  16  17
ATOM     17  O   UNL     1       6.522   3.648  14.161  0.00  0.00    +0.000 OA
ATOM     18  H   UNL     1       5.733   4.032  13.743  0.00  0.00    +0.000 HD
ENDBRANCH  16  17
BRANCH  16  19
ATOM     19  C   UNL     1       7.537   5.183  15.657  0.00  0.00    +0.000 C 
BRANCH  19  20
ATOM     20  O   UNL     1       6.920   6.337  16.211  0.00  0.00    +0.000 OA
BRANCH  20  21
ATOM     21  C   UNL     1       7.610   6.824  17.357  0.00  0.00    +0.000 C 
BRANCH  21  22
ATOM     22  C   UNL     1       7.358   8.307  17.574  0.00  0.00    +0.000 C 
BRANCH  22  23
ATOM     23  O   UNL     1       8.573   9.005  17.374  0.00  0.00    +0.000 OA
BRANCH  23  24
ATOM     24  C   UNL     1       8.812  10.015  18.260  0.00  0.00    +0.000 A 
ATOM     25  C   UNL     1       9.250   9.869  19.579  0.00  0.00    +0.000 A 
ATOM     26  C   UNL     1       9.519  11.000  20.351  0.00  0.00    +0.000 A 
ATOM     27  C   UNL     1       9.342  12.267  19.802  0.00  0.00    +0.000 A 
ATOM     28 BR   UNL     1       9.757  13.797  20.829  0.00  0.00    +0.000 Br
ATOM     29  C   UNL     1       8.878  12.418  18.497  0.00  0.00    +0.000 A 
ATOM     30  C   UNL     1       8.609  11.288  17.728  0.00  0.00    +0.000 A 
ENDBRANCH  23  24
ENDBRANCH  22  23
ENDBRANCH  21  22
ENDBRANCH  20  21
ENDBRANCH  19  20
ENDBRANCH  16  19
ENDBRANCH   1  16
TORSDOF 11
ENDMDL
