MODEL 1
REMARK VINA RESULT:      -7.7      0.000      0.000
REMARK  Name = 
REMARK  7 active torsions:
REMARK  status: ('A' for Active; 'I' for Inactive)
REMARK    1  A    between atoms: C_1  and  C_2
REMARK    2  A    between atoms: C_2  and  C_3
REMARK    3  A    between atoms: C_3  and  N_4
REMARK    4  A    between atoms: C_5  and  C_6
REMARK    5  A    between atoms: C_9  and  N_10
REMARK    6  A    between atoms: N_10  and  C_11
REMARK    7  A    between atoms: C_14  and  C_15
REMARK                            x       y       z     vdW  Elec       q    Type
REMARK                         _______ _______ _______ _____ _____    ______ ____
ROOT
ATOM      1  C   UNL     1       2.470   8.017  18.351  0.00  0.00    +0.000 A 
ATOM      2  C   UNL     1       2.044   9.136  17.663  0.00  0.00    +0.000 A 
ATOM      3  N   UNL     1       1.272  10.118  18.161  0.00  0.00    +0.000 NA
ATOM      4  C   UNL     1       0.770   9.991  19.399  0.00  0.00    +0.000 A 
ATOM      5  C   UNL     1       1.098   8.877  20.178  0.00  0.00    +0.000 A 
ATOM      6 CL   UNL     1       0.420   8.643  21.749  0.00  0.00    +0.000 Cl
ATOM      7  C   UNL     1       1.959   7.897  19.652  0.00  0.00    +0.000 A 
ENDROOT
BRANCH   1   9
ATOM      8  N   UNL     1       3.105   5.625  17.581  0.00  0.00    +0.000 N 
ATOM      9  C   UNL     1       3.363   6.983  17.787  0.00  0.00    +0.000 A 
ATOM     10  N   UNL     1       4.591   7.262  17.370  0.00  0.00    +0.000 NA
ATOM     11  C   UNL     1       5.157   6.074  16.987  0.00  0.00    +0.000 A 
ATOM     12  C   UNL     1       6.451   5.817  16.500  0.00  0.00    +0.000 A 
ATOM     13  C   UNL     1       6.813   4.494  16.204  0.00  0.00    +0.000 A 
ATOM     14  C   UNL     1       5.904   3.452  16.383  0.00  0.00    +0.000 A 
ATOM     15  C   UNL     1       4.607   3.698  16.841  0.00  0.00    +0.000 A 
ATOM     16  C   UNL     1       4.263   5.028  17.131  0.00  0.00    +0.000 A 
BRANCH   8  17
ATOM     17  C   UNL     1       1.881   4.877  17.822  0.00  0.00    +0.000 C 
BRANCH  17  19
ATOM     18  C   UNL     1       1.458   2.697  19.006  0.00  0.00    +0.000 C 
ATOM     19  C   UNL     1       1.850   4.156  19.175  0.00  0.00    +0.000 C 
ENDBRANCH  17  19
ENDBRANCH   8  17
ENDBRANCH   1   9
BRANCH   4  20
ATOM     20  N   UNL     1      -0.165  10.952  19.813  0.00  0.00    +0.000 N 
ATOM     21  H   UNL     1       0.262  11.797  20.169  0.00  0.00    +0.000 HD
BRANCH  20  22
ATOM     22  C   UNL     1      -1.514  11.058  19.414  0.00  0.00    +0.000 A 
ATOM     23  C   UNL     1      -2.007  10.253  18.390  0.00  0.00    +0.000 A 
ATOM     24  C   UNL     1      -3.262  10.512  17.829  0.00  0.00    +0.000 A 
ATOM     25  C   UNL     1      -4.011  11.583  18.307  0.00  0.00    +0.000 A 
ATOM     26  C   UNL     1      -5.259  12.040  17.623  0.00  0.00    +0.000 C 
ATOM     27  N   UNL     1      -3.605  12.334  19.347  0.00  0.00    +0.000 NA
ATOM     28  C   UNL     1      -2.382  12.060  19.862  0.00  0.00    +0.000 A 
ENDBRANCH  20  22
ENDBRANCH   4  20
TORSDOF 5
ENDMDL
MODEL 2
REMARK VINA RESULT:      -7.6      0.626      1.038
REMARK  Name = 
REMARK  7 active torsions:
REMARK  status: ('A' for Active; 'I' for Inactive)
REMARK    1  A    between atoms: C_1  and  C_2
REMARK    2  A    between atoms: C_2  and  C_3
REMARK    3  A    between atoms: C_3  and  N_4
REMARK    4  A    between atoms: C_5  and  C_6
REMARK    5  A    between atoms: C_9  and  N_10
REMARK    6  A    between atoms: N_10  and  C_11
REMARK    7  A    between atoms: C_14  and  C_15
REMARK                            x       y       z     vdW  Elec       q    Type
REMARK                         _______ _______ _______ _____ _____    ______ ____
ROOT
ATOM      1  C   UNL     1       2.434   8.020  18.450  0.00  0.00    +0.000 A 
ATOM      2  C   UNL     1       1.985   9.156  17.805  0.00  0.00    +0.000 A 
ATOM      3  N   UNL     1       1.237  10.128  18.356  0.00  0.00    +0.000 NA
ATOM      4  C   UNL     1       0.786   9.974  19.610  0.00  0.00    +0.000 A 
ATOM      5  C   UNL     1       1.141   8.841  20.350  0.00  0.00    +0.000 A 
ATOM      6 CL   UNL     1       0.527   8.574  21.941  0.00  0.00    +0.000 Cl
ATOM      7  C   UNL     1       1.976   7.871  19.767  0.00  0.00    +0.000 A 
ENDROOT
BRANCH   1   9
ATOM      8  N   UNL     1       3.069   5.625  17.687  0.00  0.00    +0.000 N 
ATOM      9  C   UNL     1       3.300   6.997  17.826  0.00  0.00    +0.000 A 
ATOM     10  N   UNL     1       4.469   7.301  17.277  0.00  0.00    +0.000 NA
ATOM     11  C   UNL     1       5.032   6.119  16.871  0.00  0.00    +0.000 A 
ATOM     12  C   UNL     1       6.278   5.887  16.261  0.00  0.00    +0.000 A 
ATOM     13  C   UNL     1       6.653   4.567  15.967  0.00  0.00    +0.000 A 
ATOM     14  C   UNL     1       5.804   3.503  16.269  0.00  0.00    +0.000 A 
ATOM     15  C   UNL     1       4.553   3.724  16.851  0.00  0.00    +0.000 A 
ATOM     16  C   UNL     1       4.194   5.051  17.138  0.00  0.00    +0.000 A 
BRANCH   8  17
ATOM     17  C   UNL     1       1.902   4.848  18.074  0.00  0.00    +0.000 C 
BRANCH  17  19
ATOM     18  C   UNL     1       1.076   4.317  20.392  0.00  0.00    +0.000 C 
ATOM     19  C   UNL     1       2.115   3.994  19.330  0.00  0.00    +0.000 C 
ENDBRANCH  17  19
ENDBRANCH   8  17
ENDBRANCH   1   9
BRANCH   4  20
ATOM     20  N   UNL     1      -0.128  10.928  20.084  0.00  0.00    +0.000 N 
ATOM     21  H   UNL     1       0.289  11.602  20.712  0.00  0.00    +0.000 HD
BRANCH  20  22
ATOM     22  C   UNL     1      -1.354  11.302  19.495  0.00  0.00    +0.000 A 
ATOM     23  C   UNL     1      -2.172  12.242  20.117  0.00  0.00    +0.000 A 
ATOM     24  C   UNL     1      -3.483  12.443  19.673  0.00  0.00    +0.000 A 
ATOM     25  C   UNL     1      -3.960  11.692  18.603  0.00  0.00    +0.000 A 
ATOM     26  C   UNL     1      -5.402  11.705  18.209  0.00  0.00    +0.000 C 
ATOM     27  N   UNL     1      -3.177  10.832  17.925  0.00  0.00    +0.000 NA
ATOM     28  C   UNL     1      -1.914  10.658  18.386  0.00  0.00    +0.000 A 
ENDBRANCH  20  22
ENDBRANCH   4  20
TORSDOF 5
ENDMDL
MODEL 3
REMARK VINA RESULT:      -7.6      2.715      8.862
REMARK  Name = 
REMARK  7 active torsions:
REMARK  status: ('A' for Active; 'I' for Inactive)
REMARK    1  A    between atoms: C_1  and  C_2
REMARK    2  A    between atoms: C_2  and  C_3
REMARK    3  A    between atoms: C_3  and  N_4
REMARK    4  A    between atoms: C_5  and  C_6
REMARK    5  A    between atoms: C_9  and  N_10
REMARK    6  A    between atoms: N_10  and  C_11
REMARK    7  A    between atoms: C_14  and  C_15
REMARK                            x       y       z     vdW  Elec       q    Type
REMARK                         _______ _______ _______ _____ _____    ______ ____
ROOT
ATOM      1  C   UNL     1       2.245   7.244  19.539  0.00  0.00    +0.000 A 
ATOM      2  C   UNL     1       2.937   7.504  18.373  0.00  0.00    +0.000 A 
ATOM      3  N   UNL     1       3.681   6.617  17.687  0.00  0.00    +0.000 NA
ATOM      4  C   UNL     1       3.871   5.391  18.196  0.00  0.00    +0.000 A 
ATOM      5  C   UNL     1       3.253   5.026  19.397  0.00  0.00    +0.000 A 
ATOM      6 CL   UNL     1       3.526   3.482  20.119  0.00  0.00    +0.000 Cl
ATOM      7  C   UNL     1       2.431   5.955  20.059  0.00  0.00    +0.000 A 
ENDROOT
BRANCH   1   9
ATOM      8  N   UNL     1       0.878   9.436  19.755  0.00  0.00    +0.000 N 
ATOM      9  C   UNL     1       1.394   8.231  20.238  0.00  0.00    +0.000 A 
ATOM     10  N   UNL     1       0.986   8.050  21.488  0.00  0.00    +0.000 NA
ATOM     11  C   UNL     1       0.291   9.178  21.841  0.00  0.00    +0.000 A 
ATOM     12  C   UNL     1      -0.319   9.504  23.065  0.00  0.00    +0.000 A 
ATOM     13  C   UNL     1      -0.951  10.750  23.198  0.00  0.00    +0.000 A 
ATOM     14  C   UNL     1      -0.978  11.649  22.132  0.00  0.00    +0.000 A 
ATOM     15  C   UNL     1      -0.398  11.326  20.902  0.00  0.00    +0.000 A 
ATOM     16  C   UNL     1       0.228  10.074  20.789  0.00  0.00    +0.000 A 
BRANCH   8  17
ATOM     17  C   UNL     1       1.001  10.019  18.428  0.00  0.00    +0.000 C 
BRANCH  17  19
ATOM     18  C   UNL     1       1.916  12.364  18.370  0.00  0.00    +0.000 C 
ATOM     19  C   UNL     1       2.252  10.886  18.245  0.00  0.00    +0.000 C 
ENDBRANCH  17  19
ENDBRANCH   8  17
ENDBRANCH   1   9
BRANCH   4  20
ATOM     20  N   UNL     1       4.789   4.559  17.537  0.00  0.00    +0.000 N 
ATOM     21  H   UNL     1       4.712   3.587  17.809  0.00  0.00    +0.000 HD
BRANCH  20  22
ATOM     22  C   UNL     1       5.449   4.813  16.317  0.00  0.00    +0.000 A 
ATOM     23  C   UNL     1       5.047   4.160  15.154  0.00  0.00    +0.000 A 
ATOM     24  C   UNL     1       5.836   4.222  14.000  0.00  0.00    +0.000 A 
ATOM     25  C   UNL     1       7.026   4.942  14.030  0.00  0.00    +0.000 A 
ATOM     26  C   UNL     1       8.012   4.882  12.908  0.00  0.00    +0.000 C 
ATOM     27  N   UNL     1       7.409   5.650  15.108  0.00  0.00    +0.000 NA
ATOM     28  C   UNL     1       6.625   5.564  16.210  0.00  0.00    +0.000 A 
ENDBRANCH  20  22
ENDBRANCH   4  20
TORSDOF 5
ENDMDL
MODEL 4
REMARK VINA RESULT:      -7.6      2.053      2.768
REMARK  Name = 
REMARK  7 active torsions:
REMARK  status: ('A' for Active; 'I' for Inactive)
REMARK    1  A    between atoms: C_1  and  C_2
REMARK    2  A    between atoms: C_2  and  C_3
REMARK    3  A    between atoms: C_3  and  N_4
REMARK    4  A    between atoms: C_5  and  C_6
REMARK    5  A    between atoms: C_9  and  N_10
REMARK    6  A    between atoms: N_10  and  C_11
REMARK    7  A    between atoms: C_14  and  C_15
REMARK                            x       y       z     vdW  Elec       q    Type
REMARK                         _______ _______ _______ _____ _____    ______ ____
ROOT
ATOM      1  C   UNL     1       2.187   7.962  18.557  0.00  0.00    +0.000 A 
ATOM      2  C   UNL     1       1.470   8.927  17.878  0.00  0.00    +0.000 A 
ATOM      3  N   UNL     1       0.666   9.848  18.440  0.00  0.00    +0.000 NA
ATOM      4  C   UNL     1       0.438   9.798  19.761  0.00  0.00    +0.000 A 
ATOM      5  C   UNL     1       1.078   8.835  20.548  0.00  0.00    +0.000 A 
ATOM      6 CL   UNL     1       0.760   8.695  22.239  0.00  0.00    +0.000 Cl
ATOM      7  C   UNL     1       1.962   7.925  19.941  0.00  0.00    +0.000 A 
ENDROOT
BRANCH   1   9
ATOM      8  N   UNL     1       2.977   5.611  17.802  0.00  0.00    +0.000 N 
ATOM      9  C   UNL     1       3.104   6.999  17.910  0.00  0.00    +0.000 A 
ATOM     10  N   UNL     1       4.220   7.384  17.304  0.00  0.00    +0.000 NA
ATOM     11  C   UNL     1       4.857   6.243  16.891  0.00  0.00    +0.000 A 
ATOM     12  C   UNL     1       6.089   6.098  16.230  0.00  0.00    +0.000 A 
ATOM     13  C   UNL     1       6.555   4.807  15.938  0.00  0.00    +0.000 A 
ATOM     14  C   UNL     1       5.807   3.685  16.294  0.00  0.00    +0.000 A 
ATOM     15  C   UNL     1       4.568   3.817  16.928  0.00  0.00    +0.000 A 
ATOM     16  C   UNL     1       4.119   5.117  17.211  0.00  0.00    +0.000 A 
BRANCH   8  17
ATOM     17  C   UNL     1       1.893   4.752  18.252  0.00  0.00    +0.000 C 
BRANCH  17  19
ATOM     18  C   UNL     1       0.866   3.401  20.112  0.00  0.00    +0.000 C 
ATOM     19  C   UNL     1       2.054   4.254  19.693  0.00  0.00    +0.000 C 
ENDBRANCH  17  19
ENDBRANCH   8  17
ENDBRANCH   1   9
BRANCH   4  20
ATOM     20  N   UNL     1      -0.537  10.667  20.276  0.00  0.00    +0.000 N 
ATOM     21  H   UNL     1      -1.462  10.259  20.298  0.00  0.00    +0.000 HD
BRANCH  20  22
ATOM     22  C   UNL     1      -0.330  11.784  21.112  0.00  0.00    +0.000 A 
ATOM     23  C   UNL     1      -1.088  11.942  22.270  0.00  0.00    +0.000 A 
ATOM     24  C   UNL     1      -1.059  13.151  22.974  0.00  0.00    +0.000 A 
ATOM     25  C   UNL     1      -0.266  14.192  22.502  0.00  0.00    +0.000 A 
ATOM     26  C   UNL     1      -0.344  15.568  23.081  0.00  0.00    +0.000 C 
ATOM     27  N   UNL     1       0.541  14.052  21.435  0.00  0.00    +0.000 NA
ATOM     28  C   UNL     1       0.485  12.870  20.773  0.00  0.00    +0.000 A 
ENDBRANCH  20  22
ENDBRANCH   4  20
TORSDOF 5
ENDMDL
MODEL 5
REMARK VINA RESULT:      -7.6      2.306      2.801
REMARK  Name = 
REMARK  7 active torsions:
REMARK  status: ('A' for Active; 'I' for Inactive)
REMARK    1  A    between atoms: C_1  and  C_2
REMARK    2  A    between atoms: C_2  and  C_3
REMARK    3  A    between atoms: C_3  and  N_4
REMARK    4  A    between atoms: C_5  and  C_6
REMARK    5  A    between atoms: C_9  and  N_10
REMARK    6  A    between atoms: N_10  and  C_11
REMARK    7  A    between atoms: C_14  and  C_15
REMARK                            x       y       z     vdW  Elec       q    Type
REMARK                         _______ _______ _______ _____ _____    ______ ____
ROOT
ATOM      1  C   UNL     1       1.854   8.167  19.545  0.00  0.00    +0.000 A 
ATOM      2  C   UNL     1       1.532   8.162  20.887  0.00  0.00    +0.000 A 
ATOM      3  N   UNL     1       0.893   9.147  21.545  0.00  0.00    +0.000 NA
ATOM      4  C   UNL     1       0.614  10.290  20.901  0.00  0.00    +0.000 A 
ATOM      5  C   UNL     1       0.933  10.427  19.546  0.00  0.00    +0.000 A 
ATOM      6 CL   UNL     1       0.652  11.905  18.699  0.00  0.00    +0.000 Cl
ATOM      7  C   UNL     1       1.544   9.357  18.869  0.00  0.00    +0.000 A 
ENDROOT
BRANCH   1   9
ATOM      8  N   UNL     1       2.342   5.671  19.045  0.00  0.00    +0.000 N 
ATOM      9  C   UNL     1       2.510   7.043  18.842  0.00  0.00    +0.000 A 
ATOM     10  N   UNL     1       3.380   7.237  17.860  0.00  0.00    +0.000 NA
ATOM     11  C   UNL     1       3.843   5.999  17.495  0.00  0.00    +0.000 A 
ATOM     12  C   UNL     1       4.802   5.655  16.525  0.00  0.00    +0.000 A 
ATOM     13  C   UNL     1       5.138   4.303  16.356  0.00  0.00    +0.000 A 
ATOM     14  C   UNL     1       4.531   3.317  17.132  0.00  0.00    +0.000 A 
ATOM     15  C   UNL     1       3.558   3.644  18.080  0.00  0.00    +0.000 A 
ATOM     16  C   UNL     1       3.233   5.002  18.235  0.00  0.00    +0.000 A 
BRANCH   8  17
ATOM     17  C   UNL     1       1.448   4.982  19.963  0.00  0.00    +0.000 C 
BRANCH  17  19
ATOM     18  C   UNL     1       1.729   2.993  21.480  0.00  0.00    +0.000 C 
ATOM     19  C   UNL     1       2.147   4.430  21.212  0.00  0.00    +0.000 C 
ENDBRANCH  17  19
ENDBRANCH   8  17
ENDBRANCH   1   9
BRANCH   4  20
ATOM     20  N   UNL     1       0.105  11.349  21.668  0.00  0.00    +0.000 N 
ATOM     21  H   UNL     1       0.750  12.124  21.755  0.00  0.00    +0.000 HD
BRANCH  20  22
ATOM     22  C   UNL     1      -1.249  11.635  21.937  0.00  0.00    +0.000 A 
ATOM     23  C   UNL     1      -2.017  12.329  21.004  0.00  0.00    +0.000 A 
ATOM     24  C   UNL     1      -3.279  12.821  21.354  0.00  0.00    +0.000 A 
ATOM     25  C   UNL     1      -3.756  12.610  22.644  0.00  0.00    +0.000 A 
ATOM     26  C   UNL     1      -4.995  13.279  23.146  0.00  0.00    +0.000 C 
ATOM     27  N   UNL     1      -3.081  11.877  23.547  0.00  0.00    +0.000 NA
ATOM     28  C   UNL     1      -1.860  11.420  23.177  0.00  0.00    +0.000 A 
ENDBRANCH  20  22
ENDBRANCH   4  20
TORSDOF 5
ENDMDL
MODEL 6
REMARK VINA RESULT:      -7.5      2.547      8.832
REMARK  Name = 
REMARK  7 active torsions:
REMARK  status: ('A' for Active; 'I' for Inactive)
REMARK    1  A    between atoms: C_1  and  C_2
REMARK    2  A    between atoms: C_2  and  C_3
REMARK    3  A    between atoms: C_3  and  N_4
REMARK    4  A    between atoms: C_5  and  C_6
REMARK    5  A    between atoms: C_9  and  N_10
REMARK    6  A    between atoms: N_10  and  C_11
REMARK    7  A    between atoms: C_14  and  C_15
REMARK                            x       y       z     vdW  Elec       q    Type
REMARK                         _______ _______ _______ _____ _____    ______ ____
ROOT
ATOM      1  C   UNL     1       1.699   7.344  20.309  0.00  0.00    +0.000 A 
ATOM      2  C   UNL     1       2.669   7.385  19.327  0.00  0.00    +0.000 A 
ATOM      3  N   UNL     1       3.399   6.339  18.900  0.00  0.00    +0.000 NA
ATOM      4  C   UNL     1       3.273   5.157  19.521  0.00  0.00    +0.000 A 
ATOM      5  C   UNL     1       2.349   5.005  20.561  0.00  0.00    +0.000 A 
ATOM      6 CL   UNL     1       2.205   3.520  21.429  0.00  0.00    +0.000 Cl
ATOM      7  C   UNL     1       1.556   6.101  20.943  0.00  0.00    +0.000 A 
ENDROOT
BRANCH   1   9
ATOM      8  N   UNL     1       0.450   9.585  19.941  0.00  0.00    +0.000 N 
ATOM      9  C   UNL     1       0.878   8.504  20.716  0.00  0.00    +0.000 A 
ATOM     10  N   UNL     1       0.413   8.640  21.951  0.00  0.00    +0.000 NA
ATOM     11  C   UNL     1      -0.231   9.850  21.998  0.00  0.00    +0.000 A 
ATOM     12  C   UNL     1      -0.868  10.480  23.081  0.00  0.00    +0.000 A 
ATOM     13  C   UNL     1      -1.433  11.750  22.889  0.00  0.00    +0.000 A 
ATOM     14  C   UNL     1      -1.369  12.375  21.645  0.00  0.00    +0.000 A 
ATOM     15  C   UNL     1      -0.761  11.747  20.554  0.00  0.00    +0.000 A 
ATOM     16  C   UNL     1      -0.202  10.477  20.765  0.00  0.00    +0.000 A 
BRANCH   8  17
ATOM     17  C   UNL     1       0.656   9.836  18.524  0.00  0.00    +0.000 C 
BRANCH  17  19
ATOM     18  C   UNL     1       2.016  11.931  18.213  0.00  0.00    +0.000 C 
ATOM     19  C   UNL     1       2.038  10.411  18.190  0.00  0.00    +0.000 C 
ENDBRANCH  17  19
ENDBRANCH   8  17
ENDBRANCH   1   9
BRANCH   4  20
ATOM     20  N   UNL     1       4.173   4.143  19.158  0.00  0.00    +0.000 N 
ATOM     21  H   UNL     1       3.962   3.251  19.585  0.00  0.00    +0.000 HD
BRANCH  20  22
ATOM     22  C   UNL     1       5.002   4.106  18.017  0.00  0.00    +0.000 A 
ATOM     23  C   UNL     1       6.316   4.563  18.092  0.00  0.00    +0.000 A 
ATOM     24  C   UNL     1       7.066   4.751  16.926  0.00  0.00    +0.000 A 
ATOM     25  C   UNL     1       6.483   4.477  15.693  0.00  0.00    +0.000 A 
ATOM     26  C   UNL     1       7.147   4.846  14.406  0.00  0.00    +0.000 C 
ATOM     27  N   UNL     1       5.246   3.958  15.584  0.00  0.00    +0.000 NA
ATOM     28  C   UNL     1       4.546   3.794  16.732  0.00  0.00    +0.000 A 
ENDBRANCH  20  22
ENDBRANCH   4  20
TORSDOF 5
ENDMDL
MODEL 7
REMARK VINA RESULT:      -7.4      2.860      4.384
REMARK  Name = 
REMARK  7 active torsions:
REMARK  status: ('A' for Active; 'I' for Inactive)
REMARK    1  A    between atoms: C_1  and  C_2
REMARK    2  A    between atoms: C_2  and  C_3
REMARK    3  A    between atoms: C_3  and  N_4
REMARK    4  A    between atoms: C_5  and  C_6
REMARK    5  A    between atoms: C_9  and  N_10
REMARK    6  A    between atoms: N_10  and  C_11
REMARK    7  A    between atoms: C_14  and  C_15
REMARK                            x       y       z     vdW  Elec       q    Type
REMARK                         _______ _______ _______ _____ _____    ______ ____
ROOT
ATOM      1  C   UNL     1       2.093   7.781  19.259  0.00  0.00    +0.000 A 
ATOM      2  C   UNL     1       2.207   8.366  18.013  0.00  0.00    +0.000 A 
ATOM      3  N   UNL     1       1.811   9.611  17.692  0.00  0.00    +0.000 NA
ATOM      4  C   UNL     1       1.159  10.346  18.604  0.00  0.00    +0.000 A 
ATOM      5  C   UNL     1       0.947   9.841  19.892  0.00  0.00    +0.000 A 
ATOM      6 CL   UNL     1       0.053  10.727  21.073  0.00  0.00    +0.000 Cl
ATOM      7  C   UNL     1       1.427   8.560  20.217  0.00  0.00    +0.000 A 
ENDROOT
BRANCH   1   9
ATOM      8  N   UNL     1       3.711   5.762  19.093  0.00  0.00    +0.000 N 
ATOM      9  C   UNL     1       2.587   6.427  19.591  0.00  0.00    +0.000 A 
ATOM     10  N   UNL     1       1.976   5.650  20.475  0.00  0.00    +0.000 NA
ATOM     11  C   UNL     1       2.646   4.454  20.478  0.00  0.00    +0.000 A 
ATOM     12  C   UNL     1       2.383   3.285  21.214  0.00  0.00    +0.000 A 
ATOM     13  C   UNL     1       3.201   2.162  21.018  0.00  0.00    +0.000 A 
ATOM     14  C   UNL     1       4.261   2.206  20.113  0.00  0.00    +0.000 A 
ATOM     15  C   UNL     1       4.549   3.370  19.396  0.00  0.00    +0.000 A 
ATOM     16  C   UNL     1       3.720   4.484  19.606  0.00  0.00    +0.000 A 
BRANCH   8  17
ATOM     17  C   UNL     1       4.718   6.238  18.157  0.00  0.00    +0.000 C 
BRANCH  17  19
ATOM     18  C   UNL     1       5.852   5.652  15.988  0.00  0.00    +0.000 C 
ATOM     19  C   UNL     1       4.524   5.724  16.725  0.00  0.00    +0.000 C 
ENDBRANCH  17  19
ENDBRANCH   8  17
ENDBRANCH   1   9
BRANCH   4  20
ATOM     20  N   UNL     1       0.616  11.567  18.175  0.00  0.00    +0.000 N 
ATOM     21  H   UNL     1      -0.360  11.500  17.915  0.00  0.00    +0.000 HD
BRANCH  20  22
ATOM     22  C   UNL     1       1.096  12.862  18.458  0.00  0.00    +0.000 A 
ATOM     23  C   UNL     1       0.216  13.863  18.863  0.00  0.00    +0.000 A 
ATOM     24  C   UNL     1       0.637  15.195  18.916  0.00  0.00    +0.000 A 
ATOM     25  C   UNL     1       1.945  15.509  18.560  0.00  0.00    +0.000 A 
ATOM     26  C   UNL     1       2.401  16.923  18.397  0.00  0.00    +0.000 C 
ATOM     27  N   UNL     1       2.847  14.563  18.241  0.00  0.00    +0.000 NA
ATOM     28  C   UNL     1       2.404  13.283  18.194  0.00  0.00    +0.000 A 
ENDBRANCH  20  22
ENDBRANCH   4  20
TORSDOF 5
ENDMDL
MODEL 8
REMARK VINA RESULT:      -7.4      1.796      2.251
REMARK  Name = 
REMARK  7 active torsions:
REMARK  status: ('A' for Active; 'I' for Inactive)
REMARK    1  A    between atoms: C_1  and  C_2
REMARK    2  A    between atoms: C_2  and  C_3
REMARK    3  A    between atoms: C_3  and  N_4
REMARK    4  A    between atoms: C_5  and  C_6
REMARK    5  A    between atoms: C_9  and  N_10
REMARK    6  A    between atoms: N_10  and  C_11
REMARK    7  A    between atoms: C_14  and  C_15
REMARK                            x       y       z     vdW  Elec       q    Type
REMARK                         _______ _______ _______ _____ _____    ______ ____
ROOT
ATOM      1  C   UNL     1       1.812   8.413  19.768  0.00  0.00    +0.000 A 
ATOM      2  C   UNL     1       1.503   9.589  19.113  0.00  0.00    +0.000 A 
ATOM      3  N   UNL     1       0.960  10.683  19.678  0.00  0.00    +0.000 NA
ATOM      4  C   UNL     1       0.581  10.635  20.964  0.00  0.00    +0.000 A 
ATOM      5  C   UNL     1       0.805   9.479  21.719  0.00  0.00    +0.000 A 
ATOM      6 CL   UNL     1       0.272   9.354  23.357  0.00  0.00    +0.000 Cl
ATOM      7  C   UNL     1       1.432   8.373  21.118  0.00  0.00    +0.000 A 
ENDROOT
BRANCH   1   9
ATOM      8  N   UNL     1       2.482   5.918  19.554  0.00  0.00    +0.000 N 
ATOM      9  C   UNL     1       2.458   7.248  19.126  0.00  0.00    +0.000 A 
ATOM     10  N   UNL     1       3.118   7.351  17.980  0.00  0.00    +0.000 NA
ATOM     11  C   UNL     1       3.647   6.113  17.718  0.00  0.00    +0.000 A 
ATOM     12  C   UNL     1       4.456   5.697  16.646  0.00  0.00    +0.000 A 
ATOM     13  C   UNL     1       4.908   4.369  16.615  0.00  0.00    +0.000 A 
ATOM     14  C   UNL     1       4.558   3.475  17.626  0.00  0.00    +0.000 A 
ATOM     15  C   UNL     1       3.733   3.870  18.683  0.00  0.00    +0.000 A 
ATOM     16  C   UNL     1       3.290   5.203  18.697  0.00  0.00    +0.000 A 
BRANCH   8  17
ATOM     17  C   UNL     1       1.843   5.316  20.714  0.00  0.00    +0.000 C 
BRANCH  17  19
ATOM     18  C   UNL     1       1.239   2.912  21.153  0.00  0.00    +0.000 C 
ATOM     19  C   UNL     1       0.888   4.167  20.369  0.00  0.00    +0.000 C 
ENDBRANCH  17  19
ENDBRANCH   8  17
ENDBRANCH   1   9
BRANCH   4  20
ATOM     20  N   UNL     1      -0.134  11.735  21.462  0.00  0.00    +0.000 N 
ATOM     21  H   UNL     1       0.433  12.566  21.565  0.00  0.00    +0.000 HD
BRANCH  20  22
ATOM     22  C   UNL     1      -1.530  11.936  21.420  0.00  0.00    +0.000 A 
ATOM     23  C   UNL     1      -2.164  12.192  20.206  0.00  0.00    +0.000 A 
ATOM     24  C   UNL     1      -3.494  12.624  20.182  0.00  0.00    +0.000 A 
ATOM     25  C   UNL     1      -4.174  12.796  21.384  0.00  0.00    +0.000 A 
ATOM     26  C   UNL     1      -5.519  13.446  21.444  0.00  0.00    +0.000 C 
ATOM     27  N   UNL     1      -3.623  12.483  22.570  0.00  0.00    +0.000 NA
ATOM     28  C   UNL     1      -2.332  12.073  22.559  0.00  0.00    +0.000 A 
ENDBRANCH  20  22
ENDBRANCH   4  20
TORSDOF 5
ENDMDL
MODEL 9
REMARK VINA RESULT:      -7.4      1.966      8.777
REMARK  Name = 
REMARK  7 active torsions:
REMARK  status: ('A' for Active; 'I' for Inactive)
REMARK    1  A    between atoms: C_1  and  C_2
REMARK    2  A    between atoms: C_2  and  C_3
REMARK    3  A    between atoms: C_3  and  N_4
REMARK    4  A    between atoms: C_5  and  C_6
REMARK    5  A    between atoms: C_9  and  N_10
REMARK    6  A    between atoms: N_10  and  C_11
REMARK    7  A    between atoms: C_14  and  C_15
REMARK                            x       y       z     vdW  Elec       q    Type
REMARK                         _______ _______ _______ _____ _____    ______ ____
ROOT
ATOM      1  C   UNL     1       1.311   8.253  20.044  0.00  0.00    +0.000 A 
ATOM      2  C   UNL     1       2.135   8.370  18.942  0.00  0.00    +0.000 A 
ATOM      3  N   UNL     1       2.907   7.393  18.432  0.00  0.00    +0.000 NA
ATOM      4  C   UNL     1       2.986   6.219  19.075  0.00  0.00    +0.000 A 
ATOM      5  C   UNL     1       2.227   5.998  20.229  0.00  0.00    +0.000 A 
ATOM      6 CL   UNL     1       2.351   4.525  21.122  0.00  0.00    +0.000 Cl
ATOM      7  C   UNL     1       1.381   7.016  20.703  0.00  0.00    +0.000 A 
ENDROOT
BRANCH   1   9
ATOM      8  N   UNL     1      -0.226  10.329  19.822  0.00  0.00    +0.000 N 
ATOM      9  C   UNL     1       0.435   9.333  20.546  0.00  0.00    +0.000 A 
ATOM     10  N   UNL     1       0.149   9.468  21.835  0.00  0.00    +0.000 NA
ATOM     11  C   UNL     1      -0.612  10.601  21.952  0.00  0.00    +0.000 A 
ATOM     12  C   UNL     1      -1.146  11.203  23.106  0.00  0.00    +0.000 A 
ATOM     13  C   UNL     1      -1.874  12.395  22.974  0.00  0.00    +0.000 A 
ATOM     14  C   UNL     1      -2.070  12.972  21.719  0.00  0.00    +0.000 A 
ATOM     15  C   UNL     1      -1.567  12.370  20.563  0.00  0.00    +0.000 A 
ATOM     16  C   UNL     1      -0.842  11.177  20.715  0.00  0.00    +0.000 A 
BRANCH   8  17
ATOM     17  C   UNL     1      -0.266  10.541  18.383  0.00  0.00    +0.000 C 
BRANCH  17  19
ATOM     18  C   UNL     1      -2.318  11.196  17.079  0.00  0.00    +0.000 C 
ATOM     19  C   UNL     1      -1.557  10.045  17.719  0.00  0.00    +0.000 C 
ENDBRANCH  17  19
ENDBRANCH   8  17
ENDBRANCH   1   9
BRANCH   4  20
ATOM     20  N   UNL     1       3.931   5.294  18.605  0.00  0.00    +0.000 N 
ATOM     21  H   UNL     1       3.912   4.415  19.106  0.00  0.00    +0.000 HD
BRANCH  20  22
ATOM     22  C   UNL     1       4.548   5.273  17.337  0.00  0.00    +0.000 A 
ATOM     23  C   UNL     1       4.510   4.118  16.558  0.00  0.00    +0.000 A 
ATOM     24  C   UNL     1       5.312   4.008  15.417  0.00  0.00    +0.000 A 
ATOM     25  C   UNL     1       6.148   5.066  15.071  0.00  0.00    +0.000 A 
ATOM     26  C   UNL     1       7.175   4.939  13.992  0.00  0.00    +0.000 C 
ATOM     27  N   UNL     1       6.154   6.227  15.750  0.00  0.00    +0.000 NA
ATOM     28  C   UNL     1       5.370   6.297  16.853  0.00  0.00    +0.000 A 
ENDBRANCH  20  22
ENDBRANCH   4  20
TORSDOF 5
ENDMDL
