MODEL 1
REMARK VINA RESULT:      -7.4      0.000      0.000
REMARK  Name = 
REMARK  5 active torsions:
REMARK  status: ('A' for Active; 'I' for Inactive)
REMARK    1  A    between atoms: C_1  and  N_2
REMARK    2  A    between atoms: C_6  and  C_7
REMARK    3  A    between atoms: C_6  and  C_8
REMARK    4  A    between atoms: C_10  and  C_11
REMARK    5  A    between atoms: C_14  and  C_15
REMARK                            x       y       z     vdW  Elec       q    Type
REMARK                         _______ _______ _______ _____ _____    ______ ____
ROOT
ATOM      1  C   UNL     1       3.603   6.239  18.552  0.00  0.00    +0.000 A 
ATOM      2  S   UNL     1       2.460   6.954  19.660  0.00  0.00    +0.000 S 
ATOM      3  C   UNL     1       2.115   8.261  18.627  0.00  0.00    +0.000 A 
ATOM      4  C   UNL     1       2.893   8.207  17.491  0.00  0.00    +0.000 A 
ATOM      5  C   UNL     1       3.770   7.085  17.465  0.00  0.00    +0.000 A 
ATOM      6 CL   UNL     1       4.863   6.917  16.157  0.00  0.00    +0.000 Cl
ENDROOT
BRANCH   1  12
ATOM      7  C   UNL     1       1.086   1.902  19.595  0.00  0.00    +0.000 C 
ATOM      8  N   UNL     1       2.090   2.964  19.390  0.00  0.00    +0.000 N 
ATOM      9  C   UNL     1       2.536   3.843  20.375  0.00  0.00    +0.000 C 
ATOM     10  N   UNL     1       1.859   4.124  21.429  0.00  0.00    +0.000 NA
ATOM     11  N   UNL     1       3.770   4.366  20.215  0.00  0.00    +0.000 N 
ATOM     12  C   UNL     1       4.261   4.899  18.944  0.00  0.00    +0.000 C 
ATOM     13  C   UNL     1       5.774   5.176  19.169  0.00  0.00    +0.000 C 
ATOM     14  C   UNL     1       4.187   3.776  17.919  0.00  0.00    +0.000 C 
ATOM     15  S   UNL     1       2.550   3.137  17.780  0.00  0.00    +0.000 S 
ATOM     16  O   UNL     1       2.666   1.811  17.200  0.00  0.00    +0.000 OA
ATOM     17  O   UNL     1       1.681   4.122  17.171  0.00  0.00    +0.000 OA
ATOM     18  H   UNL     1       0.935   3.698  21.368  0.00  0.00    +0.000 HD
ATOM     19  H   UNL     1       3.940   5.005  20.990  0.00  0.00    +0.000 HD
ENDBRANCH   1  12
BRANCH   3  20
ATOM     20  C   UNL     1       1.140   9.264  18.944  0.00  0.00    +0.000 A 
ATOM     21  N   UNL     1       0.910   9.693  20.172  0.00  0.00    +0.000 NA
ATOM     22  N   UNL     1      -0.061  10.665  20.088  0.00  0.00    +0.000 NA
ATOM     23  C   UNL     1      -0.377  10.766  18.816  0.00  0.00    +0.000 A 
ATOM     24  O   UNL     1       0.335   9.900  18.027  0.00  0.00    +0.000 OA
BRANCH  23  25
ATOM     25  C   UNL     1      -1.410  11.751  18.299  0.00  0.00    +0.000 C 
ATOM     26  C   UNL     1      -2.726  11.197  17.789  0.00  0.00    +0.000 C 
ATOM     27  C   UNL     1      -2.692  11.950  19.075  0.00  0.00    +0.000 C 
ENDBRANCH  23  25
ENDBRANCH   3  20
TORSDOF 3
ENDMDL
MODEL 2
REMARK VINA RESULT:      -7.3      4.332      7.500
REMARK  Name = 
REMARK  5 active torsions:
REMARK  status: ('A' for Active; 'I' for Inactive)
REMARK    1  A    between atoms: C_1  and  N_2
REMARK    2  A    between atoms: C_6  and  C_7
REMARK    3  A    between atoms: C_6  and  C_8
REMARK    4  A    between atoms: C_10  and  C_11
REMARK    5  A    between atoms: C_14  and  C_15
REMARK                            x       y       z     vdW  Elec       q    Type
REMARK                         _______ _______ _______ _____ _____    ______ ____
ROOT
ATOM      1  C   UNL     1       4.815   5.341  18.002  0.00  0.00    +0.000 A 
ATOM      2  S   UNL     1       4.492   5.195  16.294  0.00  0.00    +0.000 S 
ATOM      3  C   UNL     1       6.128   4.952  15.897  0.00  0.00    +0.000 A 
ATOM      4  C   UNL     1       6.924   5.045  17.018  0.00  0.00    +0.000 A 
ATOM      5  C   UNL     1       6.187   5.309  18.208  0.00  0.00    +0.000 A 
ATOM      6 CL   UNL     1       7.038   5.533  19.678  0.00  0.00    +0.000 Cl
ENDROOT
BRANCH   1  12
ATOM      7  C   UNL     1       1.505   1.681  19.374  0.00  0.00    +0.000 C 
ATOM      8  N   UNL     1       2.245   2.940  19.163  0.00  0.00    +0.000 N 
ATOM      9  C   UNL     1       1.992   3.854  18.141  0.00  0.00    +0.000 C 
ATOM     10  N   UNL     1       1.405   3.541  17.043  0.00  0.00    +0.000 NA
ATOM     11  N   UNL     1       2.340   5.138  18.369  0.00  0.00    +0.000 N 
ATOM     12  C   UNL     1       3.619   5.534  18.959  0.00  0.00    +0.000 C 
ATOM     13  C   UNL     1       3.493   7.058  19.238  0.00  0.00    +0.000 C 
ATOM     14  C   UNL     1       3.720   4.864  20.322  0.00  0.00    +0.000 C 
ATOM     15  S   UNL     1       3.564   3.113  20.193  0.00  0.00    +0.000 S 
ATOM     16  O   UNL     1       3.177   2.629  21.505  0.00  0.00    +0.000 OA
ATOM     17  O   UNL     1       4.724   2.558  19.528  0.00  0.00    +0.000 OA
ATOM     18  H   UNL     1       1.263   2.532  17.006  0.00  0.00    +0.000 HD
ATOM     19  H   UNL     1       2.123   5.673  17.529  0.00  0.00    +0.000 HD
ENDBRANCH   1  12
BRANCH   3  20
ATOM     20  C   UNL     1       6.572   4.695  14.558  0.00  0.00    +0.000 A 
ATOM     21  N   UNL     1       7.592   5.319  13.997  0.00  0.00    +0.000 NA
ATOM     22  N   UNL     1       7.743   4.799  12.731  0.00  0.00    +0.000 NA
ATOM     23  C   UNL     1       6.797   3.896  12.586  0.00  0.00    +0.000 A 
ATOM     24  O   UNL     1       6.005   3.781  13.700  0.00  0.00    +0.000 OA
BRANCH  23  25
ATOM     25  C   UNL     1       6.629   3.074  11.321  0.00  0.00    +0.000 C 
ATOM     26  C   UNL     1       7.318   1.726  11.255  0.00  0.00    +0.000 C 
ATOM     27  C   UNL     1       5.834   1.790  11.377  0.00  0.00    +0.000 C 
ENDBRANCH  23  25
ENDBRANCH   3  20
TORSDOF 3
ENDMDL
MODEL 3
REMARK VINA RESULT:      -7.2      1.418      1.647
REMARK  Name = 
REMARK  5 active torsions:
REMARK  status: ('A' for Active; 'I' for Inactive)
REMARK    1  A    between atoms: C_1  and  N_2
REMARK    2  A    between atoms: C_6  and  C_7
REMARK    3  A    between atoms: C_6  and  C_8
REMARK    4  A    between atoms: C_10  and  C_11
REMARK    5  A    between atoms: C_14  and  C_15
REMARK                            x       y       z     vdW  Elec       q    Type
REMARK                         _______ _______ _______ _____ _____    ______ ____
ROOT
ATOM      1  C   UNL     1       3.617   6.168  18.498  0.00  0.00    +0.000 A 
ATOM      2  S   UNL     1       2.558   6.858  19.700  0.00  0.00    +0.000 S 
ATOM      3  C   UNL     1       2.218   8.236  18.763  0.00  0.00    +0.000 A 
ATOM      4  C   UNL     1       2.938   8.221  17.588  0.00  0.00    +0.000 A 
ATOM      5  C   UNL     1       3.766   7.070  17.454  0.00  0.00    +0.000 A 
ATOM      6 CL   UNL     1       4.788   6.939  16.086  0.00  0.00    +0.000 Cl
ENDROOT
BRANCH   1  12
ATOM      7  C   UNL     1       0.987   1.926  19.650  0.00  0.00    +0.000 C 
ATOM      8  N   UNL     1       2.021   2.944  19.378  0.00  0.00    +0.000 N 
ATOM      9  C   UNL     1       2.608   3.762  20.341  0.00  0.00    +0.000 C 
ATOM     10  N   UNL     1       2.055   4.038  21.467  0.00  0.00    +0.000 NA
ATOM     11  N   UNL     1       3.847   4.229  20.075  0.00  0.00    +0.000 N 
ATOM     12  C   UNL     1       4.238   4.783  18.779  0.00  0.00    +0.000 C 
ATOM     13  C   UNL     1       5.778   4.975  18.859  0.00  0.00    +0.000 C 
ATOM     14  C   UNL     1       4.003   3.704  17.731  0.00  0.00    +0.000 C 
ATOM     15  S   UNL     1       2.329   3.152  17.737  0.00  0.00    +0.000 S 
ATOM     16  O   UNL     1       2.315   1.845  17.107  0.00  0.00    +0.000 OA
ATOM     17  O   UNL     1       1.458   4.201  17.250  0.00  0.00    +0.000 OA
ATOM     18  H   UNL     1       1.108   3.661  21.485  0.00  0.00    +0.000 HD
ATOM     19  H   UNL     1       4.126   4.829  20.849  0.00  0.00    +0.000 HD
ENDBRANCH   1  12
BRANCH   3  20
ATOM     20  C   UNL     1       1.300   9.255  19.184  0.00  0.00    +0.000 A 
ATOM     21  N   UNL     1       0.971  10.292  18.436  0.00  0.00    +0.000 NA
ATOM     22  N   UNL     1       0.056  11.035  19.148  0.00  0.00    +0.000 NA
ATOM     23  C   UNL     1      -0.111  10.415  20.296  0.00  0.00    +0.000 A 
ATOM     24  O   UNL     1       0.654   9.282  20.399  0.00  0.00    +0.000 OA
BRANCH  23  25
ATOM     25  C   UNL     1      -1.063  10.911  21.369  0.00  0.00    +0.000 C 
ATOM     26  C   UNL     1      -0.662  10.719  22.818  0.00  0.00    +0.000 C 
ATOM     27  C   UNL     1      -0.658  12.088  22.228  0.00  0.00    +0.000 C 
ENDBRANCH  23  25
ENDBRANCH   3  20
TORSDOF 3
ENDMDL
MODEL 4
REMARK VINA RESULT:      -7.1      3.108      4.046
REMARK  Name = 
REMARK  5 active torsions:
REMARK  status: ('A' for Active; 'I' for Inactive)
REMARK    1  A    between atoms: C_1  and  N_2
REMARK    2  A    between atoms: C_6  and  C_7
REMARK    3  A    between atoms: C_6  and  C_8
REMARK    4  A    between atoms: C_10  and  C_11
REMARK    5  A    between atoms: C_14  and  C_15
REMARK                            x       y       z     vdW  Elec       q    Type
REMARK                         _______ _______ _______ _____ _____    ______ ____
ROOT
ATOM      1  C   UNL     1       3.079   5.152  18.893  0.00  0.00    +0.000 A 
ATOM      2  S   UNL     1       2.709   6.835  18.619  0.00  0.00    +0.000 S 
ATOM      3  C   UNL     1       1.961   7.026  20.135  0.00  0.00    +0.000 A 
ATOM      4  C   UNL     1       1.924   5.831  20.819  0.00  0.00    +0.000 A 
ATOM      5  C   UNL     1       2.518   4.755  20.099  0.00  0.00    +0.000 A 
ATOM      6 CL   UNL     1       2.481   3.182  20.778  0.00  0.00    +0.000 Cl
ENDROOT
BRANCH   1  12
ATOM      7  C   UNL     1       7.537   6.650  16.865  0.00  0.00    +0.000 C 
ATOM      8  N   UNL     1       6.276   5.966  17.210  0.00  0.00    +0.000 N 
ATOM      9  C   UNL     1       5.043   6.210  16.608  0.00  0.00    +0.000 C 
ATOM     10  N   UNL     1       4.756   7.308  16.007  0.00  0.00    +0.000 NA
ATOM     11  N   UNL     1       4.145   5.203  16.621  0.00  0.00    +0.000 N 
ATOM     12  C   UNL     1       3.864   4.389  17.805  0.00  0.00    +0.000 C 
ATOM     13  C   UNL     1       2.955   3.232  17.305  0.00  0.00    +0.000 C 
ATOM     14  C   UNL     1       5.172   3.740  18.235  0.00  0.00    +0.000 C 
ATOM     15  S   UNL     1       6.420   4.947  18.542  0.00  0.00    +0.000 S 
ATOM     16  O   UNL     1       7.697   4.263  18.449  0.00  0.00    +0.000 OA
ATOM     17  O   UNL     1       6.092   5.712  19.726  0.00  0.00    +0.000 OA
ATOM     18  H   UNL     1       5.512   7.979  16.138  0.00  0.00    +0.000 HD
ATOM     19  H   UNL     1       3.293   5.539  16.176  0.00  0.00    +0.000 HD
ENDBRANCH   1  12
BRANCH   3  20
ATOM     20  C   UNL     1       1.446   8.284  20.594  0.00  0.00    +0.000 A 
ATOM     21  N   UNL     1       1.414   8.636  21.866  0.00  0.00    +0.000 NA
ATOM     22  N   UNL     1       0.886   9.907  21.924  0.00  0.00    +0.000 NA
ATOM     23  C   UNL     1       0.615  10.253  20.685  0.00  0.00    +0.000 A 
ATOM     24  O   UNL     1       0.931   9.270  19.783  0.00  0.00    +0.000 OA
BRANCH  23  25
ATOM     25  C   UNL     1       0.028  11.603  20.315  0.00  0.00    +0.000 C 
ATOM     26  C   UNL     1      -1.421  11.651  19.874  0.00  0.00    +0.000 C 
ATOM     27  C   UNL     1      -1.036  12.211  21.200  0.00  0.00    +0.000 C 
ENDBRANCH  23  25
ENDBRANCH   3  20
TORSDOF 3
ENDMDL
MODEL 5
REMARK VINA RESULT:      -7.1      7.710     10.861
REMARK  Name = 
REMARK  5 active torsions:
REMARK  status: ('A' for Active; 'I' for Inactive)
REMARK    1  A    between atoms: C_1  and  N_2
REMARK    2  A    between atoms: C_6  and  C_7
REMARK    3  A    between atoms: C_6  and  C_8
REMARK    4  A    between atoms: C_10  and  C_11
REMARK    5  A    between atoms: C_14  and  C_15
REMARK                            x       y       z     vdW  Elec       q    Type
REMARK                         _______ _______ _______ _____ _____    ______ ____
ROOT
ATOM      1  C   UNL     1       9.492  12.852  18.570  0.00  0.00    +0.000 A 
ATOM      2  S   UNL     1       8.383  11.852  17.668  0.00  0.00    +0.000 S 
ATOM      3  C   UNL     1       8.913  10.414  18.407  0.00  0.00    +0.000 A 
ATOM      4  C   UNL     1       9.956  10.662  19.272  0.00  0.00    +0.000 A 
ATOM      5  C   UNL     1      10.317  12.039  19.335  0.00  0.00    +0.000 A 
ATOM      6 CL   UNL     1      11.650  12.503  20.305  0.00  0.00    +0.000 Cl
ENDROOT
BRANCH   1  12
ATOM      7  C   UNL     1       5.782  15.955  20.255  0.00  0.00    +0.000 C 
ATOM      8  N   UNL     1       6.969  15.352  19.618  0.00  0.00    +0.000 N 
ATOM      9  C   UNL     1       7.008  14.844  18.321  0.00  0.00    +0.000 C 
ATOM     10  N   UNL     1       5.964  14.451  17.685  0.00  0.00    +0.000 NA
ATOM     11  N   UNL     1       8.209  14.829  17.705  0.00  0.00    +0.000 N 
ATOM     12  C   UNL     1       9.441  14.380  18.354  0.00  0.00    +0.000 C 
ATOM     13  C   UNL     1      10.585  14.744  17.367  0.00  0.00    +0.000 C 
ATOM     14  C   UNL     1       9.654  15.251  19.584  0.00  0.00    +0.000 C 
ATOM     15  S   UNL     1       8.269  15.179  20.672  0.00  0.00    +0.000 S 
ATOM     16  O   UNL     1       8.331  16.363  21.509  0.00  0.00    +0.000 OA
ATOM     17  O   UNL     1       8.180  13.867  21.278  0.00  0.00    +0.000 OA
ATOM     18  H   UNL     1       5.155  14.472  18.306  0.00  0.00    +0.000 HD
ATOM     19  H   UNL     1       8.082  14.406  16.787  0.00  0.00    +0.000 HD
ENDBRANCH   1  12
BRANCH   3  20
ATOM     20  C   UNL     1       8.324   9.136  18.129  0.00  0.00    +0.000 A 
ATOM     21  N   UNL     1       7.493   8.921  17.125  0.00  0.00    +0.000 NA
ATOM     22  N   UNL     1       7.159   7.586  17.152  0.00  0.00    +0.000 NA
ATOM     23  C   UNL     1       7.794   7.065  18.179  0.00  0.00    +0.000 A 
ATOM     24  O   UNL     1       8.546   7.989  18.857  0.00  0.00    +0.000 OA
BRANCH  23  25
ATOM     25  C   UNL     1       7.700   5.595  18.546  0.00  0.00    +0.000 C 
ATOM     26  C   UNL     1       6.423   5.106  19.199  0.00  0.00    +0.000 C 
ATOM     27  C   UNL     1       6.733   4.708  17.797  0.00  0.00    +0.000 C 
ENDBRANCH  23  25
ENDBRANCH   3  20
TORSDOF 3
ENDMDL
MODEL 6
REMARK VINA RESULT:      -7.1      4.399      7.548
REMARK  Name = 
REMARK  5 active torsions:
REMARK  status: ('A' for Active; 'I' for Inactive)
REMARK    1  A    between atoms: C_1  and  N_2
REMARK    2  A    between atoms: C_6  and  C_7
REMARK    3  A    between atoms: C_6  and  C_8
REMARK    4  A    between atoms: C_10  and  C_11
REMARK    5  A    between atoms: C_14  and  C_15
REMARK                            x       y       z     vdW  Elec       q    Type
REMARK                         _______ _______ _______ _____ _____    ______ ____
ROOT
ATOM      1  C   UNL     1       5.281   5.268  17.571  0.00  0.00    +0.000 A 
ATOM      2  S   UNL     1       5.995   4.054  16.541  0.00  0.00    +0.000 S 
ATOM      3  C   UNL     1       5.845   5.004  15.139  0.00  0.00    +0.000 A 
ATOM      4  C   UNL     1       5.207   6.193  15.417  0.00  0.00    +0.000 A 
ATOM      5  C   UNL     1       4.846   6.327  16.788  0.00  0.00    +0.000 A 
ATOM      6 CL   UNL     1       3.971   7.715  17.283  0.00  0.00    +0.000 Cl
ENDROOT
BRANCH   1  12
ATOM      7  C   UNL     1       0.982   4.091  20.096  0.00  0.00    +0.000 C 
ATOM      8  N   UNL     1       2.360   4.427  19.688  0.00  0.00    +0.000 N 
ATOM      9  C   UNL     1       2.887   5.717  19.637  0.00  0.00    +0.000 C 
ATOM     10  N   UNL     1       2.162   6.771  19.522  0.00  0.00    +0.000 NA
ATOM     11  N   UNL     1       4.224   5.838  19.776  0.00  0.00    +0.000 N 
ATOM     12  C   UNL     1       5.187   4.979  19.085  0.00  0.00    +0.000 C 
ATOM     13  C   UNL     1       6.569   5.324  19.707  0.00  0.00    +0.000 C 
ATOM     14  C   UNL     1       4.890   3.542  19.489  0.00  0.00    +0.000 C 
ATOM     15  S   UNL     1       3.224   3.100  19.120  0.00  0.00    +0.000 S 
ATOM     16  O   UNL     1       2.898   1.959  19.956  0.00  0.00    +0.000 OA
ATOM     17  O   UNL     1       3.035   3.025  17.687  0.00  0.00    +0.000 OA
ATOM     18  H   UNL     1       1.190   6.504  19.371  0.00  0.00    +0.000 HD
ATOM     19  H   UNL     1       4.457   6.826  19.687  0.00  0.00    +0.000 HD
ENDBRANCH   1  12
BRANCH   3  20
ATOM     20  C   UNL     1       6.330   4.579  13.857  0.00  0.00    +0.000 A 
ATOM     21  N   UNL     1       7.276   5.215  13.190  0.00  0.00    +0.000 NA
ATOM     22  N   UNL     1       7.498   4.510  12.028  0.00  0.00    +0.000 NA
ATOM     23  C   UNL     1       6.666   3.492  12.046  0.00  0.00    +0.000 A 
ATOM     24  O   UNL     1       5.882   3.474  13.171  0.00  0.00    +0.000 OA
BRANCH  23  25
ATOM     25  C   UNL     1       6.608   2.455  10.939  0.00  0.00    +0.000 C 
ATOM     26  C   UNL     1       7.332   1.142  11.158  0.00  0.00    +0.000 C 
ATOM     27  C   UNL     1       5.842   1.172  11.170  0.00  0.00    +0.000 C 
ENDBRANCH  23  25
ENDBRANCH   3  20
TORSDOF 3
ENDMDL
MODEL 7
REMARK VINA RESULT:      -6.9      7.373     10.417
REMARK  Name = 
REMARK  5 active torsions:
REMARK  status: ('A' for Active; 'I' for Inactive)
REMARK    1  A    between atoms: C_1  and  N_2
REMARK    2  A    between atoms: C_6  and  C_7
REMARK    3  A    between atoms: C_6  and  C_8
REMARK    4  A    between atoms: C_10  and  C_11
REMARK    5  A    between atoms: C_14  and  C_15
REMARK                            x       y       z     vdW  Elec       q    Type
REMARK                         _______ _______ _______ _____ _____    ______ ____
ROOT
ATOM      1  C   UNL     1       9.340  12.282  18.523  0.00  0.00    +0.000 A 
ATOM      2  S   UNL     1       8.313  11.313  17.498  0.00  0.00    +0.000 S 
ATOM      3  C   UNL     1       8.619   9.882  18.364  0.00  0.00    +0.000 A 
ATOM      4  C   UNL     1       9.532  10.103  19.372  0.00  0.00    +0.000 A 
ATOM      5  C   UNL     1       9.977  11.455  19.437  0.00  0.00    +0.000 A 
ATOM      6 CL   UNL     1      11.176  11.878  20.585  0.00  0.00    +0.000 Cl
ENDROOT
BRANCH   1  12
ATOM      7  C   UNL     1       5.922  15.782  20.039  0.00  0.00    +0.000 C 
ATOM      8  N   UNL     1       7.052  15.046  19.440  0.00  0.00    +0.000 N 
ATOM      9  C   UNL     1       7.053  14.482  18.166  0.00  0.00    +0.000 C 
ATOM     10  N   UNL     1       5.981  14.161  17.535  0.00  0.00    +0.000 NA
ATOM     11  N   UNL     1       8.251  14.330  17.564  0.00  0.00    +0.000 N 
ATOM     12  C   UNL     1       9.432  13.797  18.244  0.00  0.00    +0.000 C 
ATOM     13  C   UNL     1      10.612  14.013  17.255  0.00  0.00    +0.000 C 
ATOM     14  C   UNL     1       9.717  14.696  19.439  0.00  0.00    +0.000 C 
ATOM     15  S   UNL     1       8.323  14.798  20.515  0.00  0.00    +0.000 S 
ATOM     16  O   UNL     1       8.489  16.005  21.303  0.00  0.00    +0.000 OA
ATOM     17  O   UNL     1       8.108  13.526  21.172  0.00  0.00    +0.000 OA
ATOM     18  H   UNL     1       5.174  14.283  18.145  0.00  0.00    +0.000 HD
ATOM     19  H   UNL     1       8.093  13.883  16.663  0.00  0.00    +0.000 HD
ENDBRANCH   1  12
BRANCH   3  20
ATOM     20  C   UNL     1       7.990   8.632  18.046  0.00  0.00    +0.000 A 
ATOM     21  N   UNL     1       8.347   7.480  18.585  0.00  0.00    +0.000 NA
ATOM     22  N   UNL     1       7.513   6.514  18.069  0.00  0.00    +0.000 NA
ATOM     23  C   UNL     1       6.703   7.129  17.235  0.00  0.00    +0.000 A 
ATOM     24  O   UNL     1       6.951   8.475  17.157  0.00  0.00    +0.000 OA
BRANCH  23  25
ATOM     25  C   UNL     1       5.611   6.408  16.465  0.00  0.00    +0.000 C 
ATOM     26  C   UNL     1       6.030   5.452  15.366  0.00  0.00    +0.000 C 
ATOM     27  C   UNL     1       5.454   4.914  16.632  0.00  0.00    +0.000 C 
ENDBRANCH  23  25
ENDBRANCH   3  20
TORSDOF 3
ENDMDL
MODEL 8
REMARK VINA RESULT:      -6.9      3.327      4.226
REMARK  Name = 
REMARK  5 active torsions:
REMARK  status: ('A' for Active; 'I' for Inactive)
REMARK    1  A    between atoms: C_1  and  N_2
REMARK    2  A    between atoms: C_6  and  C_7
REMARK    3  A    between atoms: C_6  and  C_8
REMARK    4  A    between atoms: C_10  and  C_11
REMARK    5  A    between atoms: C_14  and  C_15
REMARK                            x       y       z     vdW  Elec       q    Type
REMARK                         _______ _______ _______ _____ _____    ______ ____
ROOT
ATOM      1  C   UNL     1       3.084   5.273  18.794  0.00  0.00    +0.000 A 
ATOM      2  S   UNL     1       2.698   6.908  18.325  0.00  0.00    +0.000 S 
ATOM      3  C   UNL     1       1.938   7.266  19.803  0.00  0.00    +0.000 A 
ATOM      4  C   UNL     1       1.908   6.157  20.621  0.00  0.00    +0.000 A 
ATOM      5  C   UNL     1       2.519   5.012  20.035  0.00  0.00    +0.000 A 
ATOM      6 CL   UNL     1       2.493   3.529  20.891  0.00  0.00    +0.000 Cl
ENDROOT
BRANCH   1  12
ATOM      7  C   UNL     1       7.589   6.533  16.708  0.00  0.00    +0.000 C 
ATOM      8  N   UNL     1       6.317   5.893  17.098  0.00  0.00    +0.000 N 
ATOM      9  C   UNL     1       5.097   6.079  16.450  0.00  0.00    +0.000 C 
ATOM     10  N   UNL     1       4.828   7.110  15.733  0.00  0.00    +0.000 NA
ATOM     11  N   UNL     1       4.193   5.082  16.550  0.00  0.00    +0.000 N 
ATOM     12  C   UNL     1       3.885   4.397  17.807  0.00  0.00    +0.000 C 
ATOM     13  C   UNL     1       2.977   3.199  17.412  0.00  0.00    +0.000 C 
ATOM     14  C   UNL     1       5.180   3.791  18.327  0.00  0.00    +0.000 C 
ATOM     15  S   UNL     1       6.430   5.018  18.531  0.00  0.00    +0.000 S 
ATOM     16  O   UNL     1       7.704   4.322  18.534  0.00  0.00    +0.000 OA
ATOM     17  O   UNL     1       6.084   5.903  19.622  0.00  0.00    +0.000 OA
ATOM     18  H   UNL     1       5.586   7.787  15.808  0.00  0.00    +0.000 HD
ATOM     19  H   UNL     1       3.352   5.374  16.056  0.00  0.00    +0.000 HD
ENDBRANCH   1  12
BRANCH   3  20
ATOM     20  C   UNL     1       1.407   8.563  20.110  0.00  0.00    +0.000 A 
ATOM     21  N   UNL     1       1.259   9.519  19.210  0.00  0.00    +0.000 NA
ATOM     22  N   UNL     1       0.702  10.601  19.854  0.00  0.00    +0.000 NA
ATOM     23  C   UNL     1       0.553  10.249  21.112  0.00  0.00    +0.000 A 
ATOM     24  O   UNL     1       0.990   8.972  21.356  0.00  0.00    +0.000 OA
BRANCH  23  25
ATOM     25  C   UNL     1      -0.051  11.166  22.160  0.00  0.00    +0.000 C 
ATOM     26  C   UNL     1      -1.525  11.498  22.047  0.00  0.00    +0.000 C 
ATOM     27  C   UNL     1      -1.053  10.605  23.142  0.00  0.00    +0.000 C 
ENDBRANCH  23  25
ENDBRANCH   3  20
TORSDOF 3
ENDMDL
MODEL 9
REMARK VINA RESULT:      -6.7      1.258      1.433
REMARK  Name = 
REMARK  5 active torsions:
REMARK  status: ('A' for Active; 'I' for Inactive)
REMARK    1  A    between atoms: C_1  and  N_2
REMARK    2  A    between atoms: C_6  and  C_7
REMARK    3  A    between atoms: C_6  and  C_8
REMARK    4  A    between atoms: C_10  and  C_11
REMARK    5  A    between atoms: C_14  and  C_15
REMARK                            x       y       z     vdW  Elec       q    Type
REMARK                         _______ _______ _______ _____ _____    ______ ____
ROOT
ATOM      1  C   UNL     1       3.670   6.265  18.406  0.00  0.00    +0.000 A 
ATOM      2  S   UNL     1       2.526   7.155  19.378  0.00  0.00    +0.000 S 
ATOM      3  C   UNL     1       2.311   8.368  18.205  0.00  0.00    +0.000 A 
ATOM      4  C   UNL     1       3.134   8.154  17.121  0.00  0.00    +0.000 A 
ATOM      5  C   UNL     1       3.938   6.985  17.250  0.00  0.00    +0.000 A 
ATOM      6 CL   UNL     1       5.076   6.621  16.022  0.00  0.00    +0.000 Cl
ENDROOT
BRANCH   1  12
ATOM      7  C   UNL     1       0.861   2.135  19.539  0.00  0.00    +0.000 C 
ATOM      8  N   UNL     1       1.929   3.135  19.348  0.00  0.00    +0.000 N 
ATOM      9  C   UNL     1       2.326   4.072  20.300  0.00  0.00    +0.000 C 
ATOM     10  N   UNL     1       1.570   4.467  21.260  0.00  0.00    +0.000 NA
ATOM     11  N   UNL     1       3.593   4.529  20.217  0.00  0.00    +0.000 N 
ATOM     12  C   UNL     1       4.224   4.936  18.961  0.00  0.00    +0.000 C 
ATOM     13  C   UNL     1       5.721   5.168  19.305  0.00  0.00    +0.000 C 
ATOM     14  C   UNL     1       4.189   3.737  18.023  0.00  0.00    +0.000 C 
ATOM     15  S   UNL     1       2.542   3.156  17.781  0.00  0.00    +0.000 S 
ATOM     16  O   UNL     1       2.645   1.784  17.319  0.00  0.00    +0.000 OA
ATOM     17  O   UNL     1       1.781   4.123  17.018  0.00  0.00    +0.000 OA
ATOM     18  H   UNL     1       0.637   4.075  21.145  0.00  0.00    +0.000 HD
ATOM     19  H   UNL     1       3.723   5.222  20.953  0.00  0.00    +0.000 HD
ENDBRANCH   1  12
BRANCH   3  20
ATOM     20  C   UNL     1       1.388   9.453  18.371  0.00  0.00    +0.000 A 
ATOM     21  N   UNL     1       0.135   9.412  17.956  0.00  0.00    +0.000 NA
ATOM     22  N   UNL     1      -0.450  10.608  18.308  0.00  0.00    +0.000 NA
ATOM     23  C   UNL     1       0.483  11.316  18.906  0.00  0.00    +0.000 A 
ATOM     24  O   UNL     1       1.682  10.654  18.974  0.00  0.00    +0.000 OA
BRANCH  23  25
ATOM     25  C   UNL     1       0.233  12.705  19.465  0.00  0.00    +0.000 C 
ATOM     26  C   UNL     1       1.047  13.853  18.903  0.00  0.00    +0.000 C 
ATOM     27  C   UNL     1      -0.404  13.751  18.579  0.00  0.00    +0.000 C 
ENDBRANCH  23  25
ENDBRANCH   3  20
TORSDOF 3
ENDMDL
