MODEL 1
REMARK VINA RESULT:      -5.4      0.000      0.000
REMARK  Name = 
REMARK  9 active torsions:
REMARK  status: ('A' for Active; 'I' for Inactive)
REMARK    1  A    between atoms: C_1  and  S_2
REMARK    2  A    between atoms: S_2  and  C_3
REMARK    3  A    between atoms: C_8  and  N_9
REMARK    4  A    between atoms: N_9  and  C_10
REMARK    5  A    between atoms: N_9  and  C_13
REMARK    6  A    between atoms: C_10  and  C_11
REMARK    7  A    between atoms: C_11  and  O_12
REMARK    8  A    between atoms: C_13  and  C_14
REMARK    9  A    between atoms: C_14  and  O_15
REMARK                            x       y       z     vdW  Elec       q    Type
REMARK                         _______ _______ _______ _____ _____    ______ ____
ROOT
ATOM      1  C   UNL     1       5.834   5.984  18.236  0.00  0.00    +0.000 A 
ATOM      2  N   UNL     1       5.195   6.762  17.348  0.00  0.00    +0.000 NA
ATOM      3  C   UNL     1       3.874   6.554  17.234  0.00  0.00    +0.000 A 
ATOM      4  C   UNL     1       3.191   5.604  17.952  0.00  0.00    +0.000 A 
ATOM      5  F   UNL     1       1.870   5.468  17.776  0.00  0.00    +0.000 F 
ATOM      6  C   UNL     1       3.918   4.829  18.850  0.00  0.00    +0.000 A 
ATOM      7  N   UNL     1       5.246   5.037  18.997  0.00  0.00    +0.000 NA
ENDROOT
BRANCH   1   9
ATOM      8  C   UNL     1       7.777   7.850  17.697  0.00  0.00    +0.000 C 
ATOM      9  S   UNL     1       7.583   6.212  18.452  0.00  0.00    +0.000 S 
ENDBRANCH   1   9
BRANCH   6  10
ATOM     10  N   UNL     1       3.310   3.842  19.632  0.00  0.00    +0.000 N 
BRANCH  10  11
ATOM     11  C   UNL     1       2.580   4.265  20.846  0.00  0.00    +0.000 C 
BRANCH  11  12
ATOM     12  C   UNL     1       1.573   3.198  21.312  0.00  0.00    +0.000 C 
BRANCH  12  13
ATOM     13  O   UNL     1       0.463   3.111  20.416  0.00  0.00    +0.000 OA
ATOM     14  H   UNL     1      -0.091   3.888  20.619  0.00  0.00    +0.000 HD
ENDBRANCH  12  13
ENDBRANCH  11  12
ENDBRANCH  10  11
BRANCH  10  15
ATOM     15  C   UNL     1       3.875   2.477  19.635  0.00  0.00    +0.000 C 
BRANCH  15  16
ATOM     16  C   UNL     1       3.441   1.613  18.432  0.00  0.00    +0.000 C 
BRANCH  16  17
ATOM     17  O   UNL     1       2.026   1.602  18.285  0.00  0.00    +0.000 OA
ATOM     18  H   UNL     1       1.807   2.328  17.676  0.00  0.00    +0.000 HD
ENDBRANCH  16  17
ENDBRANCH  15  16
ENDBRANCH  10  15
ENDBRANCH   6  10
TORSDOF 8
ENDMDL
MODEL 2
REMARK VINA RESULT:      -5.3      2.777      3.207
REMARK  Name = 
REMARK  9 active torsions:
REMARK  status: ('A' for Active; 'I' for Inactive)
REMARK    1  A    between atoms: C_1  and  S_2
REMARK    2  A    between atoms: S_2  and  C_3
REMARK    3  A    between atoms: C_8  and  N_9
REMARK    4  A    between atoms: N_9  and  C_10
REMARK    5  A    between atoms: N_9  and  C_13
REMARK    6  A    between atoms: C_10  and  C_11
REMARK    7  A    between atoms: C_11  and  O_12
REMARK    8  A    between atoms: C_13  and  C_14
REMARK    9  A    between atoms: C_14  and  O_15
REMARK                            x       y       z     vdW  Elec       q    Type
REMARK                         _______ _______ _______ _____ _____    ______ ____
ROOT
ATOM      1  C   UNL     1       6.272   4.331  15.715  0.00  0.00    +0.000 A 
ATOM      2  N   UNL     1       7.374   4.910  16.215  0.00  0.00    +0.000 NA
ATOM      3  C   UNL     1       7.364   5.140  17.537  0.00  0.00    +0.000 A 
ATOM      4  C   UNL     1       6.304   4.831  18.353  0.00  0.00    +0.000 A 
ATOM      5  F   UNL     1       6.382   5.092  19.664  0.00  0.00    +0.000 F 
ATOM      6  C   UNL     1       5.191   4.236  17.764  0.00  0.00    +0.000 A 
ATOM      7  N   UNL     1       5.190   3.976  16.439  0.00  0.00    +0.000 NA
ENDROOT
BRANCH   1   9
ATOM      8  C   UNL     1       7.577   5.042  13.404  0.00  0.00    +0.000 C 
ATOM      9  S   UNL     1       6.219   3.982  13.972  0.00  0.00    +0.000 S 
ENDBRANCH   1   9
BRANCH   6  10
ATOM     10  N   UNL     1       4.066   3.877  18.514  0.00  0.00    +0.000 N 
BRANCH  10  11
ATOM     11  C   UNL     1       3.170   4.954  18.987  0.00  0.00    +0.000 C 
BRANCH  11  12
ATOM     12  C   UNL     1       2.089   5.299  17.948  0.00  0.00    +0.000 C 
BRANCH  12  13
ATOM     13  O   UNL     1       1.423   4.122  17.485  0.00  0.00    +0.000 OA
ATOM     14  H   UNL     1       2.133   3.539  17.159  0.00  0.00    +0.000 HD
ENDBRANCH  12  13
ENDBRANCH  11  12
ENDBRANCH  10  11
BRANCH  10  15
ATOM     15  C   UNL     1       4.105   2.640  19.320  0.00  0.00    +0.000 C 
BRANCH  15  16
ATOM     16  C   UNL     1       3.516   1.405  18.605  0.00  0.00    +0.000 C 
BRANCH  16  17
ATOM     17  O   UNL     1       2.097   1.484  18.516  0.00  0.00    +0.000 OA
ATOM     18  H   UNL     1       1.838   0.919  17.767  0.00  0.00    +0.000 HD
ENDBRANCH  16  17
ENDBRANCH  15  16
ENDBRANCH  10  15
ENDBRANCH   6  10
TORSDOF 8
ENDMDL
MODEL 3
REMARK VINA RESULT:      -5.3      3.684      5.633
REMARK  Name = 
REMARK  9 active torsions:
REMARK  status: ('A' for Active; 'I' for Inactive)
REMARK    1  A    between atoms: C_1  and  S_2
REMARK    2  A    between atoms: S_2  and  C_3
REMARK    3  A    between atoms: C_8  and  N_9
REMARK    4  A    between atoms: N_9  and  C_10
REMARK    5  A    between atoms: N_9  and  C_13
REMARK    6  A    between atoms: C_10  and  C_11
REMARK    7  A    between atoms: C_11  and  O_12
REMARK    8  A    between atoms: C_13  and  C_14
REMARK    9  A    between atoms: C_14  and  O_15
REMARK                            x       y       z     vdW  Elec       q    Type
REMARK                         _______ _______ _______ _____ _____    ______ ____
ROOT
ATOM      1  C   UNL     1       3.571   4.174  19.274  0.00  0.00    +0.000 A 
ATOM      2  N   UNL     1       2.601   5.002  18.857  0.00  0.00    +0.000 NA
ATOM      3  C   UNL     1       2.991   5.993  18.041  0.00  0.00    +0.000 A 
ATOM      4  C   UNL     1       4.293   6.187  17.650  0.00  0.00    +0.000 A 
ATOM      5  F   UNL     1       4.591   7.201  16.829  0.00  0.00    +0.000 F 
ATOM      6  C   UNL     1       5.248   5.293  18.127  0.00  0.00    +0.000 A 
ATOM      7  N   UNL     1       4.873   4.274  18.932  0.00  0.00    +0.000 NA
ENDROOT
BRANCH   1   9
ATOM      8  C   UNL     1       1.809   2.067  19.362  0.00  0.00    +0.000 C 
ATOM      9  S   UNL     1       3.127   2.828  20.348  0.00  0.00    +0.000 S 
ENDBRANCH   1   9
BRANCH   6  10
ATOM     10  N   UNL     1       6.597   5.403  17.778  0.00  0.00    +0.000 N 
BRANCH  10  11
ATOM     11  C   UNL     1       7.168   4.388  16.867  0.00  0.00    +0.000 C 
BRANCH  11  12
ATOM     12  C   UNL     1       6.814   4.672  15.397  0.00  0.00    +0.000 C 
BRANCH  12  13
ATOM     13  O   UNL     1       7.738   5.592  14.811  0.00  0.00    +0.000 OA
ATOM     14  H   UNL     1       8.600   5.379  15.214  0.00  0.00    +0.000 HD
ENDBRANCH  12  13
ENDBRANCH  11  12
ENDBRANCH  10  11
BRANCH  10  15
ATOM     15  C   UNL     1       7.532   6.055  18.719  0.00  0.00    +0.000 C 
BRANCH  15  16
ATOM     16  C   UNL     1       8.048   7.429  18.241  0.00  0.00    +0.000 C 
BRANCH  16  17
ATOM     17  O   UNL     1       7.641   7.701  16.905  0.00  0.00    +0.000 OA
ATOM     18  H   UNL     1       6.793   8.175  16.967  0.00  0.00    +0.000 HD
ENDBRANCH  16  17
ENDBRANCH  15  16
ENDBRANCH  10  15
ENDBRANCH   6  10
TORSDOF 8
ENDMDL
MODEL 4
REMARK VINA RESULT:      -5.2      3.713      5.497
REMARK  Name = 
REMARK  9 active torsions:
REMARK  status: ('A' for Active; 'I' for Inactive)
REMARK    1  A    between atoms: C_1  and  S_2
REMARK    2  A    between atoms: S_2  and  C_3
REMARK    3  A    between atoms: C_8  and  N_9
REMARK    4  A    between atoms: N_9  and  C_10
REMARK    5  A    between atoms: N_9  and  C_13
REMARK    6  A    between atoms: C_10  and  C_11
REMARK    7  A    between atoms: C_11  and  O_12
REMARK    8  A    between atoms: C_13  and  C_14
REMARK    9  A    between atoms: C_14  and  O_15
REMARK                            x       y       z     vdW  Elec       q    Type
REMARK                         _______ _______ _______ _____ _____    ______ ____
ROOT
ATOM      1  C   UNL     1       2.715   3.742  18.626  0.00  0.00    +0.000 A 
ATOM      2  N   UNL     1       2.005   4.880  18.643  0.00  0.00    +0.000 NA
ATOM      3  C   UNL     1       2.606   5.951  18.103  0.00  0.00    +0.000 A 
ATOM      4  C   UNL     1       3.873   5.925  17.574  0.00  0.00    +0.000 A 
ATOM      5  F   UNL     1       4.393   7.043  17.051  0.00  0.00    +0.000 F 
ATOM      6  C   UNL     1       4.554   4.711  17.596  0.00  0.00    +0.000 A 
ATOM      7  N   UNL     1       3.958   3.614  18.114  0.00  0.00    +0.000 NA
ENDROOT
BRANCH   1   9
ATOM      8  C   UNL     1       1.321   2.956  20.859  0.00  0.00    +0.000 C 
ATOM      9  S   UNL     1       1.978   2.277  19.311  0.00  0.00    +0.000 S 
ENDBRANCH   1   9
BRANCH   6  10
ATOM     10  N   UNL     1       5.844   4.582  17.073  0.00  0.00    +0.000 N 
BRANCH  10  11
ATOM     11  C   UNL     1       6.035   3.717  15.890  0.00  0.00    +0.000 C 
BRANCH  11  12
ATOM     12  C   UNL     1       5.765   4.472  14.577  0.00  0.00    +0.000 C 
BRANCH  12  13
ATOM     13  O   UNL     1       6.643   5.590  14.433  0.00  0.00    +0.000 OA
ATOM     14  H   UNL     1       7.464   5.330  14.891  0.00  0.00    +0.000 HD
ENDBRANCH  12  13
ENDBRANCH  11  12
ENDBRANCH  10  11
BRANCH  10  15
ATOM     15  C   UNL     1       7.004   4.744  17.974  0.00  0.00    +0.000 C 
BRANCH  15  16
ATOM     16  C   UNL     1       7.595   6.170  17.988  0.00  0.00    +0.000 C 
BRANCH  16  17
ATOM     17  O   UNL     1       7.564   6.758  16.692  0.00  0.00    +0.000 OA
ATOM     18  H   UNL     1       6.629   6.776  16.421  0.00  0.00    +0.000 HD
ENDBRANCH  16  17
ENDBRANCH  15  16
ENDBRANCH  10  15
ENDBRANCH   6  10
TORSDOF 8
ENDMDL
MODEL 5
REMARK VINA RESULT:      -5.2      3.017      4.912
REMARK  Name = 
REMARK  9 active torsions:
REMARK  status: ('A' for Active; 'I' for Inactive)
REMARK    1  A    between atoms: C_1  and  S_2
REMARK    2  A    between atoms: S_2  and  C_3
REMARK    3  A    between atoms: C_8  and  N_9
REMARK    4  A    between atoms: N_9  and  C_10
REMARK    5  A    between atoms: N_9  and  C_13
REMARK    6  A    between atoms: C_10  and  C_11
REMARK    7  A    between atoms: C_11  and  O_12
REMARK    8  A    between atoms: C_13  and  C_14
REMARK    9  A    between atoms: C_14  and  O_15
REMARK                            x       y       z     vdW  Elec       q    Type
REMARK                         _______ _______ _______ _____ _____    ______ ____
ROOT
ATOM      1  C   UNL     1       3.229   4.356  19.395  0.00  0.00    +0.000 A 
ATOM      2  N   UNL     1       2.309   5.316  19.575  0.00  0.00    +0.000 NA
ATOM      3  C   UNL     1       2.501   6.447  18.880  0.00  0.00    +0.000 A 
ATOM      4  C   UNL     1       3.569   6.650  18.041  0.00  0.00    +0.000 A 
ATOM      5  F   UNL     1       3.679   7.811  17.383  0.00  0.00    +0.000 F 
ATOM      6  C   UNL     1       4.489   5.613  17.907  0.00  0.00    +0.000 A 
ATOM      7  N   UNL     1       4.301   4.457  18.581  0.00  0.00    +0.000 NA
ENDROOT
BRANCH   1   9
ATOM      8  C   UNL     1       1.721   2.063  19.278  0.00  0.00    +0.000 C 
ATOM      9  S   UNL     1       3.033   2.823  20.273  0.00  0.00    +0.000 S 
ENDBRANCH   1   9
BRANCH   6  10
ATOM     10  N   UNL     1       5.604   5.723  17.071  0.00  0.00    +0.000 N 
BRANCH  10  11
ATOM     11  C   UNL     1       6.760   6.510  17.549  0.00  0.00    +0.000 C 
BRANCH  11  12
ATOM     12  C   UNL     1       7.659   5.693  18.495  0.00  0.00    +0.000 C 
BRANCH  12  13
ATOM     13  O   UNL     1       7.597   4.298  18.189  0.00  0.00    +0.000 OA
ATOM     14  H   UNL     1       8.346   3.899  18.669  0.00  0.00    +0.000 HD
ENDBRANCH  12  13
ENDBRANCH  11  12
ENDBRANCH  10  11
BRANCH  10  15
ATOM     15  C   UNL     1       5.417   5.635  15.608  0.00  0.00    +0.000 C 
BRANCH  15  16
ATOM     16  C   UNL     1       5.838   4.280  15.000  0.00  0.00    +0.000 C 
BRANCH  16  17
ATOM     17  O   UNL     1       5.930   3.270  15.998  0.00  0.00    +0.000 OA
ATOM     18  H   UNL     1       5.168   2.680  15.862  0.00  0.00    +0.000 HD
ENDBRANCH  16  17
ENDBRANCH  15  16
ENDBRANCH  10  15
ENDBRANCH   6  10
TORSDOF 8
ENDMDL
MODEL 6
REMARK VINA RESULT:      -5.2      3.217      5.110
REMARK  Name = 
REMARK  9 active torsions:
REMARK  status: ('A' for Active; 'I' for Inactive)
REMARK    1  A    between atoms: C_1  and  S_2
REMARK    2  A    between atoms: S_2  and  C_3
REMARK    3  A    between atoms: C_8  and  N_9
REMARK    4  A    between atoms: N_9  and  C_10
REMARK    5  A    between atoms: N_9  and  C_13
REMARK    6  A    between atoms: C_10  and  C_11
REMARK    7  A    between atoms: C_11  and  O_12
REMARK    8  A    between atoms: C_13  and  C_14
REMARK    9  A    between atoms: C_14  and  O_15
REMARK                            x       y       z     vdW  Elec       q    Type
REMARK                         _______ _______ _______ _____ _____    ______ ____
ROOT
ATOM      1  C   UNL     1       3.344   3.976  18.424  0.00  0.00    +0.000 A 
ATOM      2  N   UNL     1       2.465   4.828  18.972  0.00  0.00    +0.000 NA
ATOM      3  C   UNL     1       2.629   6.121  18.654  0.00  0.00    +0.000 A 
ATOM      4  C   UNL     1       3.632   6.580  17.836  0.00  0.00    +0.000 A 
ATOM      5  F   UNL     1       3.718   7.889  17.568  0.00  0.00    +0.000 F 
ATOM      6  C   UNL     1       4.512   5.640  17.307  0.00  0.00    +0.000 A 
ATOM      7  N   UNL     1       4.351   4.330  17.597  0.00  0.00    +0.000 NA
ENDROOT
BRANCH   1   9
ATOM      8  C   UNL     1       4.403   2.092  20.121  0.00  0.00    +0.000 C 
ATOM      9  S   UNL     1       3.181   2.244  18.790  0.00  0.00    +0.000 S 
ENDBRANCH   1   9
BRANCH   6  10
ATOM     10  N   UNL     1       5.560   6.009  16.458  0.00  0.00    +0.000 N 
BRANCH  10  11
ATOM     11  C   UNL     1       5.558   5.479  15.077  0.00  0.00    +0.000 C 
BRANCH  11  12
ATOM     12  C   UNL     1       6.633   4.397  14.876  0.00  0.00    +0.000 C 
BRANCH  12  13
ATOM     13  O   UNL     1       6.276   3.184  15.543  0.00  0.00    +0.000 OA
ATOM     14  H   UNL     1       5.337   3.292  15.783  0.00  0.00    +0.000 HD
ENDBRANCH  12  13
ENDBRANCH  11  12
ENDBRANCH  10  11
BRANCH  10  15
ATOM     15  C   UNL     1       6.875   6.344  17.041  0.00  0.00    +0.000 C 
BRANCH  15  16
ATOM     16  C   UNL     1       7.180   5.612  18.365  0.00  0.00    +0.000 C 
BRANCH  16  17
ATOM     17  O   UNL     1       7.502   4.244  18.140  0.00  0.00    +0.000 OA
ATOM     18  H   UNL     1       7.150   4.020  17.261  0.00  0.00    +0.000 HD
ENDBRANCH  16  17
ENDBRANCH  15  16
ENDBRANCH  10  15
ENDBRANCH   6  10
TORSDOF 8
ENDMDL
MODEL 7
REMARK VINA RESULT:      -5.2      2.186      2.857
REMARK  Name = 
REMARK  9 active torsions:
REMARK  status: ('A' for Active; 'I' for Inactive)
REMARK    1  A    between atoms: C_1  and  S_2
REMARK    2  A    between atoms: S_2  and  C_3
REMARK    3  A    between atoms: C_8  and  N_9
REMARK    4  A    between atoms: N_9  and  C_10
REMARK    5  A    between atoms: N_9  and  C_13
REMARK    6  A    between atoms: C_10  and  C_11
REMARK    7  A    between atoms: C_11  and  O_12
REMARK    8  A    between atoms: C_13  and  C_14
REMARK    9  A    between atoms: C_14  and  O_15
REMARK                            x       y       z     vdW  Elec       q    Type
REMARK                         _______ _______ _______ _____ _____    ______ ____
ROOT
ATOM      1  C   UNL     1       5.466   5.264  16.449  0.00  0.00    +0.000 A 
ATOM      2  N   UNL     1       5.212   6.575  16.582  0.00  0.00    +0.000 NA
ATOM      3  C   UNL     1       4.151   6.890  17.341  0.00  0.00    +0.000 A 
ATOM      4  C   UNL     1       3.345   5.956  17.943  0.00  0.00    +0.000 A 
ATOM      5  F   UNL     1       2.308   6.362  18.687  0.00  0.00    +0.000 F 
ATOM      6  C   UNL     1       3.663   4.614  17.756  0.00  0.00    +0.000 A 
ATOM      7  N   UNL     1       4.741   4.275  17.014  0.00  0.00    +0.000 NA
ENDROOT
BRANCH   1   9
ATOM      8  C   UNL     1       6.006   3.981  14.080  0.00  0.00    +0.000 C 
ATOM      9  S   UNL     1       6.864   4.771  15.469  0.00  0.00    +0.000 S 
ENDBRANCH   1   9
BRANCH   6  10
ATOM     10  N   UNL     1       2.907   3.591  18.336  0.00  0.00    +0.000 N 
BRANCH  10  11
ATOM     11  C   UNL     1       3.595   2.333  18.698  0.00  0.00    +0.000 C 
BRANCH  11  12
ATOM     12  C   UNL     1       4.290   2.434  20.067  0.00  0.00    +0.000 C 
BRANCH  12  13
ATOM     13  O   UNL     1       5.317   1.447  20.199  0.00  0.00    +0.000 OA
ATOM     14  H   UNL     1       5.811   1.699  21.001  0.00  0.00    +0.000 HD
ENDBRANCH  12  13
ENDBRANCH  11  12
ENDBRANCH  10  11
BRANCH  10  15
ATOM     15  C   UNL     1       1.467   3.495  18.021  0.00  0.00    +0.000 C 
BRANCH  15  16
ATOM     16  C   UNL     1       0.657   2.657  19.033  0.00  0.00    +0.000 C 
BRANCH  16  17
ATOM     17  O   UNL     1       0.478   3.354  20.260  0.00  0.00    +0.000 OA
ATOM     18  H   UNL     1       1.250   3.139  20.813  0.00  0.00    +0.000 HD
ENDBRANCH  16  17
ENDBRANCH  15  16
ENDBRANCH  10  15
ENDBRANCH   6  10
TORSDOF 8
ENDMDL
MODEL 8
REMARK VINA RESULT:      -5.2      2.914      3.928
REMARK  Name = 
REMARK  9 active torsions:
REMARK  status: ('A' for Active; 'I' for Inactive)
REMARK    1  A    between atoms: C_1  and  S_2
REMARK    2  A    between atoms: S_2  and  C_3
REMARK    3  A    between atoms: C_8  and  N_9
REMARK    4  A    between atoms: N_9  and  C_10
REMARK    5  A    between atoms: N_9  and  C_13
REMARK    6  A    between atoms: C_10  and  C_11
REMARK    7  A    between atoms: C_11  and  O_12
REMARK    8  A    between atoms: C_13  and  C_14
REMARK    9  A    between atoms: C_14  and  O_15
REMARK                            x       y       z     vdW  Elec       q    Type
REMARK                         _______ _______ _______ _____ _____    ______ ____
ROOT
ATOM      1  C   UNL     1       6.782   4.728  15.679  0.00  0.00    +0.000 A 
ATOM      2  N   UNL     1       7.820   4.668  16.528  0.00  0.00    +0.000 NA
ATOM      3  C   UNL     1       7.507   4.665  17.833  0.00  0.00    +0.000 A 
ATOM      4  C   UNL     1       6.220   4.736  18.305  0.00  0.00    +0.000 A 
ATOM      5  F   UNL     1       6.000   4.724  19.626  0.00  0.00    +0.000 F 
ATOM      6  C   UNL     1       5.193   4.803  17.367  0.00  0.00    +0.000 A 
ATOM      7  N   UNL     1       5.485   4.784  16.048  0.00  0.00    +0.000 NA
ENDROOT
BRANCH   1   9
ATOM      8  C   UNL     1       5.746   3.686  13.358  0.00  0.00    +0.000 C 
ATOM      9  S   UNL     1       7.119   4.721  13.934  0.00  0.00    +0.000 S 
ENDBRANCH   1   9
BRANCH   6  10
ATOM     10  N   UNL     1       3.850   4.869  17.750  0.00  0.00    +0.000 N 
BRANCH  10  11
ATOM     11  C   UNL     1       2.945   3.785  17.311  0.00  0.00    +0.000 C 
BRANCH  11  12
ATOM     12  C   UNL     1       3.144   2.502  18.136  0.00  0.00    +0.000 C 
BRANCH  12  13
ATOM     13  O   UNL     1       3.274   2.797  19.528  0.00  0.00    +0.000 OA
ATOM     14  H   UNL     1       4.230   2.739  19.713  0.00  0.00    +0.000 HD
ENDBRANCH  12  13
ENDBRANCH  11  12
ENDBRANCH  10  11
BRANCH  10  15
ATOM     15  C   UNL     1       3.237   6.190  17.997  0.00  0.00    +0.000 C 
BRANCH  15  16
ATOM     16  C   UNL     1       2.469   6.288  19.332  0.00  0.00    +0.000 C 
BRANCH  16  17
ATOM     17  O   UNL     1       3.163   5.619  20.380  0.00  0.00    +0.000 OA
ATOM     18  H   UNL     1       4.087   5.534  20.086  0.00  0.00    +0.000 HD
ENDBRANCH  16  17
ENDBRANCH  15  16
ENDBRANCH  10  15
ENDBRANCH   6  10
TORSDOF 8
ENDMDL
MODEL 9
REMARK VINA RESULT:      -5.2      3.510      5.455
REMARK  Name = 
REMARK  9 active torsions:
REMARK  status: ('A' for Active; 'I' for Inactive)
REMARK    1  A    between atoms: C_1  and  S_2
REMARK    2  A    between atoms: S_2  and  C_3
REMARK    3  A    between atoms: C_8  and  N_9
REMARK    4  A    between atoms: N_9  and  C_10
REMARK    5  A    between atoms: N_9  and  C_13
REMARK    6  A    between atoms: C_10  and  C_11
REMARK    7  A    between atoms: C_11  and  O_12
REMARK    8  A    between atoms: C_13  and  C_14
REMARK    9  A    between atoms: C_14  and  O_15
REMARK                            x       y       z     vdW  Elec       q    Type
REMARK                         _______ _______ _______ _____ _____    ______ ____
ROOT
ATOM      1  C   UNL     1       3.518   4.124  19.294  0.00  0.00    +0.000 A 
ATOM      2  N   UNL     1       2.560   5.052  19.441  0.00  0.00    +0.000 NA
ATOM      3  C   UNL     1       2.775   6.219  18.815  0.00  0.00    +0.000 A 
ATOM      4  C   UNL     1       3.901   6.487  18.076  0.00  0.00    +0.000 A 
ATOM      5  F   UNL     1       4.032   7.680  17.482  0.00  0.00    +0.000 F 
ATOM      6  C   UNL     1       4.858   5.480  17.972  0.00  0.00    +0.000 A 
ATOM      7  N   UNL     1       4.650   4.290  18.576  0.00  0.00    +0.000 NA
ENDROOT
BRANCH   1   9
ATOM      8  C   UNL     1       3.454   1.455  18.645  0.00  0.00    +0.000 C 
ATOM      9  S   UNL     1       3.295   2.548  20.084  0.00  0.00    +0.000 S 
ENDBRANCH   1   9
BRANCH   6  10
ATOM     10  N   UNL     1       6.033   5.656  17.235  0.00  0.00    +0.000 N 
BRANCH  10  11
ATOM     11  C   UNL     1       5.938   5.661  15.760  0.00  0.00    +0.000 C 
BRANCH  11  12
ATOM     12  C   UNL     1       6.993   4.747  15.113  0.00  0.00    +0.000 C 
BRANCH  12  13
ATOM     13  O   UNL     1       7.852   5.485  14.241  0.00  0.00    +0.000 OA
ATOM     14  H   UNL     1       8.441   4.820  13.840  0.00  0.00    +0.000 HD
ENDBRANCH  12  13
ENDBRANCH  11  12
ENDBRANCH  10  11
BRANCH  10  15
ATOM     15  C   UNL     1       7.319   5.221  17.818  0.00  0.00    +0.000 C 
BRANCH  15  16
ATOM     16  C   UNL     1       7.843   6.140  18.942  0.00  0.00    +0.000 C 
BRANCH  16  17
ATOM     17  O   UNL     1       7.782   5.497  20.210  0.00  0.00    +0.000 OA
ATOM     18  H   UNL     1       7.665   6.202  20.870  0.00  0.00    +0.000 HD
ENDBRANCH  16  17
ENDBRANCH  15  16
ENDBRANCH  10  15
ENDBRANCH   6  10
TORSDOF 8
ENDMDL
