MODEL 1
REMARK VINA RESULT:      -8.0      0.000      0.000
REMARK  Name = 
REMARK  8 active torsions:
REMARK  status: ('A' for Active; 'I' for Inactive)
REMARK    1  A    between atoms: C_5  and  O_6
REMARK    2  A    between atoms: O_6  and  P_7
REMARK    3  A    between atoms: P_7  and  O_9
REMARK    4  A    between atoms: P_7  and  O_10
REMARK    5  A    between atoms: C_11  and  O_12
REMARK    6  A    between atoms: C_13  and  O_14
REMARK    7  A    between atoms: C_15  and  O_16
REMARK    8  A    between atoms: C_22  and  O_23
REMARK                            x       y       z     vdW  Elec       q    Type
REMARK                         _______ _______ _______ _____ _____    ______ ____
ROOT
ATOM      1  O   UNL     1       1.495   5.279  21.026  0.00  0.00    +0.000 OA
ATOM      2  C   UNL     1       2.234   5.627  20.111  0.00  0.00    +0.000 C 
ATOM      3  N   UNL     1       2.997   4.698  19.469  0.00  0.00    +0.000 N 
ATOM      4  C   UNL     1       4.151   5.139  18.724  0.00  0.00    +0.000 C 
ATOM      5  C   UNL     1       4.945   3.927  18.244  0.00  0.00    +0.000 C 
ATOM      6  C   UNL     1       6.184   4.356  17.441  0.00  0.00    +0.000 C 
ATOM      7  C   UNL     1       5.810   5.376  16.332  0.00  0.00    +0.000 C 
ATOM      8  C   UNL     1       5.000   6.581  16.886  0.00  0.00    +0.000 C 
ATOM      9  C   UNL     1       3.713   6.114  17.611  0.00  0.00    +0.000 C 
ATOM     10  C   UNL     1       2.860   7.227  18.255  0.00  0.00    +0.000 A 
ATOM     11  C   UNL     1       2.547   8.430  17.590  0.00  0.00    +0.000 A 
ATOM     12  C   UNL     1       1.785   9.363  18.268  0.00  0.00    +0.000 A 
ATOM     13  C   UNL     1       1.434   9.202  19.588  0.00  0.00    +0.000 A 
ATOM     14  C   UNL     1       1.701   8.051  20.275  0.00  0.00    +0.000 A 
ATOM     15  C   UNL     1       2.311   7.013  19.569  0.00  0.00    +0.000 A 
ATOM     16  O   UNL     1       0.696  10.242  20.072  0.00  0.00    +0.000 OA
ATOM     17  C   UNL     1       0.313  10.837  18.820  0.00  0.00    +0.000 C 
ATOM     18  O   UNL     1       1.241  10.504  17.753  0.00  0.00    +0.000 OA
ATOM     19  H   UNL     1       3.058   3.823  19.984  0.00  0.00    +0.000 HD
ENDROOT
BRANCH   6  20
ATOM     20  O   UNL     1       7.180   4.870  18.345  0.00  0.00    +0.000 OA
ATOM     21  H   UNL     1       6.741   5.011  19.216  0.00  0.00    +0.000 HD
ENDBRANCH   6  20
BRANCH   7  22
ATOM     22  O   UNL     1       5.104   4.756  15.256  0.00  0.00    +0.000 OA
ATOM     23  H   UNL     1       5.443   3.864  15.074  0.00  0.00    +0.000 HD
ENDBRANCH   7  22
BRANCH   8  24
ATOM     24  O   UNL     1       5.858   7.274  17.806  0.00  0.00    +0.000 OA
ATOM     25  H   UNL     1       6.087   8.137  17.410  0.00  0.00    +0.000 HD
ENDBRANCH   8  24
BRANCH  14  26
ATOM     26  O   UNL     1       1.332   7.946  21.579  0.00  0.00    +0.000 OA
ATOM     27  H   UNL     1       2.095   8.204  22.124  0.00  0.00    +0.000 HD
ENDBRANCH  14  26
BRANCH   5  28
ATOM     28  O   UNL     1       5.252   3.232  19.447  0.00  0.00    +0.000 OA
BRANCH  28  29
ATOM     29  P   UNL     1       4.327   2.064  20.000  0.00  0.00    +0.000 P 
ATOM     30  O   UNL     1       3.460   2.405  21.161  0.00  0.00    +0.000 OA
BRANCH  29  31
ATOM     31  O   UNL     1       3.592   1.561  18.677  0.00  0.00    +0.000 OA
ATOM     32  H   UNL     1       2.786   2.093  18.506  0.00  0.00    +0.000 HD
ENDBRANCH  29  31
BRANCH  29  33
ATOM     33  O   UNL     1       5.413   0.917  20.240  0.00  0.00    +0.000 OA
ATOM     34  H   UNL     1       5.018   0.111  20.609  0.00  0.00    +0.000 HD
ENDBRANCH  29  33
ENDBRANCH  28  29
ENDBRANCH   5  28
TORSDOF 8
ENDMDL
MODEL 2
REMARK VINA RESULT:      -7.8      1.832      4.062
REMARK  Name = 
REMARK  8 active torsions:
REMARK  status: ('A' for Active; 'I' for Inactive)
REMARK    1  A    between atoms: C_5  and  O_6
REMARK    2  A    between atoms: O_6  and  P_7
REMARK    3  A    between atoms: P_7  and  O_9
REMARK    4  A    between atoms: P_7  and  O_10
REMARK    5  A    between atoms: C_11  and  O_12
REMARK    6  A    between atoms: C_13  and  O_14
REMARK    7  A    between atoms: C_15  and  O_16
REMARK    8  A    between atoms: C_22  and  O_23
REMARK                            x       y       z     vdW  Elec       q    Type
REMARK                         _______ _______ _______ _____ _____    ______ ____
ROOT
ATOM      1  O   UNL     1       4.141   8.297  16.871  0.00  0.00    +0.000 OA
ATOM      2  C   UNL     1       3.695   7.390  17.566  0.00  0.00    +0.000 C 
ATOM      3  N   UNL     1       4.268   6.154  17.508  0.00  0.00    +0.000 N 
ATOM      4  C   UNL     1       3.510   5.014  17.962  0.00  0.00    +0.000 C 
ATOM      5  C   UNL     1       4.274   3.731  17.643  0.00  0.00    +0.000 C 
ATOM      6  C   UNL     1       3.498   2.490  18.115  0.00  0.00    +0.000 C 
ATOM      7  C   UNL     1       3.051   2.635  19.595  0.00  0.00    +0.000 C 
ATOM      8  C   UNL     1       2.285   3.963  19.853  0.00  0.00    +0.000 C 
ATOM      9  C   UNL     1       3.132   5.196  19.447  0.00  0.00    +0.000 C 
ATOM     10  C   UNL     1       2.445   6.567  19.605  0.00  0.00    +0.000 A 
ATOM     11  C   UNL     1       1.715   6.928  20.755  0.00  0.00    +0.000 A 
ATOM     12  C   UNL     1       1.131   8.181  20.783  0.00  0.00    +0.000 A 
ATOM     13  C   UNL     1       1.142   9.018  19.692  0.00  0.00    +0.000 A 
ATOM     14  C   UNL     1       1.845   8.723  18.557  0.00  0.00    +0.000 A 
ATOM     15  C   UNL     1       2.597   7.548  18.560  0.00  0.00    +0.000 A 
ATOM     16  O   UNL     1       0.499  10.198  19.921  0.00  0.00    +0.000 OA
ATOM     17  C   UNL     1       0.449  10.143  21.358  0.00  0.00    +0.000 C 
ATOM     18  O   UNL     1       0.529   8.779  21.851  0.00  0.00    +0.000 OA
ATOM     19  H   UNL     1       4.871   6.043  16.697  0.00  0.00    +0.000 HD
ENDROOT
BRANCH   6  20
ATOM     20  O   UNL     1       2.389   2.258  17.227  0.00  0.00    +0.000 OA
ATOM     21  H   UNL     1       2.759   1.936  16.373  0.00  0.00    +0.000 HD
ENDBRANCH   6  20
BRANCH   7  22
ATOM     22  O   UNL     1       4.152   2.515  20.497  0.00  0.00    +0.000 OA
ATOM     23  H   UNL     1       4.819   1.891  20.165  0.00  0.00    +0.000 HD
ENDBRANCH   7  22
BRANCH   8  24
ATOM     24  O   UNL     1       1.085   3.913  19.066  0.00  0.00    +0.000 OA
ATOM     25  H   UNL     1       0.753   4.827  18.967  0.00  0.00    +0.000 HD
ENDBRANCH   8  24
BRANCH  14  26
ATOM     26  O   UNL     1       1.822   9.587  17.508  0.00  0.00    +0.000 OA
ATOM     27  H   UNL     1       2.308   9.174  16.774  0.00  0.00    +0.000 HD
ENDBRANCH  14  26
BRANCH   5  28
ATOM     28  O   UNL     1       4.454   3.793  16.233  0.00  0.00    +0.000 OA
BRANCH  28  29
ATOM     29  P   UNL     1       5.788   4.362  15.584  0.00  0.00    +0.000 P 
ATOM     30  O   UNL     1       5.709   5.736  15.016  0.00  0.00    +0.000 OA
BRANCH  29  31
ATOM     31  O   UNL     1       6.857   4.124  16.744  0.00  0.00    +0.000 OA
ATOM     32  H   UNL     1       6.429   3.727  17.532  0.00  0.00    +0.000 HD
ENDBRANCH  29  31
BRANCH  29  33
ATOM     33  O   UNL     1       6.139   3.190  14.556  0.00  0.00    +0.000 OA
ATOM     34  H   UNL     1       5.757   2.340  14.828  0.00  0.00    +0.000 HD
ENDBRANCH  29  33
ENDBRANCH  28  29
ENDBRANCH   5  28
TORSDOF 8
ENDMDL
MODEL 3
REMARK VINA RESULT:      -7.1      2.509      6.236
REMARK  Name = 
REMARK  8 active torsions:
REMARK  status: ('A' for Active; 'I' for Inactive)
REMARK    1  A    between atoms: C_5  and  O_6
REMARK    2  A    between atoms: O_6  and  P_7
REMARK    3  A    between atoms: P_7  and  O_9
REMARK    4  A    between atoms: P_7  and  O_10
REMARK    5  A    between atoms: C_11  and  O_12
REMARK    6  A    between atoms: C_13  and  O_14
REMARK    7  A    between atoms: C_15  and  O_16
REMARK    8  A    between atoms: C_22  and  O_23
REMARK                            x       y       z     vdW  Elec       q    Type
REMARK                         _______ _______ _______ _____ _____    ______ ____
ROOT
ATOM      1  O   UNL     1       4.207   8.487  17.546  0.00  0.00    +0.000 OA
ATOM      2  C   UNL     1       3.944   7.318  17.805  0.00  0.00    +0.000 C 
ATOM      3  N   UNL     1       2.872   7.028  18.595  0.00  0.00    +0.000 N 
ATOM      4  C   UNL     1       2.815   5.741  19.246  0.00  0.00    +0.000 C 
ATOM      5  C   UNL     1       1.629   5.706  20.207  0.00  0.00    +0.000 C 
ATOM      6  C   UNL     1       1.532   4.346  20.921  0.00  0.00    +0.000 C 
ATOM      7  C   UNL     1       1.587   3.174  19.905  0.00  0.00    +0.000 C 
ATOM      8  C   UNL     1       2.813   3.273  18.953  0.00  0.00    +0.000 C 
ATOM      9  C   UNL     1       2.829   4.619  18.187  0.00  0.00    +0.000 C 
ATOM     10  C   UNL     1       4.037   4.850  17.257  0.00  0.00    +0.000 A 
ATOM     11  C   UNL     1       4.520   3.865  16.372  0.00  0.00    +0.000 A 
ATOM     12  C   UNL     1       5.618   4.179  15.592  0.00  0.00    +0.000 A 
ATOM     13  C   UNL     1       6.310   5.358  15.742  0.00  0.00    +0.000 A 
ATOM     14  C   UNL     1       5.878   6.351  16.576  0.00  0.00    +0.000 A 
ATOM     15  C   UNL     1       4.671   6.144  17.245  0.00  0.00    +0.000 A 
ATOM     16  O   UNL     1       7.368   5.466  14.890  0.00  0.00    +0.000 OA
ATOM     17  C   UNL     1       7.005   4.427  13.962  0.00  0.00    +0.000 C 
ATOM     18  O   UNL     1       6.133   3.437  14.570  0.00  0.00    +0.000 OA
ATOM     19  H   UNL     1       2.530   7.841  19.100  0.00  0.00    +0.000 HD
ENDROOT
BRANCH   6  20
ATOM     20  O   UNL     1       2.568   4.258  21.917  0.00  0.00    +0.000 OA
ATOM     21  H   UNL     1       3.316   3.756  21.518  0.00  0.00    +0.000 HD
ENDBRANCH   6  20
BRANCH   7  22
ATOM     22  O   UNL     1       0.380   3.068  19.149  0.00  0.00    +0.000 OA
ATOM     23  H   UNL     1       0.071   2.149  19.096  0.00  0.00    +0.000 HD
ENDBRANCH   7  22
BRANCH   8  24
ATOM     24  O   UNL     1       3.987   3.161  19.772  0.00  0.00    +0.000 OA
ATOM     25  H   UNL     1       4.085   3.995  20.271  0.00  0.00    +0.000 HD
ENDBRANCH   8  24
BRANCH  14  26
ATOM     26  O   UNL     1       6.600   7.498  16.685  0.00  0.00    +0.000 OA
ATOM     27  H   UNL     1       6.405   7.888  17.555  0.00  0.00    +0.000 HD
ENDBRANCH  14  26
BRANCH   5  28
ATOM     28  O   UNL     1       1.880   6.798  21.085  0.00  0.00    +0.000 OA
BRANCH  28  29
ATOM     29  P   UNL     1       1.041   8.145  21.006  0.00  0.00    +0.000 P 
ATOM     30  O   UNL     1       1.089   8.875  19.709  0.00  0.00    +0.000 OA
BRANCH  29  31
ATOM     31  O   UNL     1      -0.397   7.678  21.515  0.00  0.00    +0.000 OA
ATOM     32  H   UNL     1      -0.360   6.760  21.857  0.00  0.00    +0.000 HD
ENDBRANCH  29  31
BRANCH  29  33
ATOM     33  O   UNL     1       1.613   8.923  22.278  0.00  0.00    +0.000 OA
ATOM     34  H   UNL     1       1.165   8.662  23.098  0.00  0.00    +0.000 HD
ENDBRANCH  29  33
ENDBRANCH  28  29
ENDBRANCH   5  28
TORSDOF 8
ENDMDL
MODEL 4
REMARK VINA RESULT:      -6.7      3.869      8.291
REMARK  Name = 
REMARK  8 active torsions:
REMARK  status: ('A' for Active; 'I' for Inactive)
REMARK    1  A    between atoms: C_5  and  O_6
REMARK    2  A    between atoms: O_6  and  P_7
REMARK    3  A    between atoms: P_7  and  O_9
REMARK    4  A    between atoms: P_7  and  O_10
REMARK    5  A    between atoms: C_11  and  O_12
REMARK    6  A    between atoms: C_13  and  O_14
REMARK    7  A    between atoms: C_15  and  O_16
REMARK    8  A    between atoms: C_22  and  O_23
REMARK                            x       y       z     vdW  Elec       q    Type
REMARK                         _______ _______ _______ _____ _____    ______ ____
ROOT
ATOM      1  O   UNL     1       1.280   9.017  22.599  0.00  0.00    +0.000 OA
ATOM      2  C   UNL     1       0.900   9.390  21.495  0.00  0.00    +0.000 C 
ATOM      3  N   UNL     1       0.149  10.522  21.387  0.00  0.00    +0.000 N 
ATOM      4  C   UNL     1      -0.646  10.720  20.199  0.00  0.00    +0.000 C 
ATOM      5  C   UNL     1      -1.529  11.953  20.373  0.00  0.00    +0.000 C 
ATOM      6  C   UNL     1      -2.392  12.199  19.124  0.00  0.00    +0.000 C 
ATOM      7  C   UNL     1      -1.529  12.188  17.833  0.00  0.00    +0.000 C 
ATOM      8  C   UNL     1      -0.651  10.911  17.721  0.00  0.00    +0.000 C 
ATOM      9  C   UNL     1       0.269  10.743  18.956  0.00  0.00    +0.000 C 
ATOM     10  C   UNL     1       1.143   9.473  18.978  0.00  0.00    +0.000 A 
ATOM     11  C   UNL     1       1.872   9.028  17.857  0.00  0.00    +0.000 A 
ATOM     12  C   UNL     1       2.614   7.868  17.987  0.00  0.00    +0.000 A 
ATOM     13  C   UNL     1       2.563   7.090  19.120  0.00  0.00    +0.000 A 
ATOM     14  C   UNL     1       1.883   7.481  20.239  0.00  0.00    +0.000 A 
ATOM     15  C   UNL     1       1.270   8.734  20.209  0.00  0.00    +0.000 A 
ATOM     16  O   UNL     1       3.355   5.983  19.040  0.00  0.00    +0.000 OA
ATOM     17  C   UNL     1       4.173   6.382  17.925  0.00  0.00    +0.000 C 
ATOM     18  O   UNL     1       3.506   7.364  17.087  0.00  0.00    +0.000 OA
ATOM     19  H   UNL     1      -0.233  10.821  22.280  0.00  0.00    +0.000 HD
ENDROOT
BRANCH   6  20
ATOM     20  O   UNL     1      -3.454  11.228  19.082  0.00  0.00    +0.000 OA
ATOM     21  H   UNL     1      -3.645  11.043  18.133  0.00  0.00    +0.000 HD
ENDBRANCH   6  20
BRANCH   7  22
ATOM     22  O   UNL     1      -0.718  13.359  17.727  0.00  0.00    +0.000 OA
ATOM     23  H   UNL     1      -0.857  13.814  16.880  0.00  0.00    +0.000 HD
ENDBRANCH   7  22
BRANCH   8  24
ATOM     24  O   UNL     1      -1.549   9.794  17.622  0.00  0.00    +0.000 OA
ATOM     25  H   UNL     1      -1.513   9.306  18.468  0.00  0.00    +0.000 HD
ENDBRANCH   8  24
BRANCH  14  26
ATOM     26  O   UNL     1       1.866   6.673  21.332  0.00  0.00    +0.000 OA
ATOM     27  H   UNL     1       1.222   7.040  21.961  0.00  0.00    +0.000 HD
ENDBRANCH  14  26
BRANCH   5  28
ATOM     28  O   UNL     1      -2.284  11.659  21.543  0.00  0.00    +0.000 OA
BRANCH  28  29
ATOM     29  P   UNL     1      -2.484  12.728  22.702  0.00  0.00    +0.000 P 
ATOM     30  O   UNL     1      -2.990  14.063  22.283  0.00  0.00    +0.000 OA
BRANCH  29  31
ATOM     31  O   UNL     1      -3.367  11.922  23.757  0.00  0.00    +0.000 OA
ATOM     32  H   UNL     1      -4.270  12.301  23.813  0.00  0.00    +0.000 HD
ENDBRANCH  29  31
BRANCH  29  33
ATOM     33  O   UNL     1      -1.038  12.700  23.381  0.00  0.00    +0.000 OA
ATOM     34  H   UNL     1      -0.962  13.341  24.106  0.00  0.00    +0.000 HD
ENDBRANCH  29  33
ENDBRANCH  28  29
ENDBRANCH   5  28
TORSDOF 8
ENDMDL
MODEL 5
REMARK VINA RESULT:      -6.5      8.256     11.881
REMARK  Name = 
REMARK  8 active torsions:
REMARK  status: ('A' for Active; 'I' for Inactive)
REMARK    1  A    between atoms: C_5  and  O_6
REMARK    2  A    between atoms: O_6  and  P_7
REMARK    3  A    between atoms: P_7  and  O_9
REMARK    4  A    between atoms: P_7  and  O_10
REMARK    5  A    between atoms: C_11  and  O_12
REMARK    6  A    between atoms: C_13  and  O_14
REMARK    7  A    between atoms: C_15  and  O_16
REMARK    8  A    between atoms: C_22  and  O_23
REMARK                            x       y       z     vdW  Elec       q    Type
REMARK                         _______ _______ _______ _____ _____    ______ ____
ROOT
ATOM      1  O   UNL     1      -1.363  12.472  20.143  0.00  0.00    +0.000 OA
ATOM      2  C   UNL     1      -2.571  12.389  19.944  0.00  0.00    +0.000 C 
ATOM      3  N   UNL     1      -3.434  13.079  20.742  0.00  0.00    +0.000 N 
ATOM      4  C   UNL     1      -4.813  12.659  20.801  0.00  0.00    +0.000 C 
ATOM      5  C   UNL     1      -5.545  13.455  21.880  0.00  0.00    +0.000 C 
ATOM      6  C   UNL     1      -7.023  13.038  21.972  0.00  0.00    +0.000 C 
ATOM      7  C   UNL     1      -7.699  13.052  20.575  0.00  0.00    +0.000 C 
ATOM      8  C   UNL     1      -6.902  12.229  19.524  0.00  0.00    +0.000 C 
ATOM      9  C   UNL     1      -5.443  12.735  19.394  0.00  0.00    +0.000 C 
ATOM     10  C   UNL     1      -4.541  11.950  18.421  0.00  0.00    +0.000 A 
ATOM     11  C   UNL     1      -4.962  11.567  17.131  0.00  0.00    +0.000 A 
ATOM     12  C   UNL     1      -4.073  10.854  16.347  0.00  0.00    +0.000 A 
ATOM     13  C   UNL     1      -2.861  10.416  16.827  0.00  0.00    +0.000 A 
ATOM     14  C   UNL     1      -2.400  10.770  18.064  0.00  0.00    +0.000 A 
ATOM     15  C   UNL     1      -3.191  11.639  18.816  0.00  0.00    +0.000 A 
ATOM     16  O   UNL     1      -2.143   9.720  15.901  0.00  0.00    +0.000 OA
ATOM     17  C   UNL     1      -2.862  10.123  14.721  0.00  0.00    +0.000 C 
ATOM     18  O   UNL     1      -4.221  10.535  15.029  0.00  0.00    +0.000 OA
ATOM     19  H   UNL     1      -2.992  13.413  21.595  0.00  0.00    +0.000 HD
ENDROOT
BRANCH   6  20
ATOM     20  O   UNL     1      -7.113  11.752  22.613  0.00  0.00    +0.000 OA
ATOM     21  H   UNL     1      -8.070  11.539  22.709  0.00  0.00    +0.000 HD
ENDBRANCH   6  20
BRANCH   7  22
ATOM     22  O   UNL     1      -7.916  14.383  20.102  0.00  0.00    +0.000 OA
ATOM     23  H   UNL     1      -8.563  14.403  19.379  0.00  0.00    +0.000 HD
ENDBRANCH   7  22
BRANCH   8  24
ATOM     24  O   UNL     1      -6.910  10.864  19.969  0.00  0.00    +0.000 OA
ATOM     25  H   UNL     1      -6.875  10.291  19.178  0.00  0.00    +0.000 HD
ENDBRANCH   8  24
BRANCH  14  26
ATOM     26  O   UNL     1      -1.194  10.308  18.489  0.00  0.00    +0.000 OA
ATOM     27  H   UNL     1      -1.070   9.418  18.117  0.00  0.00    +0.000 HD
ENDBRANCH  14  26
BRANCH   5  28
ATOM     28  O   UNL     1      -4.797  13.183  23.059  0.00  0.00    +0.000 OA
BRANCH  28  29
ATOM     29  P   UNL     1      -4.173  14.348  23.942  0.00  0.00    +0.000 P 
ATOM     30  O   UNL     1      -3.025  15.084  23.344  0.00  0.00    +0.000 OA
BRANCH  29  31
ATOM     31  O   UNL     1      -5.460  15.209  24.323  0.00  0.00    +0.000 OA
ATOM     32  H   UNL     1      -5.744  15.760  23.563  0.00  0.00    +0.000 HD
ENDBRANCH  29  31
BRANCH  29  33
ATOM     33  O   UNL     1      -3.879  13.561  25.301  0.00  0.00    +0.000 OA
ATOM     34  H   UNL     1      -3.068  13.871  25.735  0.00  0.00    +0.000 HD
ENDBRANCH  29  33
ENDBRANCH  28  29
ENDBRANCH   5  28
TORSDOF 8
ENDMDL
MODEL 6
REMARK VINA RESULT:      -6.4      5.376      9.916
REMARK  Name = 
REMARK  8 active torsions:
REMARK  status: ('A' for Active; 'I' for Inactive)
REMARK    1  A    between atoms: C_5  and  O_6
REMARK    2  A    between atoms: O_6  and  P_7
REMARK    3  A    between atoms: P_7  and  O_9
REMARK    4  A    between atoms: P_7  and  O_10
REMARK    5  A    between atoms: C_11  and  O_12
REMARK    6  A    between atoms: C_13  and  O_14
REMARK    7  A    between atoms: C_15  and  O_16
REMARK    8  A    between atoms: C_22  and  O_23
REMARK                            x       y       z     vdW  Elec       q    Type
REMARK                         _______ _______ _______ _____ _____    ______ ____
ROOT
ATOM      1  O   UNL     1       0.264   9.748  23.542  0.00  0.00    +0.000 OA
ATOM      2  C   UNL     1      -0.304  10.348  22.636  0.00  0.00    +0.000 C 
ATOM      3  N   UNL     1      -1.160  11.366  22.934  0.00  0.00    +0.000 N 
ATOM      4  C   UNL     1      -2.134  11.768  21.948  0.00  0.00    +0.000 C 
ATOM      5  C   UNL     1      -3.088  12.792  22.558  0.00  0.00    +0.000 C 
ATOM      6  C   UNL     1      -4.142  13.248  21.535  0.00  0.00    +0.000 C 
ATOM      7  C   UNL     1      -3.479  13.684  20.201  0.00  0.00    +0.000 C 
ATOM      8  C   UNL     1      -2.517  12.601  19.637  0.00  0.00    +0.000 C 
ATOM      9  C   UNL     1      -1.416  12.231  20.663  0.00  0.00    +0.000 C 
ATOM     10  C   UNL     1      -0.439  11.119  20.230  0.00  0.00    +0.000 A 
ATOM     11  C   UNL     1       0.156  11.079  18.953  0.00  0.00    +0.000 A 
ATOM     12  C   UNL     1       1.008  10.027  18.670  0.00  0.00    +0.000 A 
ATOM     13  C   UNL     1       1.192   8.979  19.540  0.00  0.00    +0.000 A 
ATOM     14  C   UNL     1       0.650   8.974  20.795  0.00  0.00    +0.000 A 
ATOM     15  C   UNL     1      -0.069  10.104  21.185  0.00  0.00    +0.000 A 
ATOM     16  O   UNL     1       2.059   8.040  19.066  0.00  0.00    +0.000 OA
ATOM     17  C   UNL     1       2.667   8.816  18.018  0.00  0.00    +0.000 C 
ATOM     18  O   UNL     1       1.801   9.893  17.568  0.00  0.00    +0.000 OA
ATOM     19  H   UNL     1      -1.432  11.370  23.913  0.00  0.00    +0.000 HD
ENDROOT
BRANCH   6  20
ATOM     20  O   UNL     1      -5.109  12.198  21.349  0.00  0.00    +0.000 OA
ATOM     21  H   UNL     1      -5.416  12.244  20.414  0.00  0.00    +0.000 HD
ENDBRANCH   6  20
BRANCH   7  22
ATOM     22  O   UNL     1      -2.798  14.934  20.330  0.00  0.00    +0.000 OA
ATOM     23  H   UNL     1      -3.071  15.408  21.133  0.00  0.00    +0.000 HD
ENDBRANCH   7  22
BRANCH   8  24
ATOM     24  O   UNL     1      -3.317  11.447  19.339  0.00  0.00    +0.000 OA
ATOM     25  H   UNL     1      -2.790  10.859  18.763  0.00  0.00    +0.000 HD
ENDBRANCH   8  24
BRANCH  14  26
ATOM     26  O   UNL     1       0.864   7.912  21.616  0.00  0.00    +0.000 OA
ATOM     27  H   UNL     1       1.671   8.092  22.128  0.00  0.00    +0.000 HD
ENDBRANCH  14  26
BRANCH   5  28
ATOM     28  O   UNL     1      -3.635  12.109  23.680  0.00  0.00    +0.000 OA
BRANCH  28  29
ATOM     29  P   UNL     1      -4.846  12.708  24.517  0.00  0.00    +0.000 P 
ATOM     30  O   UNL     1      -6.211  12.330  24.060  0.00  0.00    +0.000 OA
BRANCH  29  31
ATOM     31  O   UNL     1      -4.452  12.312  26.011  0.00  0.00    +0.000 OA
ATOM     32  H   UNL     1      -4.746  13.005  26.641  0.00  0.00    +0.000 HD
ENDBRANCH  29  31
BRANCH  29  33
ATOM     33  O   UNL     1      -4.490  14.265  24.475  0.00  0.00    +0.000 OA
ATOM     34  H   UNL     1      -4.881  14.749  25.221  0.00  0.00    +0.000 HD
ENDBRANCH  29  33
ENDBRANCH  28  29
ENDBRANCH   5  28
TORSDOF 8
ENDMDL
MODEL 7
REMARK VINA RESULT:      -6.3      6.412      9.140
REMARK  Name = 
REMARK  8 active torsions:
REMARK  status: ('A' for Active; 'I' for Inactive)
REMARK    1  A    between atoms: C_5  and  O_6
REMARK    2  A    between atoms: O_6  and  P_7
REMARK    3  A    between atoms: P_7  and  O_9
REMARK    4  A    between atoms: P_7  and  O_10
REMARK    5  A    between atoms: C_11  and  O_12
REMARK    6  A    between atoms: C_13  and  O_14
REMARK    7  A    between atoms: C_15  and  O_16
REMARK    8  A    between atoms: C_22  and  O_23
REMARK                            x       y       z     vdW  Elec       q    Type
REMARK                         _______ _______ _______ _____ _____    ______ ____
ROOT
ATOM      1  O   UNL     1      -4.624  12.807  20.619  0.00  0.00    +0.000 OA
ATOM      2  C   UNL     1      -3.404  12.712  20.699  0.00  0.00    +0.000 C 
ATOM      3  N   UNL     1      -2.685  12.315  19.611  0.00  0.00    +0.000 N 
ATOM      4  C   UNL     1      -1.356  11.790  19.809  0.00  0.00    +0.000 C 
ATOM      5  C   UNL     1      -0.816  11.251  18.486  0.00  0.00    +0.000 C 
ATOM      6  C   UNL     1       0.603  10.683  18.655  0.00  0.00    +0.000 C 
ATOM      7  C   UNL     1       1.532  11.697  19.377  0.00  0.00    +0.000 C 
ATOM      8  C   UNL     1       0.922  12.210  20.711  0.00  0.00    +0.000 C 
ATOM      9  C   UNL     1      -0.470  12.855  20.489  0.00  0.00    +0.000 C 
ATOM     10  C   UNL     1      -1.196  13.345  21.758  0.00  0.00    +0.000 A 
ATOM     11  C   UNL     1      -0.552  14.090  22.766  0.00  0.00    +0.000 A 
ATOM     12  C   UNL     1      -1.298  14.468  23.868  0.00  0.00    +0.000 A 
ATOM     13  C   UNL     1      -2.592  14.041  24.056  0.00  0.00    +0.000 A 
ATOM     14  C   UNL     1      -3.267  13.329  23.105  0.00  0.00    +0.000 A 
ATOM     15  C   UNL     1      -2.605  13.083  21.901  0.00  0.00    +0.000 A 
ATOM     16  O   UNL     1      -3.144  14.513  25.210  0.00  0.00    +0.000 OA
ATOM     17  C   UNL     1      -2.203  15.566  25.486  0.00  0.00    +0.000 C 
ATOM     18  O   UNL     1      -0.914  15.320  24.862  0.00  0.00    +0.000 OA
ATOM     19  H   UNL     1      -3.270  11.896  18.892  0.00  0.00    +0.000 HD
ENDROOT
BRANCH   6  20
ATOM     20  O   UNL     1       0.531   9.420  19.341  0.00  0.00    +0.000 OA
ATOM     21  H   UNL     1       0.822   9.574  20.270  0.00  0.00    +0.000 HD
ENDBRANCH   6  20
BRANCH   7  22
ATOM     22  O   UNL     1       1.875  12.798  18.533  0.00  0.00    +0.000 OA
ATOM     23  H   UNL     1       2.187  13.559  19.049  0.00  0.00    +0.000 HD
ENDBRANCH   7  22
BRANCH   8  24
ATOM     24  O   UNL     1       0.803  11.073  21.580  0.00  0.00    +0.000 OA
ATOM     25  H   UNL     1      -0.122  10.760  21.538  0.00  0.00    +0.000 HD
ENDBRANCH   8  24
BRANCH  14  26
ATOM     26  O   UNL     1      -4.545  12.933  23.343  0.00  0.00    +0.000 OA
ATOM     27  H   UNL     1      -5.116  13.717  23.270  0.00  0.00    +0.000 HD
ENDBRANCH  14  26
BRANCH   5  28
ATOM     28  O   UNL     1      -1.782  10.278  18.105  0.00  0.00    +0.000 OA
BRANCH  28  29
ATOM     29  P   UNL     1      -2.682  10.454  16.807  0.00  0.00    +0.000 P 
ATOM     30  O   UNL     1      -2.653   9.332  15.830  0.00  0.00    +0.000 OA
BRANCH  29  31
ATOM     31  O   UNL     1      -4.102  10.830  17.429  0.00  0.00    +0.000 OA
ATOM     32  H   UNL     1      -4.530  10.038  17.817  0.00  0.00    +0.000 HD
ENDBRANCH  29  31
BRANCH  29  33
ATOM     33  O   UNL     1      -2.160  11.868  16.277  0.00  0.00    +0.000 OA
ATOM     34  H   UNL     1      -1.192  11.933  16.303  0.00  0.00    +0.000 HD
ENDBRANCH  29  33
ENDBRANCH  28  29
ENDBRANCH   5  28
TORSDOF 8
ENDMDL
MODEL 8
REMARK VINA RESULT:      -6.3      9.164     11.379
REMARK  Name = 
REMARK  8 active torsions:
REMARK  status: ('A' for Active; 'I' for Inactive)
REMARK    1  A    between atoms: C_5  and  O_6
REMARK    2  A    between atoms: O_6  and  P_7
REMARK    3  A    between atoms: P_7  and  O_9
REMARK    4  A    between atoms: P_7  and  O_10
REMARK    5  A    between atoms: C_11  and  O_12
REMARK    6  A    between atoms: C_13  and  O_14
REMARK    7  A    between atoms: C_15  and  O_16
REMARK    8  A    between atoms: C_22  and  O_23
REMARK                            x       y       z     vdW  Elec       q    Type
REMARK                         _______ _______ _______ _____ _____    ______ ____
ROOT
ATOM      1  O   UNL     1      -1.164  12.956  19.559  0.00  0.00    +0.000 OA
ATOM      2  C   UNL     1      -2.366  12.895  19.794  0.00  0.00    +0.000 C 
ATOM      3  N   UNL     1      -3.159  12.081  19.042  0.00  0.00    +0.000 N 
ATOM      4  C   UNL     1      -4.581  12.324  19.016  0.00  0.00    +0.000 C 
ATOM      5  C   UNL     1      -5.238  11.414  17.982  0.00  0.00    +0.000 C 
ATOM      6  C   UNL     1      -6.759  11.642  17.926  0.00  0.00    +0.000 C 
ATOM      7  C   UNL     1      -7.388  11.585  19.344  0.00  0.00    +0.000 C 
ATOM      8  C   UNL     1      -6.670  12.529  20.348  0.00  0.00    +0.000 C 
ATOM      9  C   UNL     1      -5.156  12.212  20.444  0.00  0.00    +0.000 C 
ATOM     10  C   UNL     1      -4.332  13.130  21.368  0.00  0.00    +0.000 A 
ATOM     11  C   UNL     1      -4.760  13.496  22.661  0.00  0.00    +0.000 A 
ATOM     12  C   UNL     1      -3.944  14.335  23.398  0.00  0.00    +0.000 A 
ATOM     13  C   UNL     1      -2.811  14.906  22.868  0.00  0.00    +0.000 A 
ATOM     14  C   UNL     1      -2.345  14.576  21.627  0.00  0.00    +0.000 A 
ATOM     15  C   UNL     1      -3.043  13.595  20.922  0.00  0.00    +0.000 A 
ATOM     16  O   UNL     1      -2.158  15.712  23.754  0.00  0.00    +0.000 OA
ATOM     17  C   UNL     1      -2.788  15.257  24.965  0.00  0.00    +0.000 C 
ATOM     18  O   UNL     1      -4.093  14.671  24.712  0.00  0.00    +0.000 OA
ATOM     19  H   UNL     1      -2.704  11.780  18.184  0.00  0.00    +0.000 HD
ENDROOT
BRANCH   6  20
ATOM     20  O   UNL     1      -7.027  12.888  17.257  0.00  0.00    +0.000 OA
ATOM     21  H   UNL     1      -7.397  12.671  16.370  0.00  0.00    +0.000 HD
ENDBRANCH   6  20
BRANCH   7  22
ATOM     22  O   UNL     1      -7.424  10.251  19.857  0.00  0.00    +0.000 OA
ATOM     23  H   UNL     1      -6.614   9.762  19.635  0.00  0.00    +0.000 HD
ENDBRANCH   7  22
BRANCH   8  24
ATOM     24  O   UNL     1      -6.860  13.870  19.870  0.00  0.00    +0.000 OA
ATOM     25  H   UNL     1      -6.308  14.464  20.415  0.00  0.00    +0.000 HD
ENDBRANCH   8  24
BRANCH  14  26
ATOM     26  O   UNL     1      -1.218  15.171  21.152  0.00  0.00    +0.000 OA
ATOM     27  H   UNL     1      -0.832  15.692  21.876  0.00  0.00    +0.000 HD
ENDBRANCH  14  26
BRANCH   5  28
ATOM     28  O   UNL     1      -4.564  11.742  16.773  0.00  0.00    +0.000 OA
BRANCH  28  29
ATOM     29  P   UNL     1      -3.516  10.753  16.103  0.00  0.00    +0.000 P 
ATOM     30  O   UNL     1      -3.866  10.241  14.750  0.00  0.00    +0.000 OA
BRANCH  29  31
ATOM     31  O   UNL     1      -2.151  11.568  16.233  0.00  0.00    +0.000 OA
ATOM     32  H   UNL     1      -1.382  10.960  16.220  0.00  0.00    +0.000 HD
ENDBRANCH  29  31
BRANCH  29  33
ATOM     33  O   UNL     1      -3.365   9.658  17.258  0.00  0.00    +0.000 OA
ATOM     34  H   UNL     1      -4.158   9.604  17.815  0.00  0.00    +0.000 HD
ENDBRANCH  29  33
ENDBRANCH  28  29
ENDBRANCH   5  28
TORSDOF 8
ENDMDL
MODEL 9
REMARK VINA RESULT:      -6.3      8.917     11.672
REMARK  Name = 
REMARK  8 active torsions:
REMARK  status: ('A' for Active; 'I' for Inactive)
REMARK    1  A    between atoms: C_5  and  O_6
REMARK    2  A    between atoms: O_6  and  P_7
REMARK    3  A    between atoms: P_7  and  O_9
REMARK    4  A    between atoms: P_7  and  O_10
REMARK    5  A    between atoms: C_11  and  O_12
REMARK    6  A    between atoms: C_13  and  O_14
REMARK    7  A    between atoms: C_15  and  O_16
REMARK    8  A    between atoms: C_22  and  O_23
REMARK                            x       y       z     vdW  Elec       q    Type
REMARK                         _______ _______ _______ _____ _____    ______ ____
ROOT
ATOM      1  O   UNL     1      -7.058  11.495  19.481  0.00  0.00    +0.000 OA
ATOM      2  C   UNL     1      -5.914  11.860  19.732  0.00  0.00    +0.000 C 
ATOM      3  N   UNL     1      -5.590  12.231  21.003  0.00  0.00    +0.000 N 
ATOM      4  C   UNL     1      -4.421  13.051  21.211  0.00  0.00    +0.000 C 
ATOM      5  C   UNL     1      -4.354  13.486  22.673  0.00  0.00    +0.000 C 
ATOM      6  C   UNL     1      -3.118  14.362  22.937  0.00  0.00    +0.000 C 
ATOM      7  C   UNL     1      -1.827  13.692  22.393  0.00  0.00    +0.000 C 
ATOM      8  C   UNL     1      -1.964  13.269  20.903  0.00  0.00    +0.000 C 
ATOM      9  C   UNL     1      -3.167  12.316  20.691  0.00  0.00    +0.000 C 
ATOM     10  C   UNL     1      -3.434  11.881  19.236  0.00  0.00    +0.000 A 
ATOM     11  C   UNL     1      -2.410  11.452  18.368  0.00  0.00    +0.000 A 
ATOM     12  C   UNL     1      -2.763  11.095  17.079  0.00  0.00    +0.000 A 
ATOM     13  C   UNL     1      -4.041  11.260  16.598  0.00  0.00    +0.000 A 
ATOM     14  C   UNL     1      -5.073  11.659  17.400  0.00  0.00    +0.000 A 
ATOM     15  C   UNL     1      -4.791  11.854  18.753  0.00  0.00    +0.000 A 
ATOM     16  O   UNL     1      -4.175  10.862  15.301  0.00  0.00    +0.000 OA
ATOM     17  C   UNL     1      -2.967  10.088  15.185  0.00  0.00    +0.000 C 
ATOM     18  O   UNL     1      -1.961  10.506  16.146  0.00  0.00    +0.000 OA
ATOM     19  H   UNL     1      -6.410  12.401  21.579  0.00  0.00    +0.000 HD
ENDROOT
BRANCH   6  20
ATOM     20  O   UNL     1      -3.335  15.670  22.376  0.00  0.00    +0.000 OA
ATOM     21  H   UNL     1      -3.453  15.556  21.405  0.00  0.00    +0.000 HD
ENDBRANCH   6  20
BRANCH   7  22
ATOM     22  O   UNL     1      -1.432  12.575  23.191  0.00  0.00    +0.000 OA
ATOM     23  H   UNL     1      -1.367  12.813  24.131  0.00  0.00    +0.000 HD
ENDBRANCH   7  22
BRANCH   8  24
ATOM     24  O   UNL     1      -2.152  14.473  20.143  0.00  0.00    +0.000 OA
ATOM     25  H   UNL     1      -3.048  14.444  19.755  0.00  0.00    +0.000 HD
ENDBRANCH   8  24
BRANCH  14  26
ATOM     26  O   UNL     1      -6.317  11.804  16.873  0.00  0.00    +0.000 OA
ATOM     27  H   UNL     1      -6.647  10.918  16.646  0.00  0.00    +0.000 HD
ENDBRANCH  14  26
BRANCH   5  28
ATOM     28  O   UNL     1      -5.590  14.161  22.876  0.00  0.00    +0.000 OA
BRANCH  28  29
ATOM     29  P   UNL     1      -6.851  13.428  23.507  0.00  0.00    +0.000 P 
ATOM     30  O   UNL     1      -6.627  12.042  24.000  0.00  0.00    +0.000 OA
BRANCH  29  31
ATOM     31  O   UNL     1      -7.364  14.497  24.575  0.00  0.00    +0.000 OA
ATOM     32  H   UNL     1      -6.660  14.698  25.227  0.00  0.00    +0.000 HD
ENDBRANCH  29  31
BRANCH  29  33
ATOM     33  O   UNL     1      -7.912  13.597  22.325  0.00  0.00    +0.000 OA
ATOM     34  H   UNL     1      -8.807  13.770  22.658  0.00  0.00    +0.000 HD
ENDBRANCH  29  33
ENDBRANCH  28  29
ENDBRANCH   5  28
TORSDOF 8
ENDMDL
