MODEL 1
REMARK VINA RESULT:      -7.8      0.000      0.000
REMARK  Name = 
REMARK  4 active torsions:
REMARK  status: ('A' for Active; 'I' for Inactive)
REMARK    1  A    between atoms: C_2  and  O_3
REMARK    2  A    between atoms: C_2  and  C_4
REMARK    3  A    between atoms: C_4  and  C_5
REMARK    4  A    between atoms: C_15  and  O_16
REMARK                            x       y       z     vdW  Elec       q    Type
REMARK                         _______ _______ _______ _____ _____    ______ ____
ROOT
ATOM      1  C   UNL     1       4.649   4.291  16.674  0.00  0.00    +0.000 C 
ATOM      2  C   UNL     1       4.851   5.773  17.082  0.00  0.00    +0.000 C 
ATOM      3  C   UNL     1       3.768   6.401  17.962  0.00  0.00    +0.000 C 
ATOM      4  C   UNL     1       3.687   5.793  19.360  0.00  0.00    +0.000 C 
ATOM      5  C   UNL     1       2.841   4.547  19.336  0.00  0.00    +0.000 A 
ATOM      6  C   UNL     1       1.581   4.575  19.959  0.00  0.00    +0.000 A 
ATOM      7  C   UNL     1       0.710   3.492  19.862  0.00  0.00    +0.000 A 
ATOM      8  C   UNL     1       1.095   2.360  19.156  0.00  0.00    +0.000 A 
ATOM      9  C   UNL     1       2.351   2.310  18.552  0.00  0.00    +0.000 A 
ATOM     10  C   UNL     1       3.239   3.400  18.626  0.00  0.00    +0.000 A 
ATOM     11  C   UNL     1       4.550   3.315  17.869  0.00  0.00    +0.000 C 
ENDROOT
BRANCH  11  12
ATOM     12  O   UNL     1       5.695   3.455  18.709  0.00  0.00    +0.000 OA
ATOM     13  H   UNL     1       6.409   2.924  18.310  0.00  0.00    +0.000 HD
ENDBRANCH  11  12
BRANCH   1  14
ATOM     14  C   UNL     1       5.828   3.911  15.747  0.00  0.00    +0.000 C 
BRANCH  14  16
ATOM     15  O   UNL     1       7.418   5.698  15.395  0.00  0.00    +0.000 OA
ATOM     16  C   UNL     1       7.101   4.691  16.008  0.00  0.00    +0.000 C 
BRANCH  16  17
ATOM     17  O   UNL     1       7.871   4.146  16.971  0.00  0.00    +0.000 OA
ATOM     18  H   UNL     1       8.827   4.345  16.877  0.00  0.00    +0.000 HD
ENDBRANCH  16  17
ENDBRANCH  14  16
ENDBRANCH   1  14
TORSDOF 4
ENDMDL
MODEL 2
REMARK VINA RESULT:      -7.3      1.215      1.475
REMARK  Name = 
REMARK  4 active torsions:
REMARK  status: ('A' for Active; 'I' for Inactive)
REMARK    1  A    between atoms: C_2  and  O_3
REMARK    2  A    between atoms: C_2  and  C_4
REMARK    3  A    between atoms: C_4  and  C_5
REMARK    4  A    between atoms: C_15  and  O_16
REMARK                            x       y       z     vdW  Elec       q    Type
REMARK                         _______ _______ _______ _____ _____    ______ ____
ROOT
ATOM      1  C   UNL     1       4.548   5.515  17.385  0.00  0.00    +0.000 C 
ATOM      2  C   UNL     1       3.929   6.921  17.585  0.00  0.00    +0.000 C 
ATOM      3  C   UNL     1       2.548   6.980  18.244  0.00  0.00    +0.000 C 
ATOM      4  C   UNL     1       2.545   6.525  19.701  0.00  0.00    +0.000 C 
ATOM      5  C   UNL     1       2.436   5.024  19.776  0.00  0.00    +0.000 A 
ATOM      6  C   UNL     1       1.240   4.459  20.252  0.00  0.00    +0.000 A 
ATOM      7  C   UNL     1       1.040   3.080  20.228  0.00  0.00    +0.000 A 
ATOM      8  C   UNL     1       2.041   2.248  19.744  0.00  0.00    +0.000 A 
ATOM      9  C   UNL     1       3.241   2.794  19.288  0.00  0.00    +0.000 A 
ATOM     10  C   UNL     1       3.454   4.186  19.290  0.00  0.00    +0.000 A 
ATOM     11  C   UNL     1       4.744   4.718  18.695  0.00  0.00    +0.000 C 
ENDROOT
BRANCH  11  12
ATOM     12  O   UNL     1       5.517   5.483  19.619  0.00  0.00    +0.000 OA
ATOM     13  H   UNL     1       5.240   6.413  19.523  0.00  0.00    +0.000 HD
ENDBRANCH  11  12
BRANCH   1  14
ATOM     14  C   UNL     1       5.897   5.713  16.653  0.00  0.00    +0.000 C 
BRANCH  14  16
ATOM     15  O   UNL     1       7.879   4.357  16.928  0.00  0.00    +0.000 OA
ATOM     16  C   UNL     1       6.729   4.452  16.531  0.00  0.00    +0.000 C 
BRANCH  16  17
ATOM     17  O   UNL     1       6.082   3.446  15.909  0.00  0.00    +0.000 OA
ATOM     18  H   UNL     1       5.301   3.111  16.400  0.00  0.00    +0.000 HD
ENDBRANCH  16  17
ENDBRANCH  14  16
ENDBRANCH   1  14
TORSDOF 4
ENDMDL
MODEL 3
REMARK VINA RESULT:      -7.2      1.152      1.243
REMARK  Name = 
REMARK  4 active torsions:
REMARK  status: ('A' for Active; 'I' for Inactive)
REMARK    1  A    between atoms: C_2  and  O_3
REMARK    2  A    between atoms: C_2  and  C_4
REMARK    3  A    between atoms: C_4  and  C_5
REMARK    4  A    between atoms: C_15  and  O_16
REMARK                            x       y       z     vdW  Elec       q    Type
REMARK                         _______ _______ _______ _____ _____    ______ ____
ROOT
ATOM      1  C   UNL     1       5.449   4.962  16.855  0.00  0.00    +0.000 C 
ATOM      2  C   UNL     1       5.126   6.433  17.220  0.00  0.00    +0.000 C 
ATOM      3  C   UNL     1       3.701   6.731  17.691  0.00  0.00    +0.000 C 
ATOM      4  C   UNL     1       3.353   6.087  19.031  0.00  0.00    +0.000 C 
ATOM      5  C   UNL     1       2.908   4.663  18.823  0.00  0.00    +0.000 A 
ATOM      6  C   UNL     1       1.555   4.342  19.031  0.00  0.00    +0.000 A 
ATOM      7  C   UNL     1       1.067   3.071  18.736  0.00  0.00    +0.000 A 
ATOM      8  C   UNL     1       1.929   2.099  18.247  0.00  0.00    +0.000 A 
ATOM      9  C   UNL     1       3.278   2.397  18.057  0.00  0.00    +0.000 A 
ATOM     10  C   UNL     1       3.786   3.680  18.334  0.00  0.00    +0.000 A 
ATOM     11  C   UNL     1       5.243   3.963  18.017  0.00  0.00    +0.000 C 
ENDROOT
BRANCH  11  12
ATOM     12  O   UNL     1       5.996   4.378  19.155  0.00  0.00    +0.000 OA
ATOM     13  H   UNL     1       6.581   3.636  19.397  0.00  0.00    +0.000 HD
ENDBRANCH  11  12
BRANCH   1  14
ATOM     14  C   UNL     1       6.912   4.929  16.353  0.00  0.00    +0.000 C 
BRANCH  14  16
ATOM     15  O   UNL     1       7.663   5.451  14.115  0.00  0.00    +0.000 OA
ATOM     16  C   UNL     1       7.052   4.703  14.861  0.00  0.00    +0.000 C 
BRANCH  16  17
ATOM     17  O   UNL     1       6.407   3.602  14.427  0.00  0.00    +0.000 OA
ATOM     18  H   UNL     1       5.824   3.190  15.100  0.00  0.00    +0.000 HD
ENDBRANCH  16  17
ENDBRANCH  14  16
ENDBRANCH   1  14
TORSDOF 4
ENDMDL
MODEL 4
REMARK VINA RESULT:      -7.2      0.696      1.046
REMARK  Name = 
REMARK  4 active torsions:
REMARK  status: ('A' for Active; 'I' for Inactive)
REMARK    1  A    between atoms: C_2  and  O_3
REMARK    2  A    between atoms: C_2  and  C_4
REMARK    3  A    between atoms: C_4  and  C_5
REMARK    4  A    between atoms: C_15  and  O_16
REMARK                            x       y       z     vdW  Elec       q    Type
REMARK                         _______ _______ _______ _____ _____    ______ ____
ROOT
ATOM      1  C   UNL     1       4.691   4.543  16.072  0.00  0.00    +0.000 C 
ATOM      2  C   UNL     1       4.989   6.010  16.473  0.00  0.00    +0.000 C 
ATOM      3  C   UNL     1       4.001   6.678  17.432  0.00  0.00    +0.000 C 
ATOM      4  C   UNL     1       3.994   6.061  18.829  0.00  0.00    +0.000 C 
ATOM      5  C   UNL     1       3.093   4.854  18.859  0.00  0.00    +0.000 A 
ATOM      6  C   UNL     1       1.884   4.933  19.571  0.00  0.00    +0.000 A 
ATOM      7  C   UNL     1       0.960   3.891  19.531  0.00  0.00    +0.000 A 
ATOM      8  C   UNL     1       1.241   2.749  18.793  0.00  0.00    +0.000 A 
ATOM      9  C   UNL     1       2.447   2.649  18.099  0.00  0.00    +0.000 A 
ATOM     10  C   UNL     1       3.386   3.698  18.115  0.00  0.00    +0.000 A 
ATOM     11  C   UNL     1       4.634   3.561  17.264  0.00  0.00    +0.000 C 
ENDROOT
BRANCH  11  12
ATOM     12  O   UNL     1       5.842   3.642  18.020  0.00  0.00    +0.000 OA
ATOM     13  H   UNL     1       6.555   3.284  17.459  0.00  0.00    +0.000 HD
ENDBRANCH  11  12
BRANCH   1  14
ATOM     14  C   UNL     1       5.781   4.118  15.059  0.00  0.00    +0.000 C 
BRANCH  14  16
ATOM     15  O   UNL     1       7.821   4.585  16.269  0.00  0.00    +0.000 OA
ATOM     16  C   UNL     1       7.128   4.777  15.284  0.00  0.00    +0.000 C 
BRANCH  16  17
ATOM     17  O   UNL     1       7.477   5.624  14.295  0.00  0.00    +0.000 OA
ATOM     18  H   UNL     1       8.264   6.172  14.499  0.00  0.00    +0.000 HD
ENDBRANCH  16  17
ENDBRANCH  14  16
ENDBRANCH   1  14
TORSDOF 4
ENDMDL
MODEL 5
REMARK VINA RESULT:      -7.1      2.802      5.312
REMARK  Name = 
REMARK  4 active torsions:
REMARK  status: ('A' for Active; 'I' for Inactive)
REMARK    1  A    between atoms: C_2  and  O_3
REMARK    2  A    between atoms: C_2  and  C_4
REMARK    3  A    between atoms: C_4  and  C_5
REMARK    4  A    between atoms: C_15  and  O_16
REMARK                            x       y       z     vdW  Elec       q    Type
REMARK                         _______ _______ _______ _____ _____    ______ ____
ROOT
ATOM      1  C   UNL     1       2.411   4.012  19.563  0.00  0.00    +0.000 C 
ATOM      2  C   UNL     1       1.918   5.390  20.072  0.00  0.00    +0.000 C 
ATOM      3  C   UNL     1       2.719   6.617  19.631  0.00  0.00    +0.000 C 
ATOM      4  C   UNL     1       2.641   6.891  18.131  0.00  0.00    +0.000 C 
ATOM      5  C   UNL     1       3.655   6.055  17.396  0.00  0.00    +0.000 A 
ATOM      6  C   UNL     1       4.765   6.695  16.818  0.00  0.00    +0.000 A 
ATOM      7  C   UNL     1       5.793   5.958  16.234  0.00  0.00    +0.000 A 
ATOM      8  C   UNL     1       5.716   4.572  16.204  0.00  0.00    +0.000 A 
ATOM      9  C   UNL     1       4.609   3.925  16.754  0.00  0.00    +0.000 A 
ATOM     10  C   UNL     1       3.569   4.652  17.363  0.00  0.00    +0.000 A 
ATOM     11  C   UNL     1       2.441   3.881  18.024  0.00  0.00    +0.000 C 
ENDROOT
BRANCH  11  12
ATOM     12  O   UNL     1       1.157   4.189  17.483  0.00  0.00    +0.000 OA
ATOM     13  H   UNL     1       1.304   4.743  16.694  0.00  0.00    +0.000 HD
ENDBRANCH  11  12
BRANCH   1  14
ATOM     14  C   UNL     1       1.487   2.940  20.190  0.00  0.00    +0.000 C 
BRANCH  14  16
ATOM     15  O   UNL     1       3.006   2.337  21.972  0.00  0.00    +0.000 OA
ATOM     16  C   UNL     1       1.861   2.549  21.605  0.00  0.00    +0.000 C 
BRANCH  16  17
ATOM     17  O   UNL     1       0.796   2.427  22.422  0.00  0.00    +0.000 OA
ATOM     18  H   UNL     1       0.120   1.791  22.104  0.00  0.00    +0.000 HD
ENDBRANCH  16  17
ENDBRANCH  14  16
ENDBRANCH   1  14
TORSDOF 4
ENDMDL
MODEL 6
REMARK VINA RESULT:      -7.1      1.664      2.400
REMARK  Name = 
REMARK  4 active torsions:
REMARK  status: ('A' for Active; 'I' for Inactive)
REMARK    1  A    between atoms: C_2  and  O_3
REMARK    2  A    between atoms: C_2  and  C_4
REMARK    3  A    between atoms: C_4  and  C_5
REMARK    4  A    between atoms: C_15  and  O_16
REMARK                            x       y       z     vdW  Elec       q    Type
REMARK                         _______ _______ _______ _____ _____    ______ ____
ROOT
ATOM      1  C   UNL     1       4.858   4.964  18.400  0.00  0.00    +0.000 C 
ATOM      2  C   UNL     1       4.337   4.573  16.994  0.00  0.00    +0.000 C 
ATOM      3  C   UNL     1       3.181   3.571  16.940  0.00  0.00    +0.000 C 
ATOM      4  C   UNL     1       1.876   4.110  17.520  0.00  0.00    +0.000 C 
ATOM      5  C   UNL     1       1.861   3.935  19.016  0.00  0.00    +0.000 A 
ATOM      6  C   UNL     1       0.986   2.988  19.575  0.00  0.00    +0.000 A 
ATOM      7  C   UNL     1       1.018   2.699  20.938  0.00  0.00    +0.000 A 
ATOM      8  C   UNL     1       1.913   3.367  21.762  0.00  0.00    +0.000 A 
ATOM      9  C   UNL     1       2.772   4.326  21.224  0.00  0.00    +0.000 A 
ATOM     10  C   UNL     1       2.765   4.619  19.847  0.00  0.00    +0.000 A 
ATOM     11  C   UNL     1       3.789   5.604  19.315  0.00  0.00    +0.000 C 
ENDROOT
BRANCH  11  12
ATOM     12  O   UNL     1       3.201   6.730  18.664  0.00  0.00    +0.000 OA
ATOM     13  H   UNL     1       2.455   6.395  18.132  0.00  0.00    +0.000 HD
ENDBRANCH  11  12
BRANCH   1  14
ATOM     14  C   UNL     1       6.052   5.926  18.191  0.00  0.00    +0.000 C 
BRANCH  14  16
ATOM     15  O   UNL     1       7.481   5.825  16.244  0.00  0.00    +0.000 OA
ATOM     16  C   UNL     1       7.160   5.360  17.326  0.00  0.00    +0.000 C 
BRANCH  16  17
ATOM     17  O   UNL     1       7.745   4.268  17.857  0.00  0.00    +0.000 OA
ATOM     18  H   UNL     1       8.671   4.130  17.565  0.00  0.00    +0.000 HD
ENDBRANCH  16  17
ENDBRANCH  14  16
ENDBRANCH   1  14
TORSDOF 4
ENDMDL
MODEL 7
REMARK VINA RESULT:      -7.0      2.172      2.641
REMARK  Name = 
REMARK  4 active torsions:
REMARK  status: ('A' for Active; 'I' for Inactive)
REMARK    1  A    between atoms: C_2  and  O_3
REMARK    2  A    between atoms: C_2  and  C_4
REMARK    3  A    between atoms: C_4  and  C_5
REMARK    4  A    between atoms: C_15  and  O_16
REMARK                            x       y       z     vdW  Elec       q    Type
REMARK                         _______ _______ _______ _____ _____    ______ ____
ROOT
ATOM      1  C   UNL     1       5.359   4.559  14.974  0.00  0.00    +0.000 C 
ATOM      2  C   UNL     1       5.731   6.046  15.201  0.00  0.00    +0.000 C 
ATOM      3  C   UNL     1       4.793   6.865  16.091  0.00  0.00    +0.000 C 
ATOM      4  C   UNL     1       4.782   6.412  17.549  0.00  0.00    +0.000 C 
ATOM      5  C   UNL     1       3.827   5.261  17.727  0.00  0.00    +0.000 A 
ATOM      6  C   UNL     1       2.636   5.478  18.441  0.00  0.00    +0.000 A 
ATOM      7  C   UNL     1       1.664   4.484  18.532  0.00  0.00    +0.000 A 
ATOM      8  C   UNL     1       1.879   3.254  17.926  0.00  0.00    +0.000 A 
ATOM      9  C   UNL     1       3.066   3.017  17.233  0.00  0.00    +0.000 A 
ATOM     10  C   UNL     1       4.053   4.015  17.116  0.00  0.00    +0.000 A 
ATOM     11  C   UNL     1       5.278   3.723  16.271  0.00  0.00    +0.000 C 
ENDROOT
BRANCH  11  12
ATOM     12  O   UNL     1       6.501   3.831  16.998  0.00  0.00    +0.000 OA
ATOM     13  H   UNL     1       6.784   4.763  16.945  0.00  0.00    +0.000 HD
ENDBRANCH  11  12
BRANCH   1  14
ATOM     14  C   UNL     1       6.410   3.971  14.003  0.00  0.00    +0.000 C 
BRANCH  14  16
ATOM     15  O   UNL     1       4.708   3.673  12.311  0.00  0.00    +0.000 OA
ATOM     16  C   UNL     1       5.826   3.407  12.723  0.00  0.00    +0.000 C 
BRANCH  16  17
ATOM     17  O   UNL     1       6.656   2.553  12.092  0.00  0.00    +0.000 OA
ATOM     18  H   UNL     1       6.599   2.591  11.113  0.00  0.00    +0.000 HD
ENDBRANCH  16  17
ENDBRANCH  14  16
ENDBRANCH   1  14
TORSDOF 4
ENDMDL
MODEL 8
REMARK VINA RESULT:      -7.0      1.175      1.277
REMARK  Name = 
REMARK  4 active torsions:
REMARK  status: ('A' for Active; 'I' for Inactive)
REMARK    1  A    between atoms: C_2  and  O_3
REMARK    2  A    between atoms: C_2  and  C_4
REMARK    3  A    between atoms: C_4  and  C_5
REMARK    4  A    between atoms: C_15  and  O_16
REMARK                            x       y       z     vdW  Elec       q    Type
REMARK                         _______ _______ _______ _____ _____    ______ ____
ROOT
ATOM      1  C   UNL     1       5.214   4.603  17.455  0.00  0.00    +0.000 C 
ATOM      2  C   UNL     1       4.867   6.104  17.289  0.00  0.00    +0.000 C 
ATOM      3  C   UNL     1       3.482   6.550  17.763  0.00  0.00    +0.000 C 
ATOM      4  C   UNL     1       3.288   6.441  19.274  0.00  0.00    +0.000 C 
ATOM      5  C   UNL     1       2.884   5.038  19.646  0.00  0.00    +0.000 A 
ATOM      6  C   UNL     1       1.571   4.812  20.094  0.00  0.00    +0.000 A 
ATOM      7  C   UNL     1       1.109   3.519  20.334  0.00  0.00    +0.000 A 
ATOM      8  C   UNL     1       1.960   2.438  20.148  0.00  0.00    +0.000 A 
ATOM      9  C   UNL     1       3.273   2.651  19.725  0.00  0.00    +0.000 A 
ATOM     10  C   UNL     1       3.752   3.948  19.461  0.00  0.00    +0.000 A 
ATOM     11  C   UNL     1       5.159   4.100  18.915  0.00  0.00    +0.000 C 
ENDROOT
BRANCH  11  12
ATOM     12  O   UNL     1       5.999   4.906  19.741  0.00  0.00    +0.000 OA
ATOM     13  H   UNL     1       6.682   4.318  20.114  0.00  0.00    +0.000 HD
ENDBRANCH  11  12
BRANCH   1  14
ATOM     14  C   UNL     1       6.624   4.394  16.852  0.00  0.00    +0.000 C 
BRANCH  14  16
ATOM     15  O   UNL     1       7.495   5.463  14.867  0.00  0.00    +0.000 OA
ATOM     16  C   UNL     1       6.711   4.671  15.365  0.00  0.00    +0.000 C 
BRANCH  16  17
ATOM     17  O   UNL     1       5.811   3.976  14.641  0.00  0.00    +0.000 OA
ATOM     18  H   UNL     1       5.474   3.172  15.090  0.00  0.00    +0.000 HD
ENDBRANCH  16  17
ENDBRANCH  14  16
ENDBRANCH   1  14
TORSDOF 4
ENDMDL
MODEL 9
REMARK VINA RESULT:      -6.9      0.997      1.032
REMARK  Name = 
REMARK  4 active torsions:
REMARK  status: ('A' for Active; 'I' for Inactive)
REMARK    1  A    between atoms: C_2  and  O_3
REMARK    2  A    between atoms: C_2  and  C_4
REMARK    3  A    between atoms: C_4  and  C_5
REMARK    4  A    between atoms: C_15  and  O_16
REMARK                            x       y       z     vdW  Elec       q    Type
REMARK                         _______ _______ _______ _____ _____    ______ ____
ROOT
ATOM      1  C   UNL     1       4.825   4.879  17.184  0.00  0.00    +0.000 C 
ATOM      2  C   UNL     1       4.497   6.360  17.503  0.00  0.00    +0.000 C 
ATOM      3  C   UNL     1       3.143   6.642  18.159  0.00  0.00    +0.000 C 
ATOM      4  C   UNL     1       3.018   6.076  19.571  0.00  0.00    +0.000 C 
ATOM      5  C   UNL     1       2.607   4.628  19.516  0.00  0.00    +0.000 A 
ATOM      6  C   UNL     1       1.313   4.278  19.938  0.00  0.00    +0.000 A 
ATOM      7  C   UNL     1       0.840   2.975  19.794  0.00  0.00    +0.000 A 
ATOM      8  C   UNL     1       1.662   2.001  19.243  0.00  0.00    +0.000 A 
ATOM      9  C   UNL     1       2.957   2.330  18.841  0.00  0.00    +0.000 A 
ATOM     10  C   UNL     1       3.446   3.644  18.963  0.00  0.00    +0.000 A 
ATOM     11  C   UNL     1       4.829   3.952  18.421  0.00  0.00    +0.000 C 
ENDROOT
BRANCH  11  12
ATOM     12  O   UNL     1       5.720   4.464  19.410  0.00  0.00    +0.000 OA
ATOM     13  H   UNL     1       5.836   3.765  20.080  0.00  0.00    +0.000 HD
ENDBRANCH  11  12
BRANCH   1  14
ATOM     14  C   UNL     1       6.200   4.860  16.476  0.00  0.00    +0.000 C 
BRANCH  14  16
ATOM     15  O   UNL     1       7.624   6.223  17.876  0.00  0.00    +0.000 OA
ATOM     16  C   UNL     1       7.375   5.130  17.394  0.00  0.00    +0.000 C 
BRANCH  16  17
ATOM     17  O   UNL     1       8.144   4.043  17.608  0.00  0.00    +0.000 OA
ATOM     18  H   UNL     1       8.502   3.981  18.518  0.00  0.00    +0.000 HD
ENDBRANCH  16  17
ENDBRANCH  14  16
ENDBRANCH   1  14
TORSDOF 4
ENDMDL
