MODEL 1
REMARK VINA RESULT:      -7.8      0.000      0.000
REMARK  Name = 
REMARK  6 active torsions:
REMARK  status: ('A' for Active; 'I' for Inactive)
REMARK    1  A    between atoms: C_1  and  O_2
REMARK    2  A    between atoms: O_2  and  C_3
REMARK    3  A    between atoms: C_6  and  N_7
REMARK    4  A    between atoms: C_8  and  C_10
REMARK    5  A    between atoms: N_13  and  C_14
REMARK    6  A    between atoms: C_20  and  C_21
REMARK                            x       y       z     vdW  Elec       q    Type
REMARK                         _______ _______ _______ _____ _____    ______ ____
ROOT
ATOM      1  C   UNL     1       0.160   9.971  19.502  0.00  0.00    +0.000 C 
ATOM      2  C   UNL     1       0.590   8.841  20.449  0.00  0.00    +0.000 C 
ATOM      3  C   UNL     1       2.020   8.371  20.183  0.00  0.00    +0.000 C 
ATOM      4  N   UNL     1       2.160   8.046  18.770  0.00  0.00    +0.000 N 
ATOM      5  C   UNL     1       1.860   9.095  17.812  0.00  0.00    +0.000 C 
ATOM      6  C   UNL     1       0.436   9.599  18.040  0.00  0.00    +0.000 C 
ENDROOT
BRANCH   4   7
ATOM      7  C   UNL     1       2.886   6.917  18.431  0.00  0.00    +0.000 A 
ATOM      8  N   UNL     1       3.839   7.074  17.466  0.00  0.00    +0.000 NA
ATOM      9  C   UNL     1       4.687   6.080  17.158  0.00  0.00    +0.000 A 
ATOM     10  C   UNL     1       4.680   4.839  17.751  0.00  0.00    +0.000 A 
ATOM     11  C   UNL     1       3.681   4.630  18.705  0.00  0.00    +0.000 A 
ATOM     12  S   UNL     1       3.421   3.176  19.600  0.00  0.00    +0.000 S 
ATOM     13  C   UNL     1       2.065   3.814  20.399  0.00  0.00    +0.000 A 
ATOM     14  C   UNL     1       1.299   3.016  21.396  0.00  0.00    +0.000 C 
ATOM     15  C   UNL     1       1.809   5.102  19.992  0.00  0.00    +0.000 A 
ATOM     16  C   UNL     1       2.765   5.630  19.046  0.00  0.00    +0.000 A 
ENDBRANCH   4   7
BRANCH   1  18
ATOM     17  N   UNL     1       0.908  12.167  18.777  0.00  0.00    +0.000 N 
ATOM     18  C   UNL     1       0.819  11.305  19.857  0.00  0.00    +0.000 C 
ATOM     19  O   UNL     1       1.232  11.531  20.988  0.00  0.00    +0.000 OA
ATOM     20  H   UNL     1       0.520  11.842  17.900  0.00  0.00    +0.000 HD
BRANCH  17  24
ATOM     21  C   UNL     1       2.986  15.862  18.715  0.00  0.00    +0.000 A 
ATOM     22  C   UNL     1       1.656  15.815  19.144  0.00  0.00    +0.000 A 
ATOM     23  C   UNL     1       0.939  14.615  19.156  0.00  0.00    +0.000 A 
ATOM     24  C   UNL     1       1.543  13.427  18.750  0.00  0.00    +0.000 A 
ATOM     25  C   UNL     1       2.874  13.467  18.320  0.00  0.00    +0.000 A 
ATOM     26  C   UNL     1       3.599  14.671  18.311  0.00  0.00    +0.000 A 
ATOM     27 CL   UNL     1       5.264  14.541  17.867  0.00  0.00    +0.000 Cl
BRANCH  21  29
ATOM     28  C   UNL     1       4.298  17.340  20.035  0.00  0.00    +0.000 C 
ATOM     29  O   UNL     1       3.553  17.099  18.848  0.00  0.00    +0.000 OA
ENDBRANCH  21  29
ENDBRANCH  17  24
ENDBRANCH   1  18
TORSDOF 4
ENDMDL
MODEL 2
REMARK VINA RESULT:      -7.7      3.949      5.104
REMARK  Name = 
REMARK  6 active torsions:
REMARK  status: ('A' for Active; 'I' for Inactive)
REMARK    1  A    between atoms: C_1  and  O_2
REMARK    2  A    between atoms: O_2  and  C_3
REMARK    3  A    between atoms: C_6  and  N_7
REMARK    4  A    between atoms: C_8  and  C_10
REMARK    5  A    between atoms: N_13  and  C_14
REMARK    6  A    between atoms: C_20  and  C_21
REMARK                            x       y       z     vdW  Elec       q    Type
REMARK                         _______ _______ _______ _____ _____    ______ ____
ROOT
ATOM      1  C   UNL     1       1.400  10.056  19.565  0.00  0.00    +0.000 C 
ATOM      2  C   UNL     1       2.088   9.997  18.195  0.00  0.00    +0.000 C 
ATOM      3  C   UNL     1       1.985   8.613  17.551  0.00  0.00    +0.000 C 
ATOM      4  N   UNL     1       2.457   7.611  18.496  0.00  0.00    +0.000 N 
ATOM      5  C   UNL     1       1.792   7.545  19.785  0.00  0.00    +0.000 C 
ATOM      6  C   UNL     1       1.869   8.909  20.468  0.00  0.00    +0.000 C 
ENDROOT
BRANCH   4   7
ATOM      7  C   UNL     1       3.242   6.578  18.012  0.00  0.00    +0.000 A 
ATOM      8  N   UNL     1       4.458   6.927  17.500  0.00  0.00    +0.000 NA
ATOM      9  C   UNL     1       5.350   5.995  17.128  0.00  0.00    +0.000 A 
ATOM     10  C   UNL     1       5.137   4.638  17.209  0.00  0.00    +0.000 A 
ATOM     11  C   UNL     1       3.880   4.250  17.679  0.00  0.00    +0.000 A 
ATOM     12  S   UNL     1       3.327   2.626  17.876  0.00  0.00    +0.000 S 
ATOM     13  C   UNL     1       1.792   3.125  18.402  0.00  0.00    +0.000 A 
ATOM     14  C   UNL     1       0.734   2.144  18.771  0.00  0.00    +0.000 C 
ATOM     15  C   UNL     1       1.696   4.497  18.424  0.00  0.00    +0.000 A 
ATOM     16  C   UNL     1       2.913   5.185  18.062  0.00  0.00    +0.000 A 
ENDBRANCH   4   7
BRANCH   1  18
ATOM     17  N   UNL     1      -0.571  10.650  18.272  0.00  0.00    +0.000 N 
ATOM     18  C   UNL     1      -0.125  10.066  19.446  0.00  0.00    +0.000 C 
ATOM     19  O   UNL     1      -0.837   9.614  20.335  0.00  0.00    +0.000 OA
ATOM     20  H   UNL     1       0.137  10.978  17.628  0.00  0.00    +0.000 HD
BRANCH  17  24
ATOM     21  C   UNL     1      -4.544  11.387  16.990  0.00  0.00    +0.000 A 
ATOM     22  C   UNL     1      -4.117  11.844  18.240  0.00  0.00    +0.000 A 
ATOM     23  C   UNL     1      -2.819  11.599  18.698  0.00  0.00    +0.000 A 
ATOM     24  C   UNL     1      -1.912  10.899  17.907  0.00  0.00    +0.000 A 
ATOM     25  C   UNL     1      -2.333  10.439  16.654  0.00  0.00    +0.000 A 
ATOM     26  C   UNL     1      -3.635  10.688  16.189  0.00  0.00    +0.000 A 
ATOM     27 CL   UNL     1      -3.969  10.161  14.578  0.00  0.00    +0.000 Cl
BRANCH  21  29
ATOM     28  C   UNL     1      -6.299  12.955  17.323  0.00  0.00    +0.000 C 
ATOM     29  O   UNL     1      -5.812  11.788  16.672  0.00  0.00    +0.000 OA
ENDBRANCH  21  29
ENDBRANCH  17  24
ENDBRANCH   1  18
TORSDOF 4
ENDMDL
MODEL 3
REMARK VINA RESULT:      -7.7      1.093      2.366
REMARK  Name = 
REMARK  6 active torsions:
REMARK  status: ('A' for Active; 'I' for Inactive)
REMARK    1  A    between atoms: C_1  and  O_2
REMARK    2  A    between atoms: O_2  and  C_3
REMARK    3  A    between atoms: C_6  and  N_7
REMARK    4  A    between atoms: C_8  and  C_10
REMARK    5  A    between atoms: N_13  and  C_14
REMARK    6  A    between atoms: C_20  and  C_21
REMARK                            x       y       z     vdW  Elec       q    Type
REMARK                         _______ _______ _______ _____ _____    ______ ____
ROOT
ATOM      1  C   UNL     1       0.067  10.451  19.426  0.00  0.00    +0.000 C 
ATOM      2  C   UNL     1      -0.021   9.497  20.626  0.00  0.00    +0.000 C 
ATOM      3  C   UNL     1       1.292   8.753  20.875  0.00  0.00    +0.000 C 
ATOM      4  N   UNL     1       1.719   8.114  19.638  0.00  0.00    +0.000 N 
ATOM      5  C   UNL     1       1.913   8.967  18.479  0.00  0.00    +0.000 C 
ATOM      6  C   UNL     1       0.624   9.734  18.191  0.00  0.00    +0.000 C 
ENDROOT
BRANCH   4   7
ATOM      7  C   UNL     1       2.245   6.835  19.713  0.00  0.00    +0.000 A 
ATOM      8  N   UNL     1       1.822   6.066  20.758  0.00  0.00    +0.000 NA
ATOM      9  C   UNL     1       2.163   4.770  20.852  0.00  0.00    +0.000 A 
ATOM     10  C   UNL     1       2.957   4.107  19.944  0.00  0.00    +0.000 A 
ATOM     11  C   UNL     1       3.449   4.883  18.891  0.00  0.00    +0.000 A 
ATOM     12  S   UNL     1       4.472   4.329  17.615  0.00  0.00    +0.000 S 
ATOM     13  C   UNL     1       4.571   5.872  16.914  0.00  0.00    +0.000 A 
ATOM     14  C   UNL     1       5.364   6.120  15.678  0.00  0.00    +0.000 C 
ATOM     15  C   UNL     1       3.847   6.793  17.635  0.00  0.00    +0.000 A 
ATOM     16  C   UNL     1       3.134   6.239  18.763  0.00  0.00    +0.000 A 
ENDBRANCH   4   7
BRANCH   1  18
ATOM     17  N   UNL     1       1.059  12.528  18.644  0.00  0.00    +0.000 N 
ATOM     18  C   UNL     1       0.885  11.704  19.743  0.00  0.00    +0.000 C 
ATOM     19  O   UNL     1       1.339  11.903  20.863  0.00  0.00    +0.000 OA
ATOM     20  H   UNL     1       0.621  12.234  17.779  0.00  0.00    +0.000 HD
BRANCH  17  24
ATOM     21  C   UNL     1       3.559  15.948  18.483  0.00  0.00    +0.000 A 
ATOM     22  C   UNL     1       2.220  16.078  18.865  0.00  0.00    +0.000 A 
ATOM     23  C   UNL     1       1.367  14.971  18.907  0.00  0.00    +0.000 A 
ATOM     24  C   UNL     1       1.839  13.702  18.580  0.00  0.00    +0.000 A 
ATOM     25  C   UNL     1       3.178  13.565  18.198  0.00  0.00    +0.000 A 
ATOM     26  C   UNL     1       4.039  14.674  18.159  0.00  0.00    +0.000 A 
ATOM     27 CL   UNL     1       5.690  14.329  17.782  0.00  0.00    +0.000 Cl
BRANCH  21  29
ATOM     28  C   UNL     1       5.082  17.280  19.729  0.00  0.00    +0.000 C 
ATOM     29  O   UNL     1       4.264  17.116  18.578  0.00  0.00    +0.000 OA
ENDBRANCH  21  29
ENDBRANCH  17  24
ENDBRANCH   1  18
TORSDOF 4
ENDMDL
MODEL 4
REMARK VINA RESULT:      -7.6      3.856      5.112
REMARK  Name = 
REMARK  6 active torsions:
REMARK  status: ('A' for Active; 'I' for Inactive)
REMARK    1  A    between atoms: C_1  and  O_2
REMARK    2  A    between atoms: O_2  and  C_3
REMARK    3  A    between atoms: C_6  and  N_7
REMARK    4  A    between atoms: C_8  and  C_10
REMARK    5  A    between atoms: N_13  and  C_14
REMARK    6  A    between atoms: C_20  and  C_21
REMARK                            x       y       z     vdW  Elec       q    Type
REMARK                         _______ _______ _______ _____ _____    ______ ____
ROOT
ATOM      1  C   UNL     1       1.365  10.156  19.489  0.00  0.00    +0.000 C 
ATOM      2  C   UNL     1       2.025   9.826  18.143  0.00  0.00    +0.000 C 
ATOM      3  C   UNL     1       1.893   8.347  17.777  0.00  0.00    +0.000 C 
ATOM      4  N   UNL     1       2.372   7.536  18.887  0.00  0.00    +0.000 N 
ATOM      5  C   UNL     1       1.732   7.727  20.177  0.00  0.00    +0.000 C 
ATOM      6  C   UNL     1       1.839   9.195  20.586  0.00  0.00    +0.000 C 
ENDROOT
BRANCH   4   7
ATOM      7  C   UNL     1       3.134   6.418  18.595  0.00  0.00    +0.000 A 
ATOM      8  N   UNL     1       4.098   6.572  17.642  0.00  0.00    +0.000 NA
ATOM      9  C   UNL     1       4.979   5.593  17.378  0.00  0.00    +0.000 A 
ATOM     10  C   UNL     1       4.996   4.371  18.009  0.00  0.00    +0.000 A 
ATOM     11  C   UNL     1       3.987   4.163  18.953  0.00  0.00    +0.000 A 
ATOM     12  S   UNL     1       3.752   2.732  19.890  0.00  0.00    +0.000 S 
ATOM     13  C   UNL     1       2.366   3.355  20.646  0.00  0.00    +0.000 A 
ATOM     14  C   UNL     1       1.605   2.568  21.656  0.00  0.00    +0.000 C 
ATOM     15  C   UNL     1       2.081   4.622  20.195  0.00  0.00    +0.000 A 
ATOM     16  C   UNL     1       3.039   5.148  19.249  0.00  0.00    +0.000 A 
ENDBRANCH   4   7
BRANCH   1  18
ATOM     17  N   UNL     1      -0.628  10.734  18.223  0.00  0.00    +0.000 N 
ATOM     18  C   UNL     1      -0.162  10.167  19.397  0.00  0.00    +0.000 C 
ATOM     19  O   UNL     1      -0.858   9.729  20.305  0.00  0.00    +0.000 OA
ATOM     20  H   UNL     1       0.069  11.052  17.562  0.00  0.00    +0.000 HD
BRANCH  17  24
ATOM     21  C   UNL     1      -4.622  11.463  17.002  0.00  0.00    +0.000 A 
ATOM     22  C   UNL     1      -4.178  11.915  18.248  0.00  0.00    +0.000 A 
ATOM     23  C   UNL     1      -2.873  11.672  18.686  0.00  0.00    +0.000 A 
ATOM     24  C   UNL     1      -1.975  10.980  17.878  0.00  0.00    +0.000 A 
ATOM     25  C   UNL     1      -2.412  10.524  16.629  0.00  0.00    +0.000 A 
ATOM     26  C   UNL     1      -3.721  10.771  16.184  0.00  0.00    +0.000 A 
ATOM     27 CL   UNL     1      -4.077  10.251  14.575  0.00  0.00    +0.000 Cl
BRANCH  21  29
ATOM     28  C   UNL     1      -6.810  11.953  17.790  0.00  0.00    +0.000 C 
ATOM     29  O   UNL     1      -5.896  11.861  16.704  0.00  0.00    +0.000 OA
ENDBRANCH  21  29
ENDBRANCH  17  24
ENDBRANCH   1  18
TORSDOF 4
ENDMDL
MODEL 5
REMARK VINA RESULT:      -7.6      1.470      2.717
REMARK  Name = 
REMARK  6 active torsions:
REMARK  status: ('A' for Active; 'I' for Inactive)
REMARK    1  A    between atoms: C_1  and  O_2
REMARK    2  A    between atoms: O_2  and  C_3
REMARK    3  A    between atoms: C_6  and  N_7
REMARK    4  A    between atoms: C_8  and  C_10
REMARK    5  A    between atoms: N_13  and  C_14
REMARK    6  A    between atoms: C_20  and  C_21
REMARK                            x       y       z     vdW  Elec       q    Type
REMARK                         _______ _______ _______ _____ _____    ______ ____
ROOT
ATOM      1  C   UNL     1       0.060  10.401  19.431  0.00  0.00    +0.000 C 
ATOM      2  C   UNL     1      -0.034   9.445  20.628  0.00  0.00    +0.000 C 
ATOM      3  C   UNL     1       1.273   8.691  20.876  0.00  0.00    +0.000 C 
ATOM      4  N   UNL     1       1.697   8.052  19.638  0.00  0.00    +0.000 N 
ATOM      5  C   UNL     1       1.897   8.907  18.482  0.00  0.00    +0.000 C 
ATOM      6  C   UNL     1       0.614   9.683  18.194  0.00  0.00    +0.000 C 
ENDROOT
BRANCH   4   7
ATOM      7  C   UNL     1       2.213   6.770  19.711  0.00  0.00    +0.000 A 
ATOM      8  N   UNL     1       1.777   5.997  20.748  0.00  0.00    +0.000 NA
ATOM      9  C   UNL     1       2.109   4.699  20.837  0.00  0.00    +0.000 A 
ATOM     10  C   UNL     1       2.906   4.036  19.932  0.00  0.00    +0.000 A 
ATOM     11  C   UNL     1       3.413   4.814  18.888  0.00  0.00    +0.000 A 
ATOM     12  S   UNL     1       4.443   4.261  17.618  0.00  0.00    +0.000 S 
ATOM     13  C   UNL     1       4.557   5.808  16.926  0.00  0.00    +0.000 A 
ATOM     14  C   UNL     1       5.363   6.057  15.698  0.00  0.00    +0.000 C 
ATOM     15  C   UNL     1       3.833   6.729  17.646  0.00  0.00    +0.000 A 
ATOM     16  C   UNL     1       3.107   6.173  18.765  0.00  0.00    +0.000 A 
ENDBRANCH   4   7
BRANCH   1  18
ATOM     17  N   UNL     1       1.165  12.413  18.632  0.00  0.00    +0.000 N 
ATOM     18  C   UNL     1       0.887  11.648  19.752  0.00  0.00    +0.000 C 
ATOM     19  O   UNL     1       1.261  11.889  20.893  0.00  0.00    +0.000 OA
ATOM     20  H   UNL     1       0.786  12.089  17.751  0.00  0.00    +0.000 HD
BRANCH  17  24
ATOM     21  C   UNL     1       3.456  15.975  18.424  0.00  0.00    +0.000 A 
ATOM     22  C   UNL     1       4.053  14.742  18.142  0.00  0.00    +0.000 A 
ATOM     23  C   UNL     1       3.328  13.549  18.223  0.00  0.00    +0.000 A 
ATOM     24  C   UNL     1       1.980  13.564  18.574  0.00  0.00    +0.000 A 
ATOM     25  C   UNL     1       1.377  14.795  18.857  0.00  0.00    +0.000 A 
ATOM     26  C   UNL     1       2.101  15.995  18.772  0.00  0.00    +0.000 A 
ATOM     27 CL   UNL     1       1.191  17.441  19.035  0.00  0.00    +0.000 Cl
BRANCH  21  29
ATOM     28  C   UNL     1       5.426  17.140  19.063  0.00  0.00    +0.000 C 
ATOM     29  O   UNL     1       4.289  17.039  18.215  0.00  0.00    +0.000 OA
ENDBRANCH  21  29
ENDBRANCH  17  24
ENDBRANCH   1  18
TORSDOF 4
ENDMDL
MODEL 6
REMARK VINA RESULT:      -7.5      1.616      1.947
REMARK  Name = 
REMARK  6 active torsions:
REMARK  status: ('A' for Active; 'I' for Inactive)
REMARK    1  A    between atoms: C_1  and  O_2
REMARK    2  A    between atoms: O_2  and  C_3
REMARK    3  A    between atoms: C_6  and  N_7
REMARK    4  A    between atoms: C_8  and  C_10
REMARK    5  A    between atoms: N_13  and  C_14
REMARK    6  A    between atoms: C_20  and  C_21
REMARK                            x       y       z     vdW  Elec       q    Type
REMARK                         _______ _______ _______ _____ _____    ______ ____
ROOT
ATOM      1  C   UNL     1      -0.141  10.042  19.798  0.00  0.00    +0.000 C 
ATOM      2  C   UNL     1       0.479   8.994  20.734  0.00  0.00    +0.000 C 
ATOM      3  C   UNL     1       1.912   8.636  20.339  0.00  0.00    +0.000 C 
ATOM      4  N   UNL     1       1.939   8.264  18.931  0.00  0.00    +0.000 N 
ATOM      5  C   UNL     1       1.453   9.241  17.974  0.00  0.00    +0.000 C 
ATOM      6  C   UNL     1       0.020   9.633  18.329  0.00  0.00    +0.000 C 
ENDROOT
BRANCH   4   7
ATOM      7  C   UNL     1       2.724   7.187  18.558  0.00  0.00    +0.000 A 
ATOM      8  N   UNL     1       3.640   7.415  17.572  0.00  0.00    +0.000 NA
ATOM      9  C   UNL     1       4.541   6.480  17.228  0.00  0.00    +0.000 A 
ATOM     10  C   UNL     1       4.625   5.233  17.803  0.00  0.00    +0.000 A 
ATOM     11  C   UNL     1       3.666   4.949  18.778  0.00  0.00    +0.000 A 
ATOM     12  S   UNL     1       3.519   3.471  19.658  0.00  0.00    +0.000 S 
ATOM     13  C   UNL     1       2.146   4.012  20.498  0.00  0.00    +0.000 A 
ATOM     14  C   UNL     1       1.456   3.156  21.502  0.00  0.00    +0.000 C 
ATOM     15  C   UNL     1       1.801   5.287  20.117  0.00  0.00    +0.000 A 
ATOM     16  C   UNL     1       2.699   5.886  19.156  0.00  0.00    +0.000 A 
ENDBRANCH   4   7
BRANCH   1  18
ATOM     17  N   UNL     1       0.177  12.314  18.993  0.00  0.00    +0.000 N 
ATOM     18  C   UNL     1       0.430  11.441  20.038  0.00  0.00    +0.000 C 
ATOM     19  O   UNL     1       1.059  11.707  21.055  0.00  0.00    +0.000 OA
ATOM     20  H   UNL     1      -0.360  11.951  18.215  0.00  0.00    +0.000 HD
BRANCH  17  24
ATOM     21  C   UNL     1       1.410  16.346  18.559  0.00  0.00    +0.000 A 
ATOM     22  C   UNL     1       2.332  15.310  18.380  0.00  0.00    +0.000 A 
ATOM     23  C   UNL     1       1.959  13.972  18.537  0.00  0.00    +0.000 A 
ATOM     24  C   UNL     1       0.647  13.638  18.864  0.00  0.00    +0.000 A 
ATOM     25  C   UNL     1      -0.280  14.670  19.044  0.00  0.00    +0.000 A 
ATOM     26  C   UNL     1       0.090  16.016  18.883  0.00  0.00    +0.000 A 
ATOM     27 CL   UNL     1      -1.190  17.168  19.022  0.00  0.00    +0.000 Cl
BRANCH  21  29
ATOM     28  C   UNL     1       1.608  18.147  17.020  0.00  0.00    +0.000 C 
ATOM     29  O   UNL     1       1.927  17.583  18.286  0.00  0.00    +0.000 OA
ENDBRANCH  21  29
ENDBRANCH  17  24
ENDBRANCH   1  18
TORSDOF 4
ENDMDL
MODEL 7
REMARK VINA RESULT:      -7.5      3.847      5.174
REMARK  Name = 
REMARK  6 active torsions:
REMARK  status: ('A' for Active; 'I' for Inactive)
REMARK    1  A    between atoms: C_1  and  O_2
REMARK    2  A    between atoms: O_2  and  C_3
REMARK    3  A    between atoms: C_6  and  N_7
REMARK    4  A    between atoms: C_8  and  C_10
REMARK    5  A    between atoms: N_13  and  C_14
REMARK    6  A    between atoms: C_20  and  C_21
REMARK                            x       y       z     vdW  Elec       q    Type
REMARK                         _______ _______ _______ _____ _____    ______ ____
ROOT
ATOM      1  C   UNL     1       1.121  10.296  19.538  0.00  0.00    +0.000 C 
ATOM      2  C   UNL     1       1.807   9.992  18.199  0.00  0.00    +0.000 C 
ATOM      3  C   UNL     1       1.721   8.512  17.824  0.00  0.00    +0.000 C 
ATOM      4  N   UNL     1       2.208   7.709  18.936  0.00  0.00    +0.000 N 
ATOM      5  C   UNL     1       1.547   7.874  20.218  0.00  0.00    +0.000 C 
ATOM      6  C   UNL     1       1.607   9.342  20.636  0.00  0.00    +0.000 C 
ENDROOT
BRANCH   4   7
ATOM      7  C   UNL     1       3.006   6.614  18.649  0.00  0.00    +0.000 A 
ATOM      8  N   UNL     1       3.998   6.809  17.733  0.00  0.00    +0.000 NA
ATOM      9  C   UNL     1       4.910   5.855  17.480  0.00  0.00    +0.000 A 
ATOM     10  C   UNL     1       4.932   4.621  18.087  0.00  0.00    +0.000 A 
ATOM     11  C   UNL     1       3.897   4.371  18.990  0.00  0.00    +0.000 A 
ATOM     12  S   UNL     1       3.662   2.915  19.888  0.00  0.00    +0.000 S 
ATOM     13  C   UNL     1       2.236   3.492  20.608  0.00  0.00    +0.000 A 
ATOM     14  C   UNL     1       1.459   2.667  21.574  0.00  0.00    +0.000 C 
ATOM     15  C   UNL     1       1.939   4.762  20.173  0.00  0.00    +0.000 A 
ATOM     16  C   UNL     1       2.916   5.328  19.272  0.00  0.00    +0.000 A 
ENDBRANCH   4   7
BRANCH   1  18
ATOM     17  N   UNL     1      -0.885  11.029  18.377  0.00  0.00    +0.000 N 
ATOM     18  C   UNL     1      -0.404  10.264  19.426  0.00  0.00    +0.000 C 
ATOM     19  O   UNL     1      -1.089   9.632  20.222  0.00  0.00    +0.000 OA
ATOM     20  H   UNL     1      -0.196  11.496  17.800  0.00  0.00    +0.000 HD
BRANCH  17  24
ATOM     21  C   UNL     1      -4.988  11.786  17.627  0.00  0.00    +0.000 A 
ATOM     22  C   UNL     1      -4.196  11.191  16.641  0.00  0.00    +0.000 A 
ATOM     23  C   UNL     1      -2.835  10.947  16.853  0.00  0.00    +0.000 A 
ATOM     24  C   UNL     1      -2.237  11.284  18.065  0.00  0.00    +0.000 A 
ATOM     25  C   UNL     1      -3.025  11.880  19.056  0.00  0.00    +0.000 A 
ATOM     26  C   UNL     1      -4.393  12.121  18.848  0.00  0.00    +0.000 A 
ATOM     27 CL   UNL     1      -5.257  12.754  20.205  0.00  0.00    +0.000 Cl
BRANCH  21  29
ATOM     28  C   UNL     1      -6.834  13.178  17.075  0.00  0.00    +0.000 C 
ATOM     29  O   UNL     1      -6.308  11.872  17.280  0.00  0.00    +0.000 OA
ENDBRANCH  21  29
ENDBRANCH  17  24
ENDBRANCH   1  18
TORSDOF 4
ENDMDL
MODEL 8
REMARK VINA RESULT:      -7.5      4.236      5.615
REMARK  Name = 
REMARK  6 active torsions:
REMARK  status: ('A' for Active; 'I' for Inactive)
REMARK    1  A    between atoms: C_1  and  O_2
REMARK    2  A    between atoms: O_2  and  C_3
REMARK    3  A    between atoms: C_6  and  N_7
REMARK    4  A    between atoms: C_8  and  C_10
REMARK    5  A    between atoms: N_13  and  C_14
REMARK    6  A    between atoms: C_20  and  C_21
REMARK                            x       y       z     vdW  Elec       q    Type
REMARK                         _______ _______ _______ _____ _____    ______ ____
ROOT
ATOM      1  C   UNL     1       1.445   9.727  19.579  0.00  0.00    +0.000 C 
ATOM      2  C   UNL     1       2.100   9.541  18.203  0.00  0.00    +0.000 C 
ATOM      3  C   UNL     1       1.856   8.146  17.626  0.00  0.00    +0.000 C 
ATOM      4  N   UNL     1       2.250   7.147  18.611  0.00  0.00    +0.000 N 
ATOM      5  C   UNL     1       1.606   7.202  19.910  0.00  0.00    +0.000 C 
ATOM      6  C   UNL     1       1.822   8.582  20.528  0.00  0.00    +0.000 C 
ENDROOT
BRANCH   4   7
ATOM      7  C   UNL     1       2.926   6.024  18.164  0.00  0.00    +0.000 A 
ATOM      8  N   UNL     1       2.188   4.884  18.032  0.00  0.00    +0.000 NA
ATOM      9  C   UNL     1       2.711   3.776  17.481  0.00  0.00    +0.000 A 
ATOM     10  C   UNL     1       4.003   3.673  17.020  0.00  0.00    +0.000 A 
ATOM     11  C   UNL     1       4.800   4.807  17.191  0.00  0.00    +0.000 A 
ATOM     12  S   UNL     1       6.454   4.966  16.722  0.00  0.00    +0.000 S 
ATOM     13  C   UNL     1       6.562   6.545  17.337  0.00  0.00    +0.000 A 
ATOM     14  C   UNL     1       7.823   7.333  17.253  0.00  0.00    +0.000 C 
ATOM     15  C   UNL     1       5.369   6.945  17.892  0.00  0.00    +0.000 A 
ATOM     16  C   UNL     1       4.303   5.977  17.774  0.00  0.00    +0.000 A 
ENDBRANCH   4   7
BRANCH   1  18
ATOM     17  N   UNL     1      -0.490  10.376  18.260  0.00  0.00    +0.000 N 
ATOM     18  C   UNL     1      -0.074   9.874  19.482  0.00  0.00    +0.000 C 
ATOM     19  O   UNL     1      -0.804   9.588  20.423  0.00  0.00    +0.000 OA
ATOM     20  H   UNL     1       0.230  10.565  17.575  0.00  0.00    +0.000 HD
BRANCH  17  24
ATOM     21  C   UNL     1      -4.399  11.384  16.964  0.00  0.00    +0.000 A 
ATOM     22  C   UNL     1      -3.943  11.817  18.213  0.00  0.00    +0.000 A 
ATOM     23  C   UNL     1      -2.667  11.483  18.675  0.00  0.00    +0.000 A 
ATOM     24  C   UNL     1      -1.809  10.716  17.890  0.00  0.00    +0.000 A 
ATOM     25  C   UNL     1      -2.259  10.280  16.639  0.00  0.00    +0.000 A 
ATOM     26  C   UNL     1      -3.539  10.618  16.169  0.00  0.00    +0.000 A 
ATOM     27 CL   UNL     1      -3.907  10.107  14.560  0.00  0.00    +0.000 Cl
BRANCH  21  29
ATOM     28  C   UNL     1      -6.188  12.849  17.514  0.00  0.00    +0.000 C 
ATOM     29  O   UNL     1      -5.635  11.872  16.641  0.00  0.00    +0.000 OA
ENDBRANCH  21  29
ENDBRANCH  17  24
ENDBRANCH   1  18
TORSDOF 4
ENDMDL
MODEL 9
REMARK VINA RESULT:      -7.4      3.914      5.224
REMARK  Name = 
REMARK  6 active torsions:
REMARK  status: ('A' for Active; 'I' for Inactive)
REMARK    1  A    between atoms: C_1  and  O_2
REMARK    2  A    between atoms: O_2  and  C_3
REMARK    3  A    between atoms: C_6  and  N_7
REMARK    4  A    between atoms: C_8  and  C_10
REMARK    5  A    between atoms: N_13  and  C_14
REMARK    6  A    between atoms: C_20  and  C_21
REMARK                            x       y       z     vdW  Elec       q    Type
REMARK                         _______ _______ _______ _____ _____    ______ ____
ROOT
ATOM      1  C   UNL     1       1.256  10.148  19.754  0.00  0.00    +0.000 C 
ATOM      2  C   UNL     1       1.821  10.141  18.327  0.00  0.00    +0.000 C 
ATOM      3  C   UNL     1       1.710   8.768  17.664  0.00  0.00    +0.000 C 
ATOM      4  N   UNL     1       2.300   7.766  18.541  0.00  0.00    +0.000 N 
ATOM      5  C   UNL     1       1.755   7.649  19.881  0.00  0.00    +0.000 C 
ATOM      6  C   UNL     1       1.844   9.002  20.586  0.00  0.00    +0.000 C 
ENDROOT
BRANCH   4   7
ATOM      7  C   UNL     1       3.074   6.772  17.966  0.00  0.00    +0.000 A 
ATOM      8  N   UNL     1       4.225   7.177  17.353  0.00  0.00    +0.000 NA
ATOM      9  C   UNL     1       5.113   6.286  16.882  0.00  0.00    +0.000 A 
ATOM     10  C   UNL     1       4.958   4.921  16.953  0.00  0.00    +0.000 A 
ATOM     11  C   UNL     1       3.765   4.477  17.527  0.00  0.00    +0.000 A 
ATOM     12  S   UNL     1       3.293   2.829  17.740  0.00  0.00    +0.000 S 
ATOM     13  C   UNL     1       1.795   3.260  18.414  0.00  0.00    +0.000 A 
ATOM     14  C   UNL     1       0.812   2.232  18.856  0.00  0.00    +0.000 C 
ATOM     15  C   UNL     1       1.650   4.626  18.472  0.00  0.00    +0.000 A 
ATOM     16  C   UNL     1       2.804   5.367  18.016  0.00  0.00    +0.000 A 
ENDBRANCH   4   7
BRANCH   1  18
ATOM     17  N   UNL     1      -0.847  10.874  18.773  0.00  0.00    +0.000 N 
ATOM     18  C   UNL     1      -0.273  10.103  19.771  0.00  0.00    +0.000 C 
ATOM     19  O   UNL     1      -0.883   9.457  20.614  0.00  0.00    +0.000 OA
ATOM     20  H   UNL     1      -0.213  11.353  18.146  0.00  0.00    +0.000 HD
BRANCH  17  24
ATOM     21  C   UNL     1      -4.992  11.665  18.373  0.00  0.00    +0.000 A 
ATOM     22  C   UNL     1      -4.374  10.734  17.533  0.00  0.00    +0.000 A 
ATOM     23  C   UNL     1      -3.005  10.468  17.628  0.00  0.00    +0.000 A 
ATOM     24  C   UNL     1      -2.223  11.119  18.579  0.00  0.00    +0.000 A 
ATOM     25  C   UNL     1      -2.836  12.051  19.423  0.00  0.00    +0.000 A 
ATOM     26  C   UNL     1      -4.212  12.318  19.334  0.00  0.00    +0.000 A 
ATOM     27 CL   UNL     1      -4.845  13.404  20.520  0.00  0.00    +0.000 Cl
BRANCH  21  29
ATOM     28  C   UNL     1      -6.819  12.669  17.231  0.00  0.00    +0.000 C 
ATOM     29  O   UNL     1      -6.347  11.737  18.196  0.00  0.00    +0.000 OA
ENDBRANCH  21  29
ENDBRANCH  17  24
ENDBRANCH   1  18
TORSDOF 4
ENDMDL
