MODEL 1
REMARK VINA RESULT:      -8.4      0.000      0.000
REMARK  Name = 
REMARK  6 active torsions:
REMARK  status: ('A' for Active; 'I' for Inactive)
REMARK    1  A    between atoms: C_1  and  O_2
REMARK    2  A    between atoms: O_2  and  C_3
REMARK    3  A    between atoms: N_8  and  C_9
REMARK    4  A    between atoms: C_14  and  O_15
REMARK    5  A    between atoms: O_15  and  C_16
REMARK    6  A    between atoms: C_16  and  C_17
REMARK                            x       y       z     vdW  Elec       q    Type
REMARK                         _______ _______ _______ _____ _____    ______ ____
ROOT
ATOM      1  C   UNL     1       6.357   5.803  16.581  0.00  0.00    +0.000 A 
ATOM      2  C   UNL     1       5.310   6.729  16.512  0.00  0.00    +0.000 A 
ATOM      3  C   UNL     1       4.329   6.778  17.513  0.00  0.00    +0.000 A 
ATOM      4  C   UNL     1       4.367   5.882  18.586  0.00  0.00    +0.000 A 
ATOM      5 CL   UNL     1       3.121   5.966  19.777  0.00  0.00    +0.000 Cl
ATOM      6  C   UNL     1       5.387   4.934  18.664  0.00  0.00    +0.000 A 
ATOM      7  C   UNL     1       6.390   4.945  17.685  0.00  0.00    +0.000 A 
ENDROOT
BRANCH   1  13
ATOM      8  C   UNL     1       6.147   3.710  12.773  0.00  0.00    +0.000 A 
ATOM      9  C   UNL     1       6.992   4.067  11.760  0.00  0.00    +0.000 A 
ATOM     10  C   UNL     1       7.957   4.971  12.114  0.00  0.00    +0.000 A 
ATOM     11  N   UNL     1       8.083   5.490  13.354  0.00  0.00    +0.000 NA
ATOM     12  C   UNL     1       7.186   5.103  14.274  0.00  0.00    +0.000 A 
ATOM     13  N   UNL     1       7.285   5.715  15.529  0.00  0.00    +0.000 N 
ATOM     14  N   UNL     1       6.215   4.217  14.013  0.00  0.00    +0.000 NA
ATOM     15  H   UNL     1       8.059   6.364  15.529  0.00  0.00    +0.000 HD
BRANCH   8  17
ATOM     16  C   UNL     1       4.278   3.222  11.463  0.00  0.00    +0.000 C 
ATOM     17  O   UNL     1       5.178   2.772  12.468  0.00  0.00    +0.000 OA
ENDBRANCH   8  17
ENDBRANCH   1  13
BRANCH   6  18
ATOM     18  O   UNL     1       5.363   4.024  19.699  0.00  0.00    +0.000 OA
BRANCH  18  19
ATOM     19  C   UNL     1       4.750   2.772  19.367  0.00  0.00    +0.000 C 
BRANCH  19  20
ATOM     20  C   UNL     1       3.252   2.775  19.544  0.00  0.00    +0.000 A 
ATOM     21  C   UNL     1       2.387   2.687  18.445  0.00  0.00    +0.000 A 
ATOM     22  C   UNL     1       1.006   2.594  18.635  0.00  0.00    +0.000 A 
ATOM     23  C   UNL     1       0.476   2.573  19.923  0.00  0.00    +0.000 A 
ATOM     24  C   UNL     1       1.330   2.652  21.016  0.00  0.00    +0.000 A 
ATOM     25  F   UNL     1       0.828   2.608  22.257  0.00  0.00    +0.000 F 
ATOM     26  C   UNL     1       2.705   2.747  20.839  0.00  0.00    +0.000 A 
ENDBRANCH  19  20
ENDBRANCH  18  19
ENDBRANCH   6  18
TORSDOF 5
ENDMDL
MODEL 2
REMARK VINA RESULT:      -8.4      2.683      4.034
REMARK  Name = 
REMARK  6 active torsions:
REMARK  status: ('A' for Active; 'I' for Inactive)
REMARK    1  A    between atoms: C_1  and  O_2
REMARK    2  A    between atoms: O_2  and  C_3
REMARK    3  A    between atoms: N_8  and  C_9
REMARK    4  A    between atoms: C_14  and  O_15
REMARK    5  A    between atoms: O_15  and  C_16
REMARK    6  A    between atoms: C_16  and  C_17
REMARK                            x       y       z     vdW  Elec       q    Type
REMARK                         _______ _______ _______ _____ _____    ______ ____
ROOT
ATOM      1  C   UNL     1       3.286   7.366  17.794  0.00  0.00    +0.000 A 
ATOM      2  C   UNL     1       2.582   8.572  17.885  0.00  0.00    +0.000 A 
ATOM      3  C   UNL     1       1.746   8.835  18.980  0.00  0.00    +0.000 A 
ATOM      4  C   UNL     1       1.583   7.882  19.990  0.00  0.00    +0.000 A 
ATOM      5 CL   UNL     1       0.523   8.244  21.303  0.00  0.00    +0.000 Cl
ATOM      6  C   UNL     1       2.255   6.662  19.911  0.00  0.00    +0.000 A 
ATOM      7  C   UNL     1       3.131   6.447  18.838  0.00  0.00    +0.000 A 
ENDROOT
BRANCH   1  13
ATOM      8  C   UNL     1       6.937   5.049  17.318  0.00  0.00    +0.000 A 
ATOM      9  C   UNL     1       7.294   4.602  16.077  0.00  0.00    +0.000 A 
ATOM     10  C   UNL     1       6.521   5.080  15.053  0.00  0.00    +0.000 A 
ATOM     11  N   UNL     1       5.479   5.922  15.227  0.00  0.00    +0.000 NA
ATOM     12  C   UNL     1       5.186   6.280  16.487  0.00  0.00    +0.000 A 
ATOM     13  N   UNL     1       4.054   7.086  16.651  0.00  0.00    +0.000 N 
ATOM     14  N   UNL     1       5.896   5.864  17.544  0.00  0.00    +0.000 NA
ATOM     15  H   UNL     1       3.641   7.278  15.749  0.00  0.00    +0.000 HD
BRANCH   8  17
ATOM     16  C   UNL     1       7.911   5.630  19.357  0.00  0.00    +0.000 C 
ATOM     17  O   UNL     1       7.714   4.618  18.377  0.00  0.00    +0.000 OA
ENDBRANCH   8  17
ENDBRANCH   1  13
BRANCH   6  18
ATOM     18  O   UNL     1       2.025   5.718  20.889  0.00  0.00    +0.000 OA
BRANCH  18  19
ATOM     19  C   UNL     1       1.188   4.632  20.473  0.00  0.00    +0.000 C 
BRANCH  19  20
ATOM     20  C   UNL     1       1.938   3.544  19.745  0.00  0.00    +0.000 A 
ATOM     21  C   UNL     1       1.576   3.148  18.451  0.00  0.00    +0.000 A 
ATOM     22  C   UNL     1       2.342   2.208  17.757  0.00  0.00    +0.000 A 
ATOM     23  C   UNL     1       3.483   1.664  18.343  0.00  0.00    +0.000 A 
ATOM     24  C   UNL     1       3.850   2.059  19.623  0.00  0.00    +0.000 A 
ATOM     25  F   UNL     1       4.960   1.558  20.181  0.00  0.00    +0.000 F 
ATOM     26  C   UNL     1       3.095   2.993  20.323  0.00  0.00    +0.000 A 
ENDBRANCH  19  20
ENDBRANCH  18  19
ENDBRANCH   6  18
TORSDOF 5
ENDMDL
MODEL 3
REMARK VINA RESULT:      -8.3      0.854      1.284
REMARK  Name = 
REMARK  6 active torsions:
REMARK  status: ('A' for Active; 'I' for Inactive)
REMARK    1  A    between atoms: C_1  and  O_2
REMARK    2  A    between atoms: O_2  and  C_3
REMARK    3  A    between atoms: N_8  and  C_9
REMARK    4  A    between atoms: C_14  and  O_15
REMARK    5  A    between atoms: O_15  and  C_16
REMARK    6  A    between atoms: C_16  and  C_17
REMARK                            x       y       z     vdW  Elec       q    Type
REMARK                         _______ _______ _______ _____ _____    ______ ____
ROOT
ATOM      1  C   UNL     1       6.299   5.820  16.617  0.00  0.00    +0.000 A 
ATOM      2  C   UNL     1       5.200   6.677  16.493  0.00  0.00    +0.000 A 
ATOM      3  C   UNL     1       4.202   6.713  17.478  0.00  0.00    +0.000 A 
ATOM      4  C   UNL     1       4.277   5.871  18.592  0.00  0.00    +0.000 A 
ATOM      5 CL   UNL     1       3.010   5.935  19.762  0.00  0.00    +0.000 Cl
ATOM      6  C   UNL     1       5.351   4.990  18.727  0.00  0.00    +0.000 A 
ATOM      7  C   UNL     1       6.365   5.016  17.761  0.00  0.00    +0.000 A 
ENDROOT
BRANCH   1  13
ATOM      8  C   UNL     1       6.168   3.737  12.801  0.00  0.00    +0.000 A 
ATOM      9  C   UNL     1       7.030   4.100  11.804  0.00  0.00    +0.000 A 
ATOM     10  C   UNL     1       7.984   5.008  12.178  0.00  0.00    +0.000 A 
ATOM     11  N   UNL     1       8.085   5.524  13.422  0.00  0.00    +0.000 NA
ATOM     12  C   UNL     1       7.173   5.130  14.324  0.00  0.00    +0.000 A 
ATOM     13  N   UNL     1       7.246   5.739  15.582  0.00  0.00    +0.000 N 
ATOM     14  N   UNL     1       6.212   4.240  14.043  0.00  0.00    +0.000 NA
ATOM     15  H   UNL     1       8.017   6.391  15.598  0.00  0.00    +0.000 HD
BRANCH   8  17
ATOM     16  C   UNL     1       4.331   3.240  11.450  0.00  0.00    +0.000 C 
ATOM     17  O   UNL     1       5.210   2.794  12.476  0.00  0.00    +0.000 OA
ENDBRANCH   8  17
ENDBRANCH   1  13
BRANCH   6  18
ATOM     18  O   UNL     1       5.364   4.129  19.802  0.00  0.00    +0.000 OA
BRANCH  18  19
ATOM     19  C   UNL     1       4.823   2.831  19.524  0.00  0.00    +0.000 C 
BRANCH  19  20
ATOM     20  C   UNL     1       3.378   2.687  19.930  0.00  0.00    +0.000 A 
ATOM     21  C   UNL     1       2.980   2.804  21.269  0.00  0.00    +0.000 A 
ATOM     22  C   UNL     1       1.626   2.764  21.612  0.00  0.00    +0.000 A 
ATOM     23  C   UNL     1       0.656   2.620  20.623  0.00  0.00    +0.000 A 
ATOM     24  C   UNL     1       1.045   2.511  19.293  0.00  0.00    +0.000 A 
ATOM     25  F   UNL     1       0.116   2.397  18.336  0.00  0.00    +0.000 F 
ATOM     26  C   UNL     1       2.389   2.548  18.940  0.00  0.00    +0.000 A 
ENDBRANCH  19  20
ENDBRANCH  18  19
ENDBRANCH   6  18
TORSDOF 5
ENDMDL
MODEL 4
REMARK VINA RESULT:      -8.1      2.801      3.979
REMARK  Name = 
REMARK  6 active torsions:
REMARK  status: ('A' for Active; 'I' for Inactive)
REMARK    1  A    between atoms: C_1  and  O_2
REMARK    2  A    between atoms: O_2  and  C_3
REMARK    3  A    between atoms: N_8  and  C_9
REMARK    4  A    between atoms: C_14  and  O_15
REMARK    5  A    between atoms: O_15  and  C_16
REMARK    6  A    between atoms: C_16  and  C_17
REMARK                            x       y       z     vdW  Elec       q    Type
REMARK                         _______ _______ _______ _____ _____    ______ ____
ROOT
ATOM      1  C   UNL     1       6.015   5.198  16.874  0.00  0.00    +0.000 A 
ATOM      2  C   UNL     1       6.296   4.425  18.007  0.00  0.00    +0.000 A 
ATOM      3  C   UNL     1       5.348   4.281  19.031  0.00  0.00    +0.000 A 
ATOM      4  C   UNL     1       4.113   4.932  18.948  0.00  0.00    +0.000 A 
ATOM      5 CL   UNL     1       2.992   4.744  20.247  0.00  0.00    +0.000 Cl
ATOM      6  C   UNL     1       3.819   5.727  17.840  0.00  0.00    +0.000 A 
ATOM      7  C   UNL     1       4.758   5.806  16.803  0.00  0.00    +0.000 A 
ENDROOT
BRANCH   1  13
ATOM      8  C   UNL     1       6.336   3.699  12.803  0.00  0.00    +0.000 A 
ATOM      9  C   UNL     1       7.179   4.316  11.922  0.00  0.00    +0.000 A 
ATOM     10  C   UNL     1       7.980   5.278  12.477  0.00  0.00    +0.000 A 
ATOM     11  N   UNL     1       7.956   5.614  13.785  0.00  0.00    +0.000 NA
ATOM     12  C   UNL     1       7.071   4.975  14.565  0.00  0.00    +0.000 A 
ATOM     13  N   UNL     1       7.006   5.396  15.898  0.00  0.00    +0.000 N 
ATOM     14  N   UNL     1       6.257   4.016  14.104  0.00  0.00    +0.000 NA
ATOM     15  H   UNL     1       7.677   6.135  16.052  0.00  0.00    +0.000 HD
BRANCH   8  17
ATOM     16  C   UNL     1       4.454   3.202  11.516  0.00  0.00    +0.000 C 
ATOM     17  O   UNL     1       5.533   2.696  12.291  0.00  0.00    +0.000 OA
ENDBRANCH   8  17
ENDBRANCH   1  13
BRANCH   6  18
ATOM     18  O   UNL     1       2.620   6.406  17.817  0.00  0.00    +0.000 OA
BRANCH  18  19
ATOM     19  C   UNL     1       2.744   7.813  17.574  0.00  0.00    +0.000 C 
BRANCH  19  20
ATOM     20  C   UNL     1       1.972   8.659  18.556  0.00  0.00    +0.000 A 
ATOM     21  C   UNL     1       1.339   9.845  18.158  0.00  0.00    +0.000 A 
ATOM     22  C   UNL     1       0.549  10.563  19.059  0.00  0.00    +0.000 A 
ATOM     23  C   UNL     1       0.371  10.099  20.360  0.00  0.00    +0.000 A 
ATOM     24  C   UNL     1       0.990   8.919  20.757  0.00  0.00    +0.000 A 
ATOM     25  F   UNL     1       0.803   8.455  21.999  0.00  0.00    +0.000 F 
ATOM     26  C   UNL     1       1.780   8.197  19.870  0.00  0.00    +0.000 A 
ENDBRANCH  19  20
ENDBRANCH  18  19
ENDBRANCH   6  18
TORSDOF 5
ENDMDL
MODEL 5
REMARK VINA RESULT:      -8.1      3.275      4.349
REMARK  Name = 
REMARK  6 active torsions:
REMARK  status: ('A' for Active; 'I' for Inactive)
REMARK    1  A    between atoms: C_1  and  O_2
REMARK    2  A    between atoms: O_2  and  C_3
REMARK    3  A    between atoms: N_8  and  C_9
REMARK    4  A    between atoms: C_14  and  O_15
REMARK    5  A    between atoms: O_15  and  C_16
REMARK    6  A    between atoms: C_16  and  C_17
REMARK                            x       y       z     vdW  Elec       q    Type
REMARK                         _______ _______ _______ _____ _____    ______ ____
ROOT
ATOM      1  C   UNL     1       6.006   5.268  16.872  0.00  0.00    +0.000 A 
ATOM      2  C   UNL     1       6.267   4.529  18.032  0.00  0.00    +0.000 A 
ATOM      3  C   UNL     1       5.312   4.438  19.055  0.00  0.00    +0.000 A 
ATOM      4  C   UNL     1       4.089   5.108  18.943  0.00  0.00    +0.000 A 
ATOM      5 CL   UNL     1       2.958   4.985  20.241  0.00  0.00    +0.000 Cl
ATOM      6  C   UNL     1       3.815   5.870  17.807  0.00  0.00    +0.000 A 
ATOM      7  C   UNL     1       4.760   5.896  16.773  0.00  0.00    +0.000 A 
ENDROOT
BRANCH   1  13
ATOM      8  C   UNL     1       6.287   3.683  12.831  0.00  0.00    +0.000 A 
ATOM      9  C   UNL     1       7.152   4.256  11.941  0.00  0.00    +0.000 A 
ATOM     10  C   UNL     1       7.983   5.200  12.480  0.00  0.00    +0.000 A 
ATOM     11  N   UNL     1       7.967   5.562  13.781  0.00  0.00    +0.000 NA
ATOM     12  C   UNL     1       7.060   4.967  14.571  0.00  0.00    +0.000 A 
ATOM     13  N   UNL     1       7.006   5.415  15.895  0.00  0.00    +0.000 N 
ATOM     14  N   UNL     1       6.216   4.027  14.126  0.00  0.00    +0.000 NA
ATOM     15  H   UNL     1       7.700   6.135  16.038  0.00  0.00    +0.000 HD
BRANCH   8  17
ATOM     16  C   UNL     1       4.415   3.221  11.516  0.00  0.00    +0.000 C 
ATOM     17  O   UNL     1       5.453   2.698  12.335  0.00  0.00    +0.000 OA
ENDBRANCH   8  17
ENDBRANCH   1  13
BRANCH   6  18
ATOM     18  O   UNL     1       2.629   6.569  17.754  0.00  0.00    +0.000 OA
BRANCH  18  19
ATOM     19  C   UNL     1       2.780   7.992  17.819  0.00  0.00    +0.000 C 
BRANCH  19  20
ATOM     20  C   UNL     1       1.780   8.659  18.731  0.00  0.00    +0.000 A 
ATOM     21  C   UNL     1       1.599   8.231  20.054  0.00  0.00    +0.000 A 
ATOM     22  C   UNL     1       0.740   8.922  20.910  0.00  0.00    +0.000 A 
ATOM     23  C   UNL     1       0.062  10.054  20.461  0.00  0.00    +0.000 A 
ATOM     24  C   UNL     1       0.244  10.486  19.153  0.00  0.00    +0.000 A 
ATOM     25  F   UNL     1      -0.385  11.587  18.723  0.00  0.00    +0.000 F 
ATOM     26  C   UNL     1       1.096   9.805  18.291  0.00  0.00    +0.000 A 
ENDBRANCH  19  20
ENDBRANCH  18  19
ENDBRANCH   6  18
TORSDOF 5
ENDMDL
MODEL 6
REMARK VINA RESULT:      -8.0      5.084      8.044
REMARK  Name = 
REMARK  6 active torsions:
REMARK  status: ('A' for Active; 'I' for Inactive)
REMARK    1  A    between atoms: C_1  and  O_2
REMARK    2  A    between atoms: O_2  and  C_3
REMARK    3  A    between atoms: N_8  and  C_9
REMARK    4  A    between atoms: C_14  and  O_15
REMARK    5  A    between atoms: O_15  and  C_16
REMARK    6  A    between atoms: C_16  and  C_17
REMARK                            x       y       z     vdW  Elec       q    Type
REMARK                         _______ _______ _______ _____ _____    ______ ____
ROOT
ATOM      1  C   UNL     1       2.047   6.222  20.322  0.00  0.00    +0.000 A 
ATOM      2  C   UNL     1       1.353   5.034  20.582  0.00  0.00    +0.000 A 
ATOM      3  C   UNL     1       1.462   3.937  19.715  0.00  0.00    +0.000 A 
ATOM      4  C   UNL     1       2.246   4.021  18.561  0.00  0.00    +0.000 A 
ATOM      5 CL   UNL     1       2.325   2.651  17.514  0.00  0.00    +0.000 Cl
ATOM      6  C   UNL     1       2.928   5.202  18.268  0.00  0.00    +0.000 A 
ATOM      7  C   UNL     1       2.852   6.264  19.180  0.00  0.00    +0.000 A 
ENDROOT
BRANCH   1  13
ATOM      8  C   UNL     1       0.177  10.073  19.549  0.00  0.00    +0.000 A 
ATOM      9  C   UNL     1      -0.223  10.851  20.599  0.00  0.00    +0.000 A 
ATOM     10  C   UNL     1       0.164  10.392  21.829  0.00  0.00    +0.000 A 
ATOM     11  N   UNL     1       0.877   9.261  22.020  0.00  0.00    +0.000 NA
ATOM     12  C   UNL     1       1.195   8.547  20.930  0.00  0.00    +0.000 A 
ATOM     13  N   UNL     1       1.862   7.338  21.156  0.00  0.00    +0.000 N 
ATOM     14  N   UNL     1       0.863   8.929  19.690  0.00  0.00    +0.000 NA
ATOM     15  H   UNL     1       2.007   7.212  22.148  0.00  0.00    +0.000 HD
BRANCH   8  17
ATOM     16  C   UNL     1      -1.551  10.379  18.011  0.00  0.00    +0.000 C 
ATOM     17  O   UNL     1      -0.163  10.519  18.285  0.00  0.00    +0.000 OA
ENDBRANCH   8  17
ENDBRANCH   1  13
BRANCH   6  18
ATOM     18  O   UNL     1       3.641   5.276  17.091  0.00  0.00    +0.000 OA
BRANCH  18  19
ATOM     19  C   UNL     1       4.881   4.557  17.109  0.00  0.00    +0.000 C 
BRANCH  19  20
ATOM     20  C   UNL     1       6.050   5.391  17.570  0.00  0.00    +0.000 A 
ATOM     21  C   UNL     1       6.369   6.607  16.950  0.00  0.00    +0.000 A 
ATOM     22  C   UNL     1       7.394   7.411  17.453  0.00  0.00    +0.000 A 
ATOM     23  C   UNL     1       8.103   7.017  18.586  0.00  0.00    +0.000 A 
ATOM     24  C   UNL     1       7.785   5.816  19.208  0.00  0.00    +0.000 A 
ATOM     25  F   UNL     1       8.446   5.444  20.312  0.00  0.00    +0.000 F 
ATOM     26  C   UNL     1       6.768   5.007  18.716  0.00  0.00    +0.000 A 
ENDBRANCH  19  20
ENDBRANCH  18  19
ENDBRANCH   6  18
TORSDOF 5
ENDMDL
MODEL 7
REMARK VINA RESULT:      -7.9      5.177      8.148
REMARK  Name = 
REMARK  6 active torsions:
REMARK  status: ('A' for Active; 'I' for Inactive)
REMARK    1  A    between atoms: C_1  and  O_2
REMARK    2  A    between atoms: O_2  and  C_3
REMARK    3  A    between atoms: N_8  and  C_9
REMARK    4  A    between atoms: C_14  and  O_15
REMARK    5  A    between atoms: O_15  and  C_16
REMARK    6  A    between atoms: C_16  and  C_17
REMARK                            x       y       z     vdW  Elec       q    Type
REMARK                         _______ _______ _______ _____ _____    ______ ____
ROOT
ATOM      1  C   UNL     1       2.027   5.997  20.300  0.00  0.00    +0.000 A 
ATOM      2  C   UNL     1       1.318   4.806  20.491  0.00  0.00    +0.000 A 
ATOM      3  C   UNL     1       1.437   3.746  19.581  0.00  0.00    +0.000 A 
ATOM      4  C   UNL     1       2.250   3.872  18.450  0.00  0.00    +0.000 A 
ATOM      5 CL   UNL     1       2.342   2.547  17.348  0.00  0.00    +0.000 Cl
ATOM      6  C   UNL     1       2.948   5.058  18.225  0.00  0.00    +0.000 A 
ATOM      7  C   UNL     1       2.860   6.080  19.179  0.00  0.00    +0.000 A 
ENDROOT
BRANCH   1  13
ATOM      8  C   UNL     1       0.357   9.954  19.611  0.00  0.00    +0.000 A 
ATOM      9  C   UNL     1      -0.079  10.697  20.672  0.00  0.00    +0.000 A 
ATOM     10  C   UNL     1       0.211  10.163  21.899  0.00  0.00    +0.000 A 
ATOM     11  N   UNL     1       0.868   8.996  22.075  0.00  0.00    +0.000 NA
ATOM     12  C   UNL     1       1.227   8.323  20.971  0.00  0.00    +0.000 A 
ATOM     13  N   UNL     1       1.832   7.078  21.177  0.00  0.00    +0.000 N 
ATOM     14  N   UNL     1       0.989   8.778  19.734  0.00  0.00    +0.000 NA
ATOM     15  H   UNL     1       1.909   6.898  22.168  0.00  0.00    +0.000 HD
BRANCH   8  17
ATOM     16  C   UNL     1      -1.271  10.527  18.039  0.00  0.00    +0.000 C 
ATOM     17  O   UNL     1       0.115  10.475  18.352  0.00  0.00    +0.000 OA
ENDBRANCH   8  17
ENDBRANCH   1  13
BRANCH   6  18
ATOM     18  O   UNL     1       3.690   5.176  17.070  0.00  0.00    +0.000 OA
BRANCH  18  19
ATOM     19  C   UNL     1       4.977   4.547  17.130  0.00  0.00    +0.000 C 
BRANCH  19  20
ATOM     20  C   UNL     1       6.045   5.426  17.730  0.00  0.00    +0.000 A 
ATOM     21  C   UNL     1       6.865   4.972  18.772  0.00  0.00    +0.000 A 
ATOM     22  C   UNL     1       7.911   5.766  19.248  0.00  0.00    +0.000 A 
ATOM     23  C   UNL     1       8.157   7.015  18.682  0.00  0.00    +0.000 A 
ATOM     24  C   UNL     1       7.352   7.466  17.643  0.00  0.00    +0.000 A 
ATOM     25  F   UNL     1       7.600   8.655  17.078  0.00  0.00    +0.000 F 
ATOM     26  C   UNL     1       6.307   6.685  17.162  0.00  0.00    +0.000 A 
ENDBRANCH  19  20
ENDBRANCH  18  19
ENDBRANCH   6  18
TORSDOF 5
ENDMDL
MODEL 8
REMARK VINA RESULT:      -7.9      4.819      7.908
REMARK  Name = 
REMARK  6 active torsions:
REMARK  status: ('A' for Active; 'I' for Inactive)
REMARK    1  A    between atoms: C_1  and  O_2
REMARK    2  A    between atoms: O_2  and  C_3
REMARK    3  A    between atoms: N_8  and  C_9
REMARK    4  A    between atoms: C_14  and  O_15
REMARK    5  A    between atoms: O_15  and  C_16
REMARK    6  A    between atoms: C_16  and  C_17
REMARK                            x       y       z     vdW  Elec       q    Type
REMARK                         _______ _______ _______ _____ _____    ______ ____
ROOT
ATOM      1  C   UNL     1       1.946   5.393  20.434  0.00  0.00    +0.000 A 
ATOM      2  C   UNL     1       0.961   4.402  20.359  0.00  0.00    +0.000 A 
ATOM      3  C   UNL     1       1.126   3.288  19.523  0.00  0.00    +0.000 A 
ATOM      4  C   UNL     1       2.270   3.163  18.728  0.00  0.00    +0.000 A 
ATOM      5 CL   UNL     1       2.412   1.787  17.696  0.00  0.00    +0.000 Cl
ATOM      6  C   UNL     1       3.255   4.149  18.767  0.00  0.00    +0.000 A 
ATOM      7  C   UNL     1       3.096   5.222  19.656  0.00  0.00    +0.000 A 
ENDROOT
BRANCH   1  13
ATOM      8  C   UNL     1       1.388   9.551  19.284  0.00  0.00    +0.000 A 
ATOM      9  C   UNL     1       0.822  10.425  20.169  0.00  0.00    +0.000 A 
ATOM     10  C   UNL     1       0.628   9.919  21.426  0.00  0.00    +0.000 A 
ATOM     11  N   UNL     1       0.953   8.659  21.788  0.00  0.00    +0.000 NA
ATOM     12  C   UNL     1       1.474   7.865  20.840  0.00  0.00    +0.000 A 
ATOM     13  N   UNL     1       1.728   6.541  21.215  0.00  0.00    +0.000 N 
ATOM     14  N   UNL     1       1.705   8.283  19.589  0.00  0.00    +0.000 NA
ATOM     15  H   UNL     1       1.474   6.409  22.184  0.00  0.00    +0.000 HD
BRANCH   8  17
ATOM     16  C   UNL     1       2.116  11.371  18.017  0.00  0.00    +0.000 C 
ATOM     17  O   UNL     1       1.634  10.033  18.011  0.00  0.00    +0.000 OA
ENDBRANCH   8  17
ENDBRANCH   1  13
BRANCH   6  18
ATOM     18  O   UNL     1       4.341   4.030  17.927  0.00  0.00    +0.000 OA
BRANCH  18  19
ATOM     19  C   UNL     1       4.676   5.232  17.223  0.00  0.00    +0.000 C 
BRANCH  19  20
ATOM     20  C   UNL     1       5.900   5.924  17.770  0.00  0.00    +0.000 A 
ATOM     21  C   UNL     1       6.736   5.298  18.704  0.00  0.00    +0.000 A 
ATOM     22  C   UNL     1       7.916   5.915  19.124  0.00  0.00    +0.000 A 
ATOM     23  C   UNL     1       8.280   7.157  18.608  0.00  0.00    +0.000 A 
ATOM     24  C   UNL     1       7.458   7.778  17.676  0.00  0.00    +0.000 A 
ATOM     25  F   UNL     1       7.815   8.960  17.158  0.00  0.00    +0.000 F 
ATOM     26  C   UNL     1       6.281   7.174  17.252  0.00  0.00    +0.000 A 
ENDBRANCH  19  20
ENDBRANCH  18  19
ENDBRANCH   6  18
TORSDOF 5
ENDMDL
MODEL 9
REMARK VINA RESULT:      -7.9      4.537      7.508
REMARK  Name = 
REMARK  6 active torsions:
REMARK  status: ('A' for Active; 'I' for Inactive)
REMARK    1  A    between atoms: C_1  and  O_2
REMARK    2  A    between atoms: O_2  and  C_3
REMARK    3  A    between atoms: N_8  and  C_9
REMARK    4  A    between atoms: C_14  and  O_15
REMARK    5  A    between atoms: O_15  and  C_16
REMARK    6  A    between atoms: C_16  and  C_17
REMARK                            x       y       z     vdW  Elec       q    Type
REMARK                         _______ _______ _______ _____ _____    ______ ____
ROOT
ATOM      1  C   UNL     1       2.109   5.281  20.413  0.00  0.00    +0.000 A 
ATOM      2  C   UNL     1       1.204   4.448  19.745  0.00  0.00    +0.000 A 
ATOM      3  C   UNL     1       1.657   3.357  18.989  0.00  0.00    +0.000 A 
ATOM      4  C   UNL     1       3.026   3.098  18.870  0.00  0.00    +0.000 A 
ATOM      5 CL   UNL     1       3.532   1.758  17.907  0.00  0.00    +0.000 Cl
ATOM      6  C   UNL     1       3.948   3.927  19.507  0.00  0.00    +0.000 A 
ATOM      7  C   UNL     1       3.469   4.975  20.306  0.00  0.00    +0.000 A 
ENDROOT
BRANCH   1  13
ATOM      8  C   UNL     1       1.485   9.365  19.052  0.00  0.00    +0.000 A 
ATOM      9  C   UNL     1       0.679  10.201  19.774  0.00  0.00    +0.000 A 
ATOM     10  C   UNL     1       0.264   9.695  20.976  0.00  0.00    +0.000 A 
ATOM     11  N   UNL     1       0.603   8.471  21.435  0.00  0.00    +0.000 NA
ATOM     12  C   UNL     1       1.372   7.710  20.640  0.00  0.00    +0.000 A 
ATOM     13  N   UNL     1       1.642   6.416  21.098  0.00  0.00    +0.000 N 
ATOM     14  N   UNL     1       1.827   8.132  19.453  0.00  0.00    +0.000 NA
ATOM     15  H   UNL     1       1.201   6.275  21.996  0.00  0.00    +0.000 HD
BRANCH   8  17
ATOM     16  C   UNL     1       2.296  11.230  17.908  0.00  0.00    +0.000 C 
ATOM     17  O   UNL     1       1.956   9.851  17.846  0.00  0.00    +0.000 OA
ENDBRANCH   8  17
ENDBRANCH   1  13
BRANCH   6  18
ATOM     18  O   UNL     1       5.292   3.684  19.320  0.00  0.00    +0.000 OA
BRANCH  18  19
ATOM     19  C   UNL     1       6.043   4.827  18.892  0.00  0.00    +0.000 C 
BRANCH  19  20
ATOM     20  C   UNL     1       6.042   5.017  17.396  0.00  0.00    +0.000 A 
ATOM     21  C   UNL     1       6.614   4.067  16.539  0.00  0.00    +0.000 A 
ATOM     22  C   UNL     1       6.517   4.213  15.153  0.00  0.00    +0.000 A 
ATOM     23  C   UNL     1       5.840   5.302  14.609  0.00  0.00    +0.000 A 
ATOM     24  C   UNL     1       5.265   6.243  15.454  0.00  0.00    +0.000 A 
ATOM     25  F   UNL     1       4.591   7.278  14.937  0.00  0.00    +0.000 F 
ATOM     26  C   UNL     1       5.356   6.108  16.835  0.00  0.00    +0.000 A 
ENDBRANCH  19  20
ENDBRANCH  18  19
ENDBRANCH   6  18
TORSDOF 5
ENDMDL
