MODEL 1
REMARK VINA RESULT:      -7.4      0.000      0.000
REMARK  Name = 
REMARK  2 active torsions:
REMARK  status: ('A' for Active; 'I' for Inactive)
REMARK    1  A    between atoms: C_2  and  C_3
REMARK    2  A    between atoms: N_10  and  C_11
REMARK                            x       y       z     vdW  Elec       q    Type
REMARK                         _______ _______ _______ _____ _____    ______ ____
ROOT
ATOM      1  C   UNL     1       5.301   5.317  18.971  0.00  0.00    +0.000 C 
ATOM      2  C   UNL     1       6.827   5.457  19.009  0.00  0.00    +0.000 C 
ATOM      3  C   UNL     1       7.548   4.915  17.787  0.00  0.00    +0.000 C 
ATOM      4  C   UNL     1       6.914   5.405  16.476  0.00  0.00    +0.000 C 
ATOM      5  C   UNL     1       5.390   5.345  16.538  0.00  0.00    +0.000 C 
ATOM      6  C   UNL     1       5.084   3.900  16.155  0.00  0.00    +0.000 C 
ATOM      7  C   UNL     1       6.362   3.354  15.522  0.00  0.00    +0.000 C 
ATOM      8  N   UNL     1       7.280   4.502  15.355  0.00  0.00    +0.000 NA
ATOM      9  O   UNL     1       4.803   5.830  17.736  0.00  0.00    +0.000 OA
ENDROOT
BRANCH   1  11
ATOM     10  O   UNL     1       5.206   3.018  19.783  0.00  0.00    +0.000 OA
ATOM     11  C   UNL     1       4.555   4.017  19.454  0.00  0.00    +0.000 C 
ATOM     12  N   UNL     1       3.178   3.903  19.374  0.00  0.00    +0.000 N 
ATOM     13  C   UNL     1       2.526   2.748  20.010  0.00  0.00    +0.000 C 
ATOM     14  C   UNL     1       1.802   3.224  21.277  0.00  0.00    +0.000 C 
ATOM     15  O   UNL     1       0.887   4.301  20.984  0.00  0.00    +0.000 OA
ATOM     16  C   UNL     1       1.553   5.407  20.347  0.00  0.00    +0.000 C 
ATOM     17  C   UNL     1       2.212   4.942  19.047  0.00  0.00    +0.000 C 
ENDBRANCH   1  11
BRANCH   8  18
ATOM     18  C   UNL     1       7.070   5.082  14.015  0.00  0.00    +0.000 C 
ATOM     19  C   UNL     1       8.294   5.686  13.328  0.00  0.00    +0.000 C 
ATOM     20  C   UNL     1       7.856   5.767  11.874  0.00  0.00    +0.000 C 
ATOM     21  C   UNL     1       7.070   4.485  11.637  0.00  0.00    +0.000 C 
ATOM     22  C   UNL     1       6.612   4.005  13.015  0.00  0.00    +0.000 C 
ENDBRANCH   8  18
TORSDOF 2
ENDMDL
MODEL 2
REMARK VINA RESULT:      -7.3      1.407      1.947
REMARK  Name = 
REMARK  2 active torsions:
REMARK  status: ('A' for Active; 'I' for Inactive)
REMARK    1  A    between atoms: C_2  and  C_3
REMARK    2  A    between atoms: N_10  and  C_11
REMARK                            x       y       z     vdW  Elec       q    Type
REMARK                         _______ _______ _______ _____ _____    ______ ____
ROOT
ATOM      1  C   UNL     1       3.438   5.384  17.737  0.00  0.00    +0.000 C 
ATOM      2  C   UNL     1       3.938   6.756  17.269  0.00  0.00    +0.000 C 
ATOM      3  C   UNL     1       5.334   6.757  16.671  0.00  0.00    +0.000 C 
ATOM      4  C   UNL     1       5.517   5.644  15.627  0.00  0.00    +0.000 C 
ATOM      5  C   UNL     1       4.903   4.329  16.102  0.00  0.00    +0.000 C 
ATOM      6  C   UNL     1       6.008   3.719  16.959  0.00  0.00    +0.000 C 
ATOM      7  C   UNL     1       7.283   4.483  16.604  0.00  0.00    +0.000 C 
ATOM      8  N   UNL     1       6.959   5.339  15.443  0.00  0.00    +0.000 NA
ATOM      9  O   UNL     1       3.614   4.428  16.692  0.00  0.00    +0.000 OA
ENDROOT
BRANCH   1  11
ATOM     10  O   UNL     1       4.603   5.353  19.880  0.00  0.00    +0.000 OA
ATOM     11  C   UNL     1       3.749   4.809  19.169  0.00  0.00    +0.000 C 
ATOM     12  N   UNL     1       3.204   3.613  19.601  0.00  0.00    +0.000 N 
ATOM     13  C   UNL     1       3.380   3.223  21.008  0.00  0.00    +0.000 C 
ATOM     14  C   UNL     1       2.041   3.394  21.740  0.00  0.00    +0.000 C 
ATOM     15  O   UNL     1       0.986   2.666  21.078  0.00  0.00    +0.000 OA
ATOM     16  C   UNL     1       0.852   3.059  19.699  0.00  0.00    +0.000 C 
ATOM     17  C   UNL     1       2.169   2.818  18.957  0.00  0.00    +0.000 C 
ENDBRANCH   1  11
BRANCH   8  18
ATOM     18  C   UNL     1       7.269   4.594  14.208  0.00  0.00    +0.000 C 
ATOM     19  C   UNL     1       6.088   3.959  13.474  0.00  0.00    +0.000 C 
ATOM     20  C   UNL     1       6.661   3.687  12.092  0.00  0.00    +0.000 C 
ATOM     21  C   UNL     1       7.531   4.899  11.790  0.00  0.00    +0.000 C 
ATOM     22  C   UNL     1       7.876   5.524  13.142  0.00  0.00    +0.000 C 
ENDBRANCH   8  18
TORSDOF 2
ENDMDL
MODEL 3
REMARK VINA RESULT:      -6.7      1.163      1.207
REMARK  Name = 
REMARK  2 active torsions:
REMARK  status: ('A' for Active; 'I' for Inactive)
REMARK    1  A    between atoms: C_2  and  C_3
REMARK    2  A    between atoms: N_10  and  C_11
REMARK                            x       y       z     vdW  Elec       q    Type
REMARK                         _______ _______ _______ _____ _____    ______ ____
ROOT
ATOM      1  C   UNL     1       4.055   5.565  18.325  0.00  0.00    +0.000 C 
ATOM      2  C   UNL     1       5.075   6.708  18.261  0.00  0.00    +0.000 C 
ATOM      3  C   UNL     1       6.240   6.471  17.316  0.00  0.00    +0.000 C 
ATOM      4  C   UNL     1       5.774   5.980  15.936  0.00  0.00    +0.000 C 
ATOM      5  C   UNL     1       4.681   4.923  16.061  0.00  0.00    +0.000 C 
ATOM      6  C   UNL     1       5.468   3.631  16.264  0.00  0.00    +0.000 C 
ATOM      7  C   UNL     1       6.903   3.946  15.847  0.00  0.00    +0.000 C 
ATOM      8  N   UNL     1       6.884   5.290  15.230  0.00  0.00    +0.000 NA
ATOM      9  O   UNL     1       3.656   5.205  17.003  0.00  0.00    +0.000 OA
ENDROOT
BRANCH   1  11
ATOM     10  O   UNL     1       5.334   4.055  19.751  0.00  0.00    +0.000 OA
ATOM     11  C   UNL     1       4.221   4.329  19.286  0.00  0.00    +0.000 C 
ATOM     12  N   UNL     1       3.183   3.441  19.507  0.00  0.00    +0.000 N 
ATOM     13  C   UNL     1       3.338   2.419  20.553  0.00  0.00    +0.000 C 
ATOM     14  C   UNL     1       2.456   2.800  21.751  0.00  0.00    +0.000 C 
ATOM     15  O   UNL     1       1.083   2.997  21.348  0.00  0.00    +0.000 OA
ATOM     16  C   UNL     1       0.970   3.989  20.311  0.00  0.00    +0.000 C 
ATOM     17  C   UNL     1       1.794   3.569  19.093  0.00  0.00    +0.000 C 
ENDBRANCH   1  11
BRANCH   8  18
ATOM     18  C   UNL     1       6.679   5.139  13.778  0.00  0.00    +0.000 C 
ATOM     19  C   UNL     1       7.909   5.318  12.888  0.00  0.00    +0.000 C 
ATOM     20  C   UNL     1       7.471   4.678  11.579  0.00  0.00    +0.000 C 
ATOM     21  C   UNL     1       6.673   3.452  11.999  0.00  0.00    +0.000 C 
ATOM     22  C   UNL     1       6.211   3.714  13.433  0.00  0.00    +0.000 C 
ENDBRANCH   8  18
TORSDOF 2
ENDMDL
MODEL 4
REMARK VINA RESULT:      -5.8      1.312      2.007
REMARK  Name = 
REMARK  2 active torsions:
REMARK  status: ('A' for Active; 'I' for Inactive)
REMARK    1  A    between atoms: C_2  and  C_3
REMARK    2  A    between atoms: N_10  and  C_11
REMARK                            x       y       z     vdW  Elec       q    Type
REMARK                         _______ _______ _______ _____ _____    ______ ____
ROOT
ATOM      1  C   UNL     1       4.680   5.928  19.188  0.00  0.00    +0.000 C 
ATOM      2  C   UNL     1       6.047   5.248  19.325  0.00  0.00    +0.000 C 
ATOM      3  C   UNL     1       6.446   4.374  18.150  0.00  0.00    +0.000 C 
ATOM      4  C   UNL     1       6.243   5.086  16.803  0.00  0.00    +0.000 C 
ATOM      5  C   UNL     1       4.914   5.836  16.766  0.00  0.00    +0.000 C 
ATOM      6  C   UNL     1       3.917   4.757  16.354  0.00  0.00    +0.000 C 
ATOM      7  C   UNL     1       4.753   3.604  15.801  0.00  0.00    +0.000 C 
ATOM      8  N   UNL     1       6.145   4.094  15.702  0.00  0.00    +0.000 NA
ATOM      9  O   UNL     1       4.600   6.592  17.926  0.00  0.00    +0.000 OA
ENDROOT
BRANCH   1  11
ATOM     10  O   UNL     1       2.304   5.899  19.740  0.00  0.00    +0.000 OA
ATOM     11  C   UNL     1       3.335   5.228  19.612  0.00  0.00    +0.000 C 
ATOM     12  N   UNL     1       3.303   3.899  19.998  0.00  0.00    +0.000 N 
ATOM     13  C   UNL     1       1.998   3.253  20.202  0.00  0.00    +0.000 C 
ATOM     14  C   UNL     1       1.738   2.287  19.038  0.00  0.00    +0.000 C 
ATOM     15  O   UNL     1       2.820   1.344  18.888  0.00  0.00    +0.000 OA
ATOM     16  C   UNL     1       4.085   2.009  18.709  0.00  0.00    +0.000 C 
ATOM     17  C   UNL     1       4.372   2.916  19.907  0.00  0.00    +0.000 C 
ENDBRANCH   1  11
BRANCH   8  18
ATOM     18  C   UNL     1       6.350   4.660  14.355  0.00  0.00    +0.000 C 
ATOM     19  C   UNL     1       7.761   5.145  14.022  0.00  0.00    +0.000 C 
ATOM     20  C   UNL     1       7.734   5.230  12.503  0.00  0.00    +0.000 C 
ATOM     21  C   UNL     1       6.932   4.013  12.063  0.00  0.00    +0.000 C 
ATOM     22  C   UNL     1       6.084   3.603  13.268  0.00  0.00    +0.000 C 
ENDBRANCH   8  18
TORSDOF 2
ENDMDL
MODEL 5
REMARK VINA RESULT:      -5.7      7.196      9.831
REMARK  Name = 
REMARK  2 active torsions:
REMARK  status: ('A' for Active; 'I' for Inactive)
REMARK    1  A    between atoms: C_2  and  C_3
REMARK    2  A    between atoms: N_10  and  C_11
REMARK                            x       y       z     vdW  Elec       q    Type
REMARK                         _______ _______ _______ _____ _____    ______ ____
ROOT
ATOM      1  C   UNL     1      -1.158  12.239  20.730  0.00  0.00    +0.000 C 
ATOM      2  C   UNL     1       0.253  12.726  20.378  0.00  0.00    +0.000 C 
ATOM      3  C   UNL     1       1.335  11.664  20.467  0.00  0.00    +0.000 C 
ATOM      4  C   UNL     1       0.933  10.366  19.750  0.00  0.00    +0.000 C 
ATOM      5  C   UNL     1      -0.516   9.990  20.051  0.00  0.00    +0.000 C 
ATOM      6  C   UNL     1      -0.412   9.237  21.375  0.00  0.00    +0.000 C 
ATOM      7  C   UNL     1       1.065   8.880  21.537  0.00  0.00    +0.000 C 
ATOM      8  N   UNL     1       1.731   9.223  20.262  0.00  0.00    +0.000 NA
ATOM      9  O   UNL     1      -1.454  11.054  19.991  0.00  0.00    +0.000 OA
ENDROOT
BRANCH   1  11
ATOM     10  O   UNL     1      -0.952  11.875  23.133  0.00  0.00    +0.000 OA
ATOM     11  C   UNL     1      -1.702  12.206  22.207  0.00  0.00    +0.000 C 
ATOM     12  N   UNL     1      -3.045  12.388  22.486  0.00  0.00    +0.000 N 
ATOM     13  C   UNL     1      -3.462  12.533  23.889  0.00  0.00    +0.000 C 
ATOM     14  C   UNL     1      -3.837  13.999  24.145  0.00  0.00    +0.000 C 
ATOM     15  O   UNL     1      -4.834  14.456  23.207  0.00  0.00    +0.000 OA
ATOM     16  C   UNL     1      -4.402  14.284  21.844  0.00  0.00    +0.000 C 
ATOM     17  C   UNL     1      -4.098  12.809  21.574  0.00  0.00    +0.000 C 
ENDBRANCH   1  11
BRANCH   8  18
ATOM     18  C   UNL     1       1.718   8.034  19.389  0.00  0.00    +0.000 C 
ATOM     19  C   UNL     1       2.693   8.036  18.212  0.00  0.00    +0.000 C 
ATOM     20  C   UNL     1       2.747   6.567  17.820  0.00  0.00    +0.000 C 
ATOM     21  C   UNL     1       2.730   5.815  19.144  0.00  0.00    +0.000 C 
ATOM     22  C   UNL     1       2.127   6.772  20.171  0.00  0.00    +0.000 C 
ENDBRANCH   8  18
TORSDOF 2
ENDMDL
MODEL 6
REMARK VINA RESULT:      -5.4      8.335     10.899
REMARK  Name = 
REMARK  2 active torsions:
REMARK  status: ('A' for Active; 'I' for Inactive)
REMARK    1  A    between atoms: C_2  and  C_3
REMARK    2  A    between atoms: N_10  and  C_11
REMARK                            x       y       z     vdW  Elec       q    Type
REMARK                         _______ _______ _______ _____ _____    ______ ____
ROOT
ATOM      1  C   UNL     1      -2.048  13.495  20.325  0.00  0.00    +0.000 C 
ATOM      2  C   UNL     1      -0.816  14.078  19.623  0.00  0.00    +0.000 C 
ATOM      3  C   UNL     1       0.419  13.195  19.662  0.00  0.00    +0.000 C 
ATOM      4  C   UNL     1       0.106  11.745  19.259  0.00  0.00    +0.000 C 
ATOM      5  C   UNL     1      -1.189  11.256  19.901  0.00  0.00    +0.000 C 
ATOM      6  C   UNL     1      -0.736  10.783  21.280  0.00  0.00    +0.000 C 
ATOM      7  C   UNL     1       0.783  10.649  21.198  0.00  0.00    +0.000 C 
ATOM      8  N   UNL     1       1.152  10.827  19.777  0.00  0.00    +0.000 NA
ATOM      9  O   UNL     1      -2.279  12.165  19.860  0.00  0.00    +0.000 OA
ENDROOT
BRANCH   1  11
ATOM     10  O   UNL     1      -1.383  13.994  22.618  0.00  0.00    +0.000 OA
ATOM     11  C   UNL     1      -2.312  13.672  21.867  0.00  0.00    +0.000 C 
ATOM     12  N   UNL     1      -3.525  13.327  22.437  0.00  0.00    +0.000 N 
ATOM     13  C   UNL     1      -3.775  13.689  23.840  0.00  0.00    +0.000 C 
ATOM     14  C   UNL     1      -4.780  14.848  23.880  0.00  0.00    +0.000 C 
ATOM     15  O   UNL     1      -5.985  14.522  23.155  0.00  0.00    +0.000 OA
ATOM     16  C   UNL     1      -5.703  14.156  21.791  0.00  0.00    +0.000 C 
ATOM     17  C   UNL     1      -4.757  12.954  21.758  0.00  0.00    +0.000 C 
ENDBRANCH   1  11
BRANCH   8  18
ATOM     18  C   UNL     1       1.174   9.503  19.127  0.00  0.00    +0.000 C 
ATOM     19  C   UNL     1       2.089   9.349  17.912  0.00  0.00    +0.000 C 
ATOM     20  C   UNL     1       2.217   7.839  17.780  0.00  0.00    +0.000 C 
ATOM     21  C   UNL     1       2.313   7.334  19.213  0.00  0.00    +0.000 C 
ATOM     22  C   UNL     1       1.699   8.424  20.091  0.00  0.00    +0.000 C 
ENDBRANCH   8  18
TORSDOF 2
ENDMDL
MODEL 7
REMARK VINA RESULT:      -5.4      2.550      7.019
REMARK  Name = 
REMARK  2 active torsions:
REMARK  status: ('A' for Active; 'I' for Inactive)
REMARK    1  A    between atoms: C_2  and  C_3
REMARK    2  A    between atoms: N_10  and  C_11
REMARK                            x       y       z     vdW  Elec       q    Type
REMARK                         _______ _______ _______ _____ _____    ______ ____
ROOT
ATOM      1  C   UNL     1       4.037   3.685  18.508  0.00  0.00    +0.000 C 
ATOM      2  C   UNL     1       4.904   4.468  19.501  0.00  0.00    +0.000 C 
ATOM      3  C   UNL     1       4.548   5.937  19.641  0.00  0.00    +0.000 C 
ATOM      4  C   UNL     1       3.038   6.150  19.836  0.00  0.00    +0.000 C 
ATOM      5  C   UNL     1       2.225   5.264  18.896  0.00  0.00    +0.000 C 
ATOM      6  C   UNL     1       2.180   6.077  17.605  0.00  0.00    +0.000 C 
ATOM      7  C   UNL     1       2.594   7.496  17.989  0.00  0.00    +0.000 C 
ATOM      8  N   UNL     1       2.659   7.538  19.466  0.00  0.00    +0.000 NA
ATOM      9  O   UNL     1       2.657   3.916  18.791  0.00  0.00    +0.000 OA
ENDROOT
BRANCH   1  11
ATOM     10  O   UNL     1       3.478   3.271  16.170  0.00  0.00    +0.000 OA
ATOM     11  C   UNL     1       4.356   3.621  16.968  0.00  0.00    +0.000 C 
ATOM     12  N   UNL     1       5.643   3.796  16.488  0.00  0.00    +0.000 N 
ATOM     13  C   UNL     1       5.847   3.911  15.037  0.00  0.00    +0.000 C 
ATOM     14  C   UNL     1       6.176   5.371  14.698  0.00  0.00    +0.000 C 
ATOM     15  O   UNL     1       7.301   5.847  15.468  0.00  0.00    +0.000 OA
ATOM     16  C   UNL     1       7.076   5.703  16.883  0.00  0.00    +0.000 C 
ATOM     17  C   UNL     1       6.819   4.234  17.225  0.00  0.00    +0.000 C 
ENDBRANCH   1  11
BRANCH   8  18
ATOM     18  C   UNL     1       1.346   7.966  19.984  0.00  0.00    +0.000 C 
ATOM     19  C   UNL     1       1.236   8.169  21.494  0.00  0.00    +0.000 C 
ATOM     20  C   UNL     1      -0.029   9.004  21.628  0.00  0.00    +0.000 C 
ATOM     21  C   UNL     1       0.027   9.977  20.459  0.00  0.00    +0.000 C 
ATOM     22  C   UNL     1       0.957   9.346  19.423  0.00  0.00    +0.000 C 
ENDBRANCH   8  18
TORSDOF 2
ENDMDL
MODEL 8
REMARK VINA RESULT:      -5.3      7.451      9.889
REMARK  Name = 
REMARK  2 active torsions:
REMARK  status: ('A' for Active; 'I' for Inactive)
REMARK    1  A    between atoms: C_2  and  C_3
REMARK    2  A    between atoms: N_10  and  C_11
REMARK                            x       y       z     vdW  Elec       q    Type
REMARK                         _______ _______ _______ _____ _____    ______ ____
ROOT
ATOM      1  C   UNL     1      -1.368  12.615  18.624  0.00  0.00    +0.000 C 
ATOM      2  C   UNL     1       0.085  13.070  18.446  0.00  0.00    +0.000 C 
ATOM      3  C   UNL     1       1.126  12.115  19.003  0.00  0.00    +0.000 C 
ATOM      4  C   UNL     1       0.874  10.664  18.564  0.00  0.00    +0.000 C 
ATOM      5  C   UNL     1      -0.606  10.302  18.659  0.00  0.00    +0.000 C 
ATOM      6  C   UNL     1      -0.772   9.897  20.121  0.00  0.00    +0.000 C 
ATOM      7  C   UNL     1       0.641   9.661  20.652  0.00  0.00    +0.000 C 
ATOM      8  N   UNL     1       1.551   9.718  19.488  0.00  0.00    +0.000 NA
ATOM      9  O   UNL     1      -1.511  11.274  18.156  0.00  0.00    +0.000 OA
ENDROOT
BRANCH   1  11
ATOM     10  O   UNL     1      -1.651  13.451  20.898  0.00  0.00    +0.000 OA
ATOM     11  C   UNL     1      -2.198  12.913  19.928  0.00  0.00    +0.000 C 
ATOM     12  N   UNL     1      -3.493  12.449  20.082  0.00  0.00    +0.000 N 
ATOM     13  C   UNL     1      -4.279  12.915  21.234  0.00  0.00    +0.000 C 
ATOM     14  C   UNL     1      -5.343  13.905  20.739  0.00  0.00    +0.000 C 
ATOM     15  O   UNL     1      -6.155  13.324  19.697  0.00  0.00    +0.000 OA
ATOM     16  C   UNL     1      -5.354  12.862  18.593  0.00  0.00    +0.000 C 
ATOM     17  C   UNL     1      -4.343  11.822  19.081  0.00  0.00    +0.000 C 
ENDBRANCH   1  11
BRANCH   8  18
ATOM     18  C   UNL     1       1.713   8.354  18.949  0.00  0.00    +0.000 C 
ATOM     19  C   UNL     1       2.833   8.146  17.931  0.00  0.00    +0.000 C 
ATOM     20  C   UNL     1       3.010   6.635  17.932  0.00  0.00    +0.000 C 
ATOM     21  C   UNL     1       2.857   6.232  19.392  0.00  0.00    +0.000 C 
ATOM     22  C   UNL     1       2.076   7.360  20.067  0.00  0.00    +0.000 C 
ENDBRANCH   8  18
TORSDOF 2
ENDMDL
MODEL 9
REMARK VINA RESULT:      -5.3      9.896     14.169
REMARK  Name = 
REMARK  2 active torsions:
REMARK  status: ('A' for Active; 'I' for Inactive)
REMARK    1  A    between atoms: C_2  and  C_3
REMARK    2  A    between atoms: N_10  and  C_11
REMARK                            x       y       z     vdW  Elec       q    Type
REMARK                         _______ _______ _______ _____ _____    ______ ____
ROOT
ATOM      1  C   UNL     1      -0.623  12.304  21.182  0.00  0.00    +0.000 C 
ATOM      2  C   UNL     1      -0.859  11.356  22.364  0.00  0.00    +0.000 C 
ATOM      3  C   UNL     1      -1.860  11.853  23.392  0.00  0.00    +0.000 C 
ATOM      4  C   UNL     1      -3.155  12.362  22.740  0.00  0.00    +0.000 C 
ATOM      5  C   UNL     1      -2.860  13.210  21.505  0.00  0.00    +0.000 C 
ATOM      6  C   UNL     1      -2.600  14.596  22.089  0.00  0.00    +0.000 C 
ATOM      7  C   UNL     1      -3.143  14.557  23.516  0.00  0.00    +0.000 C 
ATOM      8  N   UNL     1      -3.873  13.279  23.661  0.00  0.00    +0.000 NA
ATOM      9  O   UNL     1      -1.877  12.691  20.621  0.00  0.00    +0.000 OA
ENDROOT
BRANCH   1  11
ATOM     10  O   UNL     1       0.685  14.031  22.303  0.00  0.00    +0.000 OA
ATOM     11  C   UNL     1       0.429  13.474  21.228  0.00  0.00    +0.000 C 
ATOM     12  N   UNL     1       0.967  14.008  20.070  0.00  0.00    +0.000 N 
ATOM     13  C   UNL     1       2.077  14.965  20.183  0.00  0.00    +0.000 C 
ATOM     14  C   UNL     1       3.374  14.273  19.739  0.00  0.00    +0.000 C 
ATOM     15  O   UNL     1       3.241  13.711  18.416  0.00  0.00    +0.000 OA
ATOM     16  C   UNL     1       2.135  12.793  18.336  0.00  0.00    +0.000 C 
ATOM     17  C   UNL     1       0.835  13.507  18.710  0.00  0.00    +0.000 C 
ENDBRANCH   1  11
BRANCH   8  18
ATOM     18  C   UNL     1      -5.289  13.503  23.313  0.00  0.00    +0.000 C 
ATOM     19  C   UNL     1      -6.320  12.644  24.044  0.00  0.00    +0.000 C 
ATOM     20  C   UNL     1      -7.616  13.403  23.807  0.00  0.00    +0.000 C 
ATOM     21  C   UNL     1      -7.229  14.871  23.925  0.00  0.00    +0.000 C 
ATOM     22  C   UNL     1      -5.723  14.937  23.669  0.00  0.00    +0.000 C 
ENDBRANCH   8  18
TORSDOF 2
ENDMDL
