MODEL 1
REMARK VINA RESULT:      -6.5      0.000      0.000
REMARK  Name = 
REMARK  7 active torsions:
REMARK  status: ('A' for Active; 'I' for Inactive)
REMARK    1  A    between atoms: C_1  and  C_2
REMARK    2  A    between atoms: C_2  and  C_3
REMARK    3  A    between atoms: C_3  and  C_4
REMARK    4  A    between atoms: N_6  and  C_7
REMARK    5  A    between atoms: N_14  and  N_15
REMARK    6  A    between atoms: N_15  and  C_16
REMARK    7  A    between atoms: C_16  and  N_17
REMARK                            x       y       z     vdW  Elec       q    Type
REMARK                         _______ _______ _______ _____ _____    ______ ____
ROOT
ATOM      1  C   UNL     1       5.231   6.199  15.704  0.00  0.00    +0.000 C 
ENDROOT
BRANCH   1   2
ATOM      2  C   UNL     1       4.473   5.809  16.953  0.00  0.00    +0.000 C 
ATOM      3  O   UNL     1       4.400   6.564  17.918  0.00  0.00    +0.000 OA
ATOM      4  N   UNL     1       3.968   4.515  16.932  0.00  0.00    +0.000 N 
ATOM      5  H   UNL     1       4.377   3.868  16.270  0.00  0.00    +0.000 HD
BRANCH   4   6
ATOM      6  C   UNL     1       3.292   3.962  18.038  0.00  0.00    +0.000 A 
ATOM      7  C   UNL     1       1.913   4.124  18.221  0.00  0.00    +0.000 A 
ATOM      8  C   UNL     1       1.292   3.649  19.376  0.00  0.00    +0.000 A 
ATOM      9  C   UNL     1       2.054   3.022  20.358  0.00  0.00    +0.000 A 
ATOM     10 CL   UNL     1       1.308   2.508  21.819  0.00  0.00    +0.000 Cl
ATOM     11  C   UNL     1       3.421   2.822  20.168  0.00  0.00    +0.000 A 
ATOM     12  C   UNL     1       4.035   3.263  18.993  0.00  0.00    +0.000 A 
ENDBRANCH   4   6
ENDBRANCH   1   2
BRANCH   1  14
ATOM     13  C   UNL     1       7.289   4.609  15.739  0.00  0.00    +0.000 C 
ATOM     14  C   UNL     1       5.993   5.044  15.086  0.00  0.00    +0.000 C 
ATOM     15  N   UNL     1       5.473   4.463  14.040  0.00  0.00    +0.000 NA
BRANCH  15  16
ATOM     16  N   UNL     1       6.168   3.419  13.495  0.00  0.00    +0.000 N 
ATOM     17  H   UNL     1       6.905   2.947  14.012  0.00  0.00    +0.000 HD
BRANCH  16  18
ATOM     18  C   UNL     1       5.914   2.945  12.238  0.00  0.00    +0.000 C 
ATOM     19  S   UNL     1       4.473   3.236  11.469  0.00  0.00    +0.000 S 
BRANCH  18  20
ATOM     20  N   UNL     1       6.904   2.232  11.656  0.00  0.00    +0.000 N 
ATOM     21  H   UNL     1       6.680   1.297  11.346  0.00  0.00    +0.000 HD
ATOM     22  H   UNL     1       7.825   2.619  11.521  0.00  0.00    +0.000 HD
ENDBRANCH  18  20
ENDBRANCH  16  18
ENDBRANCH  15  16
ENDBRANCH   1  14
TORSDOF 6
ENDMDL
MODEL 2
REMARK VINA RESULT:      -6.4      4.303      5.556
REMARK  Name = 
REMARK  7 active torsions:
REMARK  status: ('A' for Active; 'I' for Inactive)
REMARK    1  A    between atoms: C_1  and  C_2
REMARK    2  A    between atoms: C_2  and  C_3
REMARK    3  A    between atoms: C_3  and  C_4
REMARK    4  A    between atoms: N_6  and  C_7
REMARK    5  A    between atoms: N_14  and  N_15
REMARK    6  A    between atoms: N_15  and  C_16
REMARK    7  A    between atoms: C_16  and  N_17
REMARK                            x       y       z     vdW  Elec       q    Type
REMARK                         _______ _______ _______ _____ _____    ______ ____
ROOT
ATOM      1  C   UNL     1       3.454   3.853  17.406  0.00  0.00    +0.000 C 
ENDROOT
BRANCH   1   2
ATOM      2  C   UNL     1       2.497   4.945  17.831  0.00  0.00    +0.000 C 
ATOM      3  O   UNL     1       1.288   4.841  17.649  0.00  0.00    +0.000 OA
ATOM      4  N   UNL     1       3.116   6.078  18.343  0.00  0.00    +0.000 N 
ATOM      5  H   UNL     1       4.095   6.211  18.122  0.00  0.00    +0.000 HD
BRANCH   4   6
ATOM      6  C   UNL     1       2.383   7.219  18.726  0.00  0.00    +0.000 A 
ATOM      7  C   UNL     1       2.104   8.256  17.827  0.00  0.00    +0.000 A 
ATOM      8  C   UNL     1       1.463   9.415  18.263  0.00  0.00    +0.000 A 
ATOM      9  C   UNL     1       1.110   9.544  19.603  0.00  0.00    +0.000 A 
ATOM     10 CL   UNL     1       0.393  11.004  20.162  0.00  0.00    +0.000 Cl
ATOM     11  C   UNL     1       1.348   8.500  20.498  0.00  0.00    +0.000 A 
ATOM     12  C   UNL     1       1.956   7.324  20.052  0.00  0.00    +0.000 A 
ENDBRANCH   4   6
ENDBRANCH   1   2
BRANCH   1  14
ATOM     13  C   UNL     1       4.695   3.048  19.545  0.00  0.00    +0.000 C 
ATOM     14  C   UNL     1       4.719   3.816  18.239  0.00  0.00    +0.000 C 
ATOM     15  N   UNL     1       5.775   4.422  17.769  0.00  0.00    +0.000 NA
BRANCH  15  16
ATOM     16  N   UNL     1       6.911   4.377  18.528  0.00  0.00    +0.000 N 
ATOM     17  H   UNL     1       7.293   3.494  18.855  0.00  0.00    +0.000 HD
BRANCH  16  18
ATOM     18  C   UNL     1       7.600   5.503  18.886  0.00  0.00    +0.000 C 
ATOM     19  S   UNL     1       7.596   6.866  17.942  0.00  0.00    +0.000 S 
BRANCH  18  20
ATOM     20  N   UNL     1       8.277   5.443  20.055  0.00  0.00    +0.000 N 
ATOM     21  H   UNL     1       7.767   5.669  20.897  0.00  0.00    +0.000 HD
ATOM     22  H   UNL     1       9.248   5.171  20.090  0.00  0.00    +0.000 HD
ENDBRANCH  18  20
ENDBRANCH  16  18
ENDBRANCH  15  16
ENDBRANCH   1  14
TORSDOF 6
ENDMDL
MODEL 3
REMARK VINA RESULT:      -6.4      4.161      5.243
REMARK  Name = 
REMARK  7 active torsions:
REMARK  status: ('A' for Active; 'I' for Inactive)
REMARK    1  A    between atoms: C_1  and  C_2
REMARK    2  A    between atoms: C_2  and  C_3
REMARK    3  A    between atoms: C_3  and  C_4
REMARK    4  A    between atoms: N_6  and  C_7
REMARK    5  A    between atoms: N_14  and  N_15
REMARK    6  A    between atoms: N_15  and  C_16
REMARK    7  A    between atoms: C_16  and  N_17
REMARK                            x       y       z     vdW  Elec       q    Type
REMARK                         _______ _______ _______ _____ _____    ______ ____
ROOT
ATOM      1  C   UNL     1       3.780   3.581  17.279  0.00  0.00    +0.000 C 
ENDROOT
BRANCH   1   2
ATOM      2  C   UNL     1       2.802   4.634  17.749  0.00  0.00    +0.000 C 
ATOM      3  O   UNL     1       1.590   4.478  17.629  0.00  0.00    +0.000 OA
ATOM      4  N   UNL     1       3.398   5.794  18.226  0.00  0.00    +0.000 N 
ATOM      5  H   UNL     1       4.358   5.966  17.955  0.00  0.00    +0.000 HD
BRANCH   4   6
ATOM      6  C   UNL     1       2.638   6.904  18.643  0.00  0.00    +0.000 A 
ATOM      7  C   UNL     1       2.304   7.944  17.766  0.00  0.00    +0.000 A 
ATOM      8  C   UNL     1       1.636   9.076  18.233  0.00  0.00    +0.000 A 
ATOM      9  C   UNL     1       1.313   9.175  19.584  0.00  0.00    +0.000 A 
ATOM     10 CL   UNL     1       0.562  10.603  20.181  0.00  0.00    +0.000 Cl
ATOM     11  C   UNL     1       1.607   8.128  20.457  0.00  0.00    +0.000 A 
ATOM     12  C   UNL     1       2.241   6.978  19.980  0.00  0.00    +0.000 A 
ENDBRANCH   4   6
ENDBRANCH   1   2
BRANCH   1  14
ATOM     13  C   UNL     1       5.622   4.418  15.645  0.00  0.00    +0.000 C 
ATOM     14  C   UNL     1       5.178   4.124  17.063  0.00  0.00    +0.000 C 
ATOM     15  N   UNL     1       5.916   4.340  18.117  0.00  0.00    +0.000 NA
BRANCH  15  16
ATOM     16  N   UNL     1       7.174   4.835  17.909  0.00  0.00    +0.000 N 
ATOM     17  H   UNL     1       7.800   4.416  17.227  0.00  0.00    +0.000 HD
BRANCH  16  18
ATOM     18  C   UNL     1       7.661   5.914  18.593  0.00  0.00    +0.000 C 
ATOM     19  S   UNL     1       7.715   7.426  17.915  0.00  0.00    +0.000 S 
BRANCH  18  20
ATOM     20  N   UNL     1       8.089   5.679  19.854  0.00  0.00    +0.000 N 
ATOM     21  H   UNL     1       8.902   5.090  19.965  0.00  0.00    +0.000 HD
ATOM     22  H   UNL     1       7.627   6.087  20.653  0.00  0.00    +0.000 HD
ENDBRANCH  18  20
ENDBRANCH  16  18
ENDBRANCH  15  16
ENDBRANCH   1  14
TORSDOF 6
ENDMDL
MODEL 4
REMARK VINA RESULT:      -6.3      0.332      1.172
REMARK  Name = 
REMARK  7 active torsions:
REMARK  status: ('A' for Active; 'I' for Inactive)
REMARK    1  A    between atoms: C_1  and  C_2
REMARK    2  A    between atoms: C_2  and  C_3
REMARK    3  A    between atoms: C_3  and  C_4
REMARK    4  A    between atoms: N_6  and  C_7
REMARK    5  A    between atoms: N_14  and  N_15
REMARK    6  A    between atoms: N_15  and  C_16
REMARK    7  A    between atoms: C_16  and  N_17
REMARK                            x       y       z     vdW  Elec       q    Type
REMARK                         _______ _______ _______ _____ _____    ______ ____
ROOT
ATOM      1  C   UNL     1       5.265   6.097  15.498  0.00  0.00    +0.000 C 
ENDROOT
BRANCH   1   2
ATOM      2  C   UNL     1       4.702   5.808  16.872  0.00  0.00    +0.000 C 
ATOM      3  O   UNL     1       4.981   6.512  17.838  0.00  0.00    +0.000 OA
ATOM      4  N   UNL     1       3.941   4.648  16.944  0.00  0.00    +0.000 N 
ATOM      5  H   UNL     1       4.066   3.966  16.206  0.00  0.00    +0.000 HD
BRANCH   4   6
ATOM      6  C   UNL     1       3.395   4.190  18.159  0.00  0.00    +0.000 A 
ATOM      7  C   UNL     1       4.085   3.300  18.992  0.00  0.00    +0.000 A 
ATOM      8  C   UNL     1       3.477   2.788  20.137  0.00  0.00    +0.000 A 
ATOM      9  C   UNL     1       2.170   3.156  20.445  0.00  0.00    +0.000 A 
ATOM     10 CL   UNL     1       1.387   2.465  21.812  0.00  0.00    +0.000 Cl
ATOM     11  C   UNL     1       1.489   4.071  19.643  0.00  0.00    +0.000 A 
ATOM     12  C   UNL     1       2.113   4.614  18.517  0.00  0.00    +0.000 A 
ENDBRANCH   4   6
ENDBRANCH   1   2
BRANCH   1  14
ATOM     13  C   UNL     1       7.191   4.355  15.619  0.00  0.00    +0.000 C 
ATOM     14  C   UNL     1       5.986   4.912  14.890  0.00  0.00    +0.000 C 
ATOM     15  N   UNL     1       5.509   4.412  13.783  0.00  0.00    +0.000 NA
BRANCH  15  16
ATOM     16  N   UNL     1       6.166   3.339  13.247  0.00  0.00    +0.000 N 
ATOM     17  H   UNL     1       6.986   2.943  13.698  0.00  0.00    +0.000 HD
BRANCH  16  18
ATOM     18  C   UNL     1       5.764   2.736  12.088  0.00  0.00    +0.000 C 
ATOM     19  S   UNL     1       4.354   3.163  11.325  0.00  0.00    +0.000 S 
BRANCH  18  20
ATOM     20  N   UNL     1       6.581   1.778  11.597  0.00  0.00    +0.000 N 
ATOM     21  H   UNL     1       7.258   2.060  10.902  0.00  0.00    +0.000 HD
ATOM     22  H   UNL     1       6.530   0.824  11.919  0.00  0.00    +0.000 HD
ENDBRANCH  18  20
ENDBRANCH  16  18
ENDBRANCH  15  16
ENDBRANCH   1  14
TORSDOF 6
ENDMDL
MODEL 5
REMARK VINA RESULT:      -6.3      2.507      2.843
REMARK  Name = 
REMARK  7 active torsions:
REMARK  status: ('A' for Active; 'I' for Inactive)
REMARK    1  A    between atoms: C_1  and  C_2
REMARK    2  A    between atoms: C_2  and  C_3
REMARK    3  A    between atoms: C_3  and  C_4
REMARK    4  A    between atoms: N_6  and  C_7
REMARK    5  A    between atoms: N_14  and  N_15
REMARK    6  A    between atoms: N_15  and  C_16
REMARK    7  A    between atoms: C_16  and  N_17
REMARK                            x       y       z     vdW  Elec       q    Type
REMARK                         _______ _______ _______ _____ _____    ______ ____
ROOT
ATOM      1  C   UNL     1       7.344   6.004  18.912  0.00  0.00    +0.000 C 
ENDROOT
BRANCH   1   2
ATOM      2  C   UNL     1       6.095   5.186  19.153  0.00  0.00    +0.000 C 
ATOM      3  O   UNL     1       6.011   4.414  20.103  0.00  0.00    +0.000 OA
ATOM      4  N   UNL     1       5.125   5.323  18.168  0.00  0.00    +0.000 N 
ATOM      5  H   UNL     1       5.424   5.686  17.271  0.00  0.00    +0.000 HD
BRANCH   4   6
ATOM      6  C   UNL     1       3.926   4.584  18.196  0.00  0.00    +0.000 A 
ATOM      7  C   UNL     1       2.768   5.075  18.813  0.00  0.00    +0.000 A 
ATOM      8  C   UNL     1       1.628   4.278  18.911  0.00  0.00    +0.000 A 
ATOM      9  C   UNL     1       1.648   2.983  18.402  0.00  0.00    +0.000 A 
ATOM     10 CL   UNL     1       0.272   1.968  18.592  0.00  0.00    +0.000 Cl
ATOM     11  C   UNL     1       2.783   2.499  17.752  0.00  0.00    +0.000 A 
ATOM     12  C   UNL     1       3.912   3.312  17.620  0.00  0.00    +0.000 A 
ENDBRANCH   4   6
ENDBRANCH   1   2
BRANCH   1  14
ATOM     13  C   UNL     1       7.695   7.879  17.144  0.00  0.00    +0.000 C 
ATOM     14  C   UNL     1       7.518   6.409  17.462  0.00  0.00    +0.000 C 
ATOM     15  N   UNL     1       7.539   5.462  16.565  0.00  0.00    +0.000 NA
BRANCH  15  16
ATOM     16  N   UNL     1       7.701   5.840  15.261  0.00  0.00    +0.000 N 
ATOM     17  H   UNL     1       8.181   6.701  15.016  0.00  0.00    +0.000 HD
BRANCH  16  18
ATOM     18  C   UNL     1       7.239   5.088  14.216  0.00  0.00    +0.000 C 
ATOM     19  S   UNL     1       6.042   3.958  14.415  0.00  0.00    +0.000 S 
BRANCH  18  20
ATOM     20  N   UNL     1       7.808   5.323  13.012  0.00  0.00    +0.000 N 
ATOM     21  H   UNL     1       8.747   4.978  12.870  0.00  0.00    +0.000 HD
ATOM     22  H   UNL     1       7.314   5.808  12.280  0.00  0.00    +0.000 HD
ENDBRANCH  18  20
ENDBRANCH  16  18
ENDBRANCH  15  16
ENDBRANCH   1  14
TORSDOF 6
ENDMDL
MODEL 6
REMARK VINA RESULT:      -6.3      4.264      5.709
REMARK  Name = 
REMARK  7 active torsions:
REMARK  status: ('A' for Active; 'I' for Inactive)
REMARK    1  A    between atoms: C_1  and  C_2
REMARK    2  A    between atoms: C_2  and  C_3
REMARK    3  A    between atoms: C_3  and  C_4
REMARK    4  A    between atoms: N_6  and  C_7
REMARK    5  A    between atoms: N_14  and  N_15
REMARK    6  A    between atoms: N_15  and  C_16
REMARK    7  A    between atoms: C_16  and  N_17
REMARK                            x       y       z     vdW  Elec       q    Type
REMARK                         _______ _______ _______ _____ _____    ______ ____
ROOT
ATOM      1  C   UNL     1       3.103   3.697  20.450  0.00  0.00    +0.000 C 
ENDROOT
BRANCH   1   2
ATOM      2  C   UNL     1       2.211   4.891  20.195  0.00  0.00    +0.000 C 
ATOM      3  O   UNL     1       0.989   4.779  20.155  0.00  0.00    +0.000 OA
ATOM      4  N   UNL     1       2.897   6.069  19.925  0.00  0.00    +0.000 N 
ATOM      5  H   UNL     1       3.861   5.986  19.630  0.00  0.00    +0.000 HD
BRANCH   4   6
ATOM      6  C   UNL     1       2.225   7.264  19.599  0.00  0.00    +0.000 A 
ATOM      7  C   UNL     1       2.231   7.786  18.300  0.00  0.00    +0.000 A 
ATOM      8  C   UNL     1       1.641   9.021  18.032  0.00  0.00    +0.000 A 
ATOM      9  C   UNL     1       1.055   9.742  19.068  0.00  0.00    +0.000 A 
ATOM     10 CL   UNL     1       0.398  11.302  18.758  0.00  0.00    +0.000 Cl
ATOM     11  C   UNL     1       1.010   9.213  20.357  0.00  0.00    +0.000 A 
ATOM     12  C   UNL     1       1.566   7.958  20.617  0.00  0.00    +0.000 A 
ENDBRANCH   4   6
ENDBRANCH   1   2
BRANCH   1  14
ATOM     13  C   UNL     1       3.669   2.547  18.186  0.00  0.00    +0.000 C 
ATOM     14  C   UNL     1       4.093   3.446  19.330  0.00  0.00    +0.000 C 
ATOM     15  N   UNL     1       5.250   4.046  19.395  0.00  0.00    +0.000 NA
BRANCH  15  16
ATOM     16  N   UNL     1       6.132   3.815  18.376  0.00  0.00    +0.000 N 
ATOM     17  H   UNL     1       6.162   2.919  17.896  0.00  0.00    +0.000 HD
BRANCH  16  18
ATOM     18  C   UNL     1       7.015   4.764  17.940  0.00  0.00    +0.000 C 
ATOM     19  S   UNL     1       6.788   5.576  16.512  0.00  0.00    +0.000 S 
BRANCH  18  20
ATOM     20  N   UNL     1       8.077   5.006  18.740  0.00  0.00    +0.000 N 
ATOM     21  H   UNL     1       8.897   5.410  18.310  0.00  0.00    +0.000 HD
ATOM     22  H   UNL     1       8.050   4.807  19.728  0.00  0.00    +0.000 HD
ENDBRANCH  18  20
ENDBRANCH  16  18
ENDBRANCH  15  16
ENDBRANCH   1  14
TORSDOF 6
ENDMDL
MODEL 7
REMARK VINA RESULT:      -6.3      4.188      5.580
REMARK  Name = 
REMARK  7 active torsions:
REMARK  status: ('A' for Active; 'I' for Inactive)
REMARK    1  A    between atoms: C_1  and  C_2
REMARK    2  A    between atoms: C_2  and  C_3
REMARK    3  A    between atoms: C_3  and  C_4
REMARK    4  A    between atoms: N_6  and  C_7
REMARK    5  A    between atoms: N_14  and  N_15
REMARK    6  A    between atoms: N_15  and  C_16
REMARK    7  A    between atoms: C_16  and  N_17
REMARK                            x       y       z     vdW  Elec       q    Type
REMARK                         _______ _______ _______ _____ _____    ______ ____
ROOT
ATOM      1  C   UNL     1       2.854   3.478  20.648  0.00  0.00    +0.000 C 
ENDROOT
BRANCH   1   2
ATOM      2  C   UNL     1       2.066   4.750  20.425  0.00  0.00    +0.000 C 
ATOM      3  O   UNL     1       0.839   4.746  20.407  0.00  0.00    +0.000 OA
ATOM      4  N   UNL     1       2.848   5.866  20.157  0.00  0.00    +0.000 N 
ATOM      5  H   UNL     1       3.797   5.702  19.843  0.00  0.00    +0.000 HD
BRANCH   4   6
ATOM      6  C   UNL     1       2.279   7.120  19.859  0.00  0.00    +0.000 A 
ATOM      7  C   UNL     1       1.564   7.855  20.813  0.00  0.00    +0.000 A 
ATOM      8  C   UNL     1       0.930   9.045  20.459  0.00  0.00    +0.000 A 
ATOM      9  C   UNL     1       0.998   9.495  19.144  0.00  0.00    +0.000 A 
ATOM     10 CL   UNL     1       0.150  10.919  18.683  0.00  0.00    +0.000 Cl
ATOM     11  C   UNL     1       1.739   8.791  18.195  0.00  0.00    +0.000 A 
ATOM     12  C   UNL     1       2.408   7.620  18.561  0.00  0.00    +0.000 A 
ENDBRANCH   4   6
ENDBRANCH   1   2
BRANCH   1  14
ATOM     13  C   UNL     1       3.513   2.153  18.510  0.00  0.00    +0.000 C 
ATOM     14  C   UNL     1       3.858   3.201  19.547  0.00  0.00    +0.000 C 
ATOM     15  N   UNL     1       4.956   3.907  19.533  0.00  0.00    +0.000 NA
BRANCH  15  16
ATOM     16  N   UNL     1       5.851   3.650  18.532  0.00  0.00    +0.000 N 
ATOM     17  H   UNL     1       6.469   2.844  18.569  0.00  0.00    +0.000 HD
BRANCH  16  18
ATOM     18  C   UNL     1       5.966   4.449  17.428  0.00  0.00    +0.000 C 
ATOM     19  S   UNL     1       5.838   6.100  17.527  0.00  0.00    +0.000 S 
BRANCH  18  20
ATOM     20  N   UNL     1       6.195   3.818  16.254  0.00  0.00    +0.000 N 
ATOM     21  H   UNL     1       5.773   4.214  15.426  0.00  0.00    +0.000 HD
ATOM     22  H   UNL     1       6.774   2.995  16.201  0.00  0.00    +0.000 HD
ENDBRANCH  18  20
ENDBRANCH  16  18
ENDBRANCH  15  16
ENDBRANCH   1  14
TORSDOF 6
ENDMDL
MODEL 8
REMARK VINA RESULT:      -6.3      4.338      5.453
REMARK  Name = 
REMARK  7 active torsions:
REMARK  status: ('A' for Active; 'I' for Inactive)
REMARK    1  A    between atoms: C_1  and  C_2
REMARK    2  A    between atoms: C_2  and  C_3
REMARK    3  A    between atoms: C_3  and  C_4
REMARK    4  A    between atoms: N_6  and  C_7
REMARK    5  A    between atoms: N_14  and  N_15
REMARK    6  A    between atoms: N_15  and  C_16
REMARK    7  A    between atoms: C_16  and  N_17
REMARK                            x       y       z     vdW  Elec       q    Type
REMARK                         _______ _______ _______ _____ _____    ______ ____
ROOT
ATOM      1  C   UNL     1       3.464   3.666  19.372  0.00  0.00    +0.000 C 
ENDROOT
BRANCH   1   2
ATOM      2  C   UNL     1       2.519   4.847  19.339  0.00  0.00    +0.000 C 
ATOM      3  O   UNL     1       1.315   4.697  19.154  0.00  0.00    +0.000 OA
ATOM      4  N   UNL     1       3.147   6.082  19.441  0.00  0.00    +0.000 N 
ATOM      5  H   UNL     1       4.136   6.118  19.230  0.00  0.00    +0.000 HD
BRANCH   4   6
ATOM      6  C   UNL     1       2.428   7.291  19.361  0.00  0.00    +0.000 A 
ATOM      7  C   UNL     1       1.762   7.831  20.469  0.00  0.00    +0.000 A 
ATOM      8  C   UNL     1       0.978   8.977  20.333  0.00  0.00    +0.000 A 
ATOM      9  C   UNL     1       0.848   9.576  19.084  0.00  0.00    +0.000 A 
ATOM     10 CL   UNL     1      -0.182  10.940  18.894  0.00  0.00    +0.000 Cl
ATOM     11  C   UNL     1       1.537   9.068  17.983  0.00  0.00    +0.000 A 
ATOM     12  C   UNL     1       2.354   7.944  18.128  0.00  0.00    +0.000 A 
ENDBRANCH   4   6
ENDBRANCH   1   2
BRANCH   1  14
ATOM     13  C   UNL     1       4.330   3.570  16.922  0.00  0.00    +0.000 C 
ATOM     14  C   UNL     1       4.612   3.797  18.392  0.00  0.00    +0.000 C 
ATOM     15  N   UNL     1       5.781   4.131  18.867  0.00  0.00    +0.000 NA
BRANCH  15  16
ATOM     16  N   UNL     1       6.808   4.251  17.972  0.00  0.00    +0.000 N 
ATOM     17  H   UNL     1       7.242   3.433  17.554  0.00  0.00    +0.000 HD
BRANCH  16  18
ATOM     18  C   UNL     1       7.305   5.464  17.583  0.00  0.00    +0.000 C 
ATOM     19  S   UNL     1       7.896   6.558  18.681  0.00  0.00    +0.000 S 
BRANCH  18  20
ATOM     20  N   UNL     1       7.294   5.718  16.255  0.00  0.00    +0.000 N 
ATOM     21  H   UNL     1       8.059   6.261  15.882  0.00  0.00    +0.000 HD
ATOM     22  H   UNL     1       6.562   5.368  15.657  0.00  0.00    +0.000 HD
ENDBRANCH  18  20
ENDBRANCH  16  18
ENDBRANCH  15  16
ENDBRANCH   1  14
TORSDOF 6
ENDMDL
MODEL 9
REMARK VINA RESULT:      -6.2      1.315      1.555
REMARK  Name = 
REMARK  7 active torsions:
REMARK  status: ('A' for Active; 'I' for Inactive)
REMARK    1  A    between atoms: C_1  and  C_2
REMARK    2  A    between atoms: C_2  and  C_3
REMARK    3  A    between atoms: C_3  and  C_4
REMARK    4  A    between atoms: N_6  and  C_7
REMARK    5  A    between atoms: N_14  and  N_15
REMARK    6  A    between atoms: N_15  and  C_16
REMARK    7  A    between atoms: C_16  and  N_17
REMARK                            x       y       z     vdW  Elec       q    Type
REMARK                         _______ _______ _______ _____ _____    ______ ____
ROOT
ATOM      1  C   UNL     1       7.159   4.553  15.612  0.00  0.00    +0.000 C 
ENDROOT
BRANCH   1   2
ATOM      2  C   UNL     1       5.897   4.740  16.424  0.00  0.00    +0.000 C 
ATOM      3  O   UNL     1       5.486   5.858  16.719  0.00  0.00    +0.000 OA
ATOM      4  N   UNL     1       5.324   3.555  16.867  0.00  0.00    +0.000 N 
ATOM      5  H   UNL     1       5.914   2.732  16.883  0.00  0.00    +0.000 HD
BRANCH   4   6
ATOM      6  C   UNL     1       4.181   3.542  17.692  0.00  0.00    +0.000 A 
ATOM      7  C   UNL     1       2.885   3.555  17.162  0.00  0.00    +0.000 A 
ATOM      8  C   UNL     1       1.778   3.643  18.005  0.00  0.00    +0.000 A 
ATOM      9  C   UNL     1       1.966   3.732  19.381  0.00  0.00    +0.000 A 
ATOM     10 CL   UNL     1       0.608   3.922  20.419  0.00  0.00    +0.000 Cl
ATOM     11  C   UNL     1       3.251   3.681  19.921  0.00  0.00    +0.000 A 
ATOM     12  C   UNL     1       4.358   3.553  19.078  0.00  0.00    +0.000 A 
ENDBRANCH   4   6
ENDBRANCH   1   2
BRANCH   1  14
ATOM     13  C   UNL     1       7.882   5.302  13.229  0.00  0.00    +0.000 C 
ATOM     14  C   UNL     1       6.909   4.556  14.118  0.00  0.00    +0.000 C 
ATOM     15  N   UNL     1       5.882   3.884  13.672  0.00  0.00    +0.000 NA
BRANCH  15  16
ATOM     16  N   UNL     1       5.670   3.890  12.321  0.00  0.00    +0.000 N 
ATOM     17  H   UNL     1       5.936   4.687  11.749  0.00  0.00    +0.000 HD
BRANCH  16  18
ATOM     18  C   UNL     1       5.100   2.836  11.663  0.00  0.00    +0.000 C 
ATOM     19  S   UNL     1       3.624   2.967  10.918  0.00  0.00    +0.000 S 
BRANCH  18  20
ATOM     20  N   UNL     1       5.809   1.685  11.649  0.00  0.00    +0.000 N 
ATOM     21  H   UNL     1       5.727   1.101  10.829  0.00  0.00    +0.000 HD
ATOM     22  H   UNL     1       6.408   1.424  12.417  0.00  0.00    +0.000 HD
ENDBRANCH  18  20
ENDBRANCH  16  18
ENDBRANCH  15  16
ENDBRANCH   1  14
TORSDOF 6
ENDMDL
