MODEL 1
REMARK VINA RESULT:      -6.0      0.000      0.000
REMARK  Name = 
REMARK  7 active torsions:
REMARK  status: ('A' for Active; 'I' for Inactive)
REMARK    1  A    between atoms: C_1  and  C_2
REMARK    2  A    between atoms: C_2  and  O_3
REMARK    3  A    between atoms: C_2  and  C_4
REMARK    4  A    between atoms: C_4  and  N_5
REMARK    5  A    between atoms: N_5  and  C_6
REMARK    6  A    between atoms: N_5  and  C_7
REMARK    7  A    between atoms: C_13  and  C_14
REMARK                            x       y       z     vdW  Elec       q    Type
REMARK                         _______ _______ _______ _____ _____    ______ ____
ROOT
ATOM      1  C   UNL     1       4.887   4.773  17.861  0.00  0.00    +0.000 A 
ATOM      2  C   UNL     1       4.378   6.016  17.370  0.00  0.00    +0.000 A 
ATOM      3 CL   UNL     1       5.068   6.839  16.002  0.00  0.00    +0.000 Cl
ATOM      4  C   UNL     1       3.248   6.646  17.922  0.00  0.00    +0.000 A 
ATOM      5  C   UNL     1       2.545   6.047  18.955  0.00  0.00    +0.000 A 
ATOM      6  C   UNL     1       2.991   4.831  19.457  0.00  0.00    +0.000 A 
ATOM      7  C   UNL     1       4.157   4.208  18.943  0.00  0.00    +0.000 A 
ENDROOT
BRANCH   1   8
ATOM      8  N   UNL     1       6.039   4.195  17.271  0.00  0.00    +0.000 N 
ATOM      9  C   UNL     1       5.857   3.811  15.860  0.00  0.00    +0.000 C 
BRANCH   8  10
ATOM     10  C   UNL     1       7.408   4.626  17.649  0.00  0.00    +0.000 C 
BRANCH  10  12
ATOM     11  C   UNL     1       7.871   7.118  18.232  0.00  0.00    +0.000 C 
ATOM     12  C   UNL     1       7.420   5.747  18.713  0.00  0.00    +0.000 C 
BRANCH  12  13
ATOM     13  O   UNL     1       8.248   5.357  19.812  0.00  0.00    +0.000 OA
ATOM     14  H   UNL     1       8.546   4.451  19.599  0.00  0.00    +0.000 HD
ENDBRANCH  12  13
ENDBRANCH  10  12
ENDBRANCH   8  10
ENDBRANCH   1   8
BRANCH   7  15
ATOM     15  C   UNL     1       4.559   3.026  19.645  0.00  0.00    +0.000 C 
ATOM     16  N   UNL     1       4.897   2.088  20.242  0.00  0.00    +0.000 NA
ENDBRANCH   7  15
TORSDOF 5
ENDMDL
MODEL 2
REMARK VINA RESULT:      -5.8      2.392      3.132
REMARK  Name = 
REMARK  7 active torsions:
REMARK  status: ('A' for Active; 'I' for Inactive)
REMARK    1  A    between atoms: C_1  and  C_2
REMARK    2  A    between atoms: C_2  and  O_3
REMARK    3  A    between atoms: C_2  and  C_4
REMARK    4  A    between atoms: C_4  and  N_5
REMARK    5  A    between atoms: N_5  and  C_6
REMARK    6  A    between atoms: N_5  and  C_7
REMARK    7  A    between atoms: C_13  and  C_14
REMARK                            x       y       z     vdW  Elec       q    Type
REMARK                         _______ _______ _______ _____ _____    ______ ____
ROOT
ATOM      1  C   UNL     1       3.983   5.052  18.203  0.00  0.00    +0.000 A 
ATOM      2  C   UNL     1       2.806   5.112  19.013  0.00  0.00    +0.000 A 
ATOM      3 CL   UNL     1       2.606   6.269  20.296  0.00  0.00    +0.000 Cl
ATOM      4  C   UNL     1       1.695   4.274  18.802  0.00  0.00    +0.000 A 
ATOM      5  C   UNL     1       1.685   3.372  17.750  0.00  0.00    +0.000 A 
ATOM      6  C   UNL     1       2.799   3.288  16.926  0.00  0.00    +0.000 A 
ATOM      7  C   UNL     1       3.945   4.091  17.155  0.00  0.00    +0.000 A 
ENDROOT
BRANCH   1   8
ATOM      8  N   UNL     1       5.075   5.914  18.474  0.00  0.00    +0.000 N 
ATOM      9  C   UNL     1       6.080   5.335  19.383  0.00  0.00    +0.000 C 
BRANCH   8  10
ATOM     10  C   UNL     1       5.597   6.855  17.452  0.00  0.00    +0.000 C 
BRANCH  10  12
ATOM     11  C   UNL     1       7.820   8.199  17.567  0.00  0.00    +0.000 C 
ATOM     12  C   UNL     1       7.140   6.855  17.356  0.00  0.00    +0.000 C 
BRANCH  12  13
ATOM     13  O   UNL     1       7.542   6.337  16.086  0.00  0.00    +0.000 OA
ATOM     14  H   UNL     1       7.181   6.963  15.428  0.00  0.00    +0.000 HD
ENDBRANCH  12  13
ENDBRANCH  10  12
ENDBRANCH   8  10
ENDBRANCH   1   8
BRANCH   7  15
ATOM     15  C   UNL     1       5.057   3.801  16.299  0.00  0.00    +0.000 C 
ATOM     16  N   UNL     1       5.976   3.548  15.634  0.00  0.00    +0.000 NA
ENDBRANCH   7  15
TORSDOF 5
ENDMDL
MODEL 3
REMARK VINA RESULT:      -5.8      2.746      4.723
REMARK  Name = 
REMARK  7 active torsions:
REMARK  status: ('A' for Active; 'I' for Inactive)
REMARK    1  A    between atoms: C_1  and  C_2
REMARK    2  A    between atoms: C_2  and  O_3
REMARK    3  A    between atoms: C_2  and  C_4
REMARK    4  A    between atoms: C_4  and  N_5
REMARK    5  A    between atoms: N_5  and  C_6
REMARK    6  A    between atoms: N_5  and  C_7
REMARK    7  A    between atoms: C_13  and  C_14
REMARK                            x       y       z     vdW  Elec       q    Type
REMARK                         _______ _______ _______ _____ _____    ______ ____
ROOT
ATOM      1  C   UNL     1       5.088   4.391  18.216  0.00  0.00    +0.000 A 
ATOM      2  C   UNL     1       4.543   3.986  16.957  0.00  0.00    +0.000 A 
ATOM      3 CL   UNL     1       2.894   3.467  16.770  0.00  0.00    +0.000 Cl
ATOM      4  C   UNL     1       5.284   4.026  15.761  0.00  0.00    +0.000 A 
ATOM      5  C   UNL     1       6.581   4.512  15.755  0.00  0.00    +0.000 A 
ATOM      6  C   UNL     1       7.149   4.931  16.950  0.00  0.00    +0.000 A 
ATOM      7  C   UNL     1       6.432   4.852  18.171  0.00  0.00    +0.000 A 
ENDROOT
BRANCH   1   8
ATOM      8  N   UNL     1       4.295   4.314  19.390  0.00  0.00    +0.000 N 
ATOM      9  C   UNL     1       3.365   5.445  19.555  0.00  0.00    +0.000 C 
BRANCH   8  10
ATOM     10  C   UNL     1       3.830   3.014  19.932  0.00  0.00    +0.000 C 
BRANCH  10  12
ATOM     11  C   UNL     1       1.955   2.834  21.725  0.00  0.00    +0.000 C 
ATOM     12  C   UNL     1       2.320   2.995  20.257  0.00  0.00    +0.000 C 
BRANCH  12  13
ATOM     13  O   UNL     1       1.682   1.953  19.514  0.00  0.00    +0.000 OA
ATOM     14  H   UNL     1       2.318   1.711  18.813  0.00  0.00    +0.000 HD
ENDBRANCH  12  13
ENDBRANCH  10  12
ENDBRANCH   8  10
ENDBRANCH   1   8
BRANCH   7  15
ATOM     15  C   UNL     1       7.194   5.202  19.333  0.00  0.00    +0.000 C 
ATOM     16  N   UNL     1       7.842   5.489  20.254  0.00  0.00    +0.000 NA
ENDBRANCH   7  15
TORSDOF 5
ENDMDL
MODEL 4
REMARK VINA RESULT:      -5.8      2.969      4.032
REMARK  Name = 
REMARK  7 active torsions:
REMARK  status: ('A' for Active; 'I' for Inactive)
REMARK    1  A    between atoms: C_1  and  C_2
REMARK    2  A    between atoms: C_2  and  O_3
REMARK    3  A    between atoms: C_2  and  C_4
REMARK    4  A    between atoms: C_4  and  N_5
REMARK    5  A    between atoms: N_5  and  C_6
REMARK    6  A    between atoms: N_5  and  C_7
REMARK    7  A    between atoms: C_13  and  C_14
REMARK                            x       y       z     vdW  Elec       q    Type
REMARK                         _______ _______ _______ _____ _____    ______ ____
ROOT
ATOM      1  C   UNL     1       3.091   4.116  18.999  0.00  0.00    +0.000 A 
ATOM      2  C   UNL     1       2.794   2.723  19.124  0.00  0.00    +0.000 A 
ATOM      3 CL   UNL     1       3.755   1.486  18.369  0.00  0.00    +0.000 Cl
ATOM      4  C   UNL     1       1.732   2.240  19.911  0.00  0.00    +0.000 A 
ATOM      5  C   UNL     1       0.947   3.115  20.644  0.00  0.00    +0.000 A 
ATOM      6  C   UNL     1       1.205   4.477  20.567  0.00  0.00    +0.000 A 
ATOM      7  C   UNL     1       2.242   4.983  19.742  0.00  0.00    +0.000 A 
ENDROOT
BRANCH   1   8
ATOM      8  N   UNL     1       4.167   4.542  18.180  0.00  0.00    +0.000 N 
ATOM      9  C   UNL     1       5.476   4.517  18.856  0.00  0.00    +0.000 C 
BRANCH   8  10
ATOM     10  C   UNL     1       4.190   4.270  16.721  0.00  0.00    +0.000 C 
BRANCH  10  12
ATOM     11  C   UNL     1       5.827   5.203  14.930  0.00  0.00    +0.000 C 
ATOM     12  C   UNL     1       5.615   4.284  16.122  0.00  0.00    +0.000 C 
BRANCH  12  13
ATOM     13  O   UNL     1       5.990   2.957  15.744  0.00  0.00    +0.000 OA
ATOM     14  H   UNL     1       6.692   2.700  16.373  0.00  0.00    +0.000 HD
ENDBRANCH  12  13
ENDBRANCH  10  12
ENDBRANCH   8  10
ENDBRANCH   1   8
BRANCH   7  15
ATOM     15  C   UNL     1       2.304   6.412  19.671  0.00  0.00    +0.000 C 
ATOM     16  N   UNL     1       2.321   7.572  19.597  0.00  0.00    +0.000 NA
ENDBRANCH   7  15
TORSDOF 5
ENDMDL
MODEL 5
REMARK VINA RESULT:      -5.8      2.124      2.653
REMARK  Name = 
REMARK  7 active torsions:
REMARK  status: ('A' for Active; 'I' for Inactive)
REMARK    1  A    between atoms: C_1  and  C_2
REMARK    2  A    between atoms: C_2  and  O_3
REMARK    3  A    between atoms: C_2  and  C_4
REMARK    4  A    between atoms: C_4  and  N_5
REMARK    5  A    between atoms: N_5  and  C_6
REMARK    6  A    between atoms: N_5  and  C_7
REMARK    7  A    between atoms: C_13  and  C_14
REMARK                            x       y       z     vdW  Elec       q    Type
REMARK                         _______ _______ _______ _____ _____    ______ ____
ROOT
ATOM      1  C   UNL     1       3.547   3.871  19.428  0.00  0.00    +0.000 A 
ATOM      2  C   UNL     1       2.356   4.641  19.243  0.00  0.00    +0.000 A 
ATOM      3 CL   UNL     1       2.246   5.939  18.091  0.00  0.00    +0.000 Cl
ATOM      4  C   UNL     1       1.164   4.376  19.941  0.00  0.00    +0.000 A 
ATOM      5  C   UNL     1       1.087   3.306  20.819  0.00  0.00    +0.000 A 
ATOM      6  C   UNL     1       2.213   2.520  21.021  0.00  0.00    +0.000 A 
ATOM      7  C   UNL     1       3.436   2.804  20.361  0.00  0.00    +0.000 A 
ENDROOT
BRANCH   1   8
ATOM      8  N   UNL     1       4.722   4.197  18.704  0.00  0.00    +0.000 N 
ATOM      9  C   UNL     1       4.679   3.797  17.287  0.00  0.00    +0.000 C 
BRANCH   8  10
ATOM     10  C   UNL     1       5.509   5.419  19.005  0.00  0.00    +0.000 C 
BRANCH  10  12
ATOM     11  C   UNL     1       7.584   6.561  17.935  0.00  0.00    +0.000 C 
ATOM     12  C   UNL     1       6.166   6.042  17.753  0.00  0.00    +0.000 C 
BRANCH  12  13
ATOM     13  O   UNL     1       5.352   7.110  17.264  0.00  0.00    +0.000 OA
ATOM     14  H   UNL     1       5.182   6.894  16.326  0.00  0.00    +0.000 HD
ENDBRANCH  12  13
ENDBRANCH  10  12
ENDBRANCH   8  10
ENDBRANCH   1   8
BRANCH   7  15
ATOM     15  C   UNL     1       4.537   1.982  20.767  0.00  0.00    +0.000 C 
ATOM     16  N   UNL     1       5.407   1.295  21.117  0.00  0.00    +0.000 NA
ENDBRANCH   7  15
TORSDOF 5
ENDMDL
MODEL 6
REMARK VINA RESULT:      -5.7      2.533      3.127
REMARK  Name = 
REMARK  7 active torsions:
REMARK  status: ('A' for Active; 'I' for Inactive)
REMARK    1  A    between atoms: C_1  and  C_2
REMARK    2  A    between atoms: C_2  and  O_3
REMARK    3  A    between atoms: C_2  and  C_4
REMARK    4  A    between atoms: C_4  and  N_5
REMARK    5  A    between atoms: N_5  and  C_6
REMARK    6  A    between atoms: N_5  and  C_7
REMARK    7  A    between atoms: C_13  and  C_14
REMARK                            x       y       z     vdW  Elec       q    Type
REMARK                         _______ _______ _______ _____ _____    ______ ____
ROOT
ATOM      1  C   UNL     1       3.863   5.150  18.187  0.00  0.00    +0.000 A 
ATOM      2  C   UNL     1       3.895   4.028  17.301  0.00  0.00    +0.000 A 
ATOM      3 CL   UNL     1       5.342   3.520  16.479  0.00  0.00    +0.000 Cl
ATOM      4  C   UNL     1       2.771   3.215  17.063  0.00  0.00    +0.000 A 
ATOM      5  C   UNL     1       1.580   3.452  17.730  0.00  0.00    +0.000 A 
ATOM      6  C   UNL     1       1.504   4.521  18.613  0.00  0.00    +0.000 A 
ATOM      7  C   UNL     1       2.614   5.378  18.826  0.00  0.00    +0.000 A 
ENDROOT
BRANCH   1   8
ATOM      8  N   UNL     1       5.027   5.939  18.374  0.00  0.00    +0.000 N 
ATOM      9  C   UNL     1       6.008   5.344  19.298  0.00  0.00    +0.000 C 
BRANCH   8  10
ATOM     10  C   UNL     1       5.592   6.765  17.279  0.00  0.00    +0.000 C 
BRANCH  10  12
ATOM     11  C   UNL     1       7.803   8.103  17.563  0.00  0.00    +0.000 C 
ATOM     12  C   UNL     1       7.137   6.771  17.256  0.00  0.00    +0.000 C 
BRANCH  12  13
ATOM     13  O   UNL     1       7.601   6.315  15.983  0.00  0.00    +0.000 OA
ATOM     14  H   UNL     1       8.492   6.704  15.880  0.00  0.00    +0.000 HD
ENDBRANCH  12  13
ENDBRANCH  10  12
ENDBRANCH   8  10
ENDBRANCH   1   8
BRANCH   7  15
ATOM     15  C   UNL     1       2.343   6.506  19.667  0.00  0.00    +0.000 C 
ATOM     16  N   UNL     1       2.103   7.399  20.371  0.00  0.00    +0.000 NA
ENDBRANCH   7  15
TORSDOF 5
ENDMDL
MODEL 7
REMARK VINA RESULT:      -5.7      2.086      3.175
REMARK  Name = 
REMARK  7 active torsions:
REMARK  status: ('A' for Active; 'I' for Inactive)
REMARK    1  A    between atoms: C_1  and  C_2
REMARK    2  A    between atoms: C_2  and  O_3
REMARK    3  A    between atoms: C_2  and  C_4
REMARK    4  A    between atoms: C_4  and  N_5
REMARK    5  A    between atoms: N_5  and  C_6
REMARK    6  A    between atoms: N_5  and  C_7
REMARK    7  A    between atoms: C_13  and  C_14
REMARK                            x       y       z     vdW  Elec       q    Type
REMARK                         _______ _______ _______ _____ _____    ______ ____
ROOT
ATOM      1  C   UNL     1       3.973   5.578  18.451  0.00  0.00    +0.000 A 
ATOM      2  C   UNL     1       3.058   5.707  19.543  0.00  0.00    +0.000 A 
ATOM      3 CL   UNL     1       2.948   4.533  20.821  0.00  0.00    +0.000 Cl
ATOM      4  C   UNL     1       2.210   6.820  19.695  0.00  0.00    +0.000 A 
ATOM      5  C   UNL     1       2.267   7.874  18.799  0.00  0.00    +0.000 A 
ATOM      6  C   UNL     1       3.151   7.803  17.730  0.00  0.00    +0.000 A 
ATOM      7  C   UNL     1       3.977   6.666  17.536  0.00  0.00    +0.000 A 
ENDROOT
BRANCH   1   8
ATOM      8  N   UNL     1       4.792   4.425  18.345  0.00  0.00    +0.000 N 
ATOM      9  C   UNL     1       4.183   3.332  17.568  0.00  0.00    +0.000 C 
BRANCH   8  10
ATOM     10  C   UNL     1       6.271   4.524  18.268  0.00  0.00    +0.000 C 
BRANCH  10  12
ATOM     11  C   UNL     1       7.766   6.649  18.362  0.00  0.00    +0.000 C 
ATOM     12  C   UNL     1       6.847   5.690  19.103  0.00  0.00    +0.000 C 
BRANCH  12  13
ATOM     13  O   UNL     1       7.550   5.170  20.233  0.00  0.00    +0.000 OA
ATOM     14  H   UNL     1       7.086   4.341  20.465  0.00  0.00    +0.000 HD
ENDBRANCH  12  13
ENDBRANCH  10  12
ENDBRANCH   8  10
ENDBRANCH   1   8
BRANCH   7  15
ATOM     15  C   UNL     1       4.742   6.686  16.325  0.00  0.00    +0.000 C 
ATOM     16  N   UNL     1       5.357   6.739  15.339  0.00  0.00    +0.000 NA
ENDBRANCH   7  15
TORSDOF 5
ENDMDL
MODEL 8
REMARK VINA RESULT:      -5.7      2.794      4.647
REMARK  Name = 
REMARK  7 active torsions:
REMARK  status: ('A' for Active; 'I' for Inactive)
REMARK    1  A    between atoms: C_1  and  C_2
REMARK    2  A    between atoms: C_2  and  O_3
REMARK    3  A    between atoms: C_2  and  C_4
REMARK    4  A    between atoms: C_4  and  N_5
REMARK    5  A    between atoms: N_5  and  C_6
REMARK    6  A    between atoms: N_5  and  C_7
REMARK    7  A    between atoms: C_13  and  C_14
REMARK                            x       y       z     vdW  Elec       q    Type
REMARK                         _______ _______ _______ _____ _____    ______ ____
ROOT
ATOM      1  C   UNL     1       5.196   4.487  18.205  0.00  0.00    +0.000 A 
ATOM      2  C   UNL     1       6.523   5.012  18.115  0.00  0.00    +0.000 A 
ATOM      3 CL   UNL     1       7.409   5.569  19.504  0.00  0.00    +0.000 Cl
ATOM      4  C   UNL     1       7.236   5.072  16.904  0.00  0.00    +0.000 A 
ATOM      5  C   UNL     1       6.681   4.570  15.737  0.00  0.00    +0.000 A 
ATOM      6  C   UNL     1       5.401   4.036  15.777  0.00  0.00    +0.000 A 
ATOM      7  C   UNL     1       4.651   4.013  16.980  0.00  0.00    +0.000 A 
ENDROOT
BRANCH   1   8
ATOM      8  N   UNL     1       4.524   4.467  19.454  0.00  0.00    +0.000 N 
ATOM      9  C   UNL     1       3.628   5.616  19.667  0.00  0.00    +0.000 C 
BRANCH   8  10
ATOM     10  C   UNL     1       4.103   3.195  20.091  0.00  0.00    +0.000 C 
BRANCH  10  12
ATOM     11  C   UNL     1       2.174   2.950  21.817  0.00  0.00    +0.000 C 
ATOM     12  C   UNL     1       2.583   3.124  20.363  0.00  0.00    +0.000 C 
BRANCH  12  13
ATOM     13  O   UNL     1       2.007   2.063  19.599  0.00  0.00    +0.000 OA
ATOM     14  H   UNL     1       1.058   2.285  19.525  0.00  0.00    +0.000 HD
ENDBRANCH  12  13
ENDBRANCH  10  12
ENDBRANCH   8  10
ENDBRANCH   1   8
BRANCH   7  15
ATOM     15  C   UNL     1       3.304   3.547  16.835  0.00  0.00    +0.000 C 
ATOM     16  N   UNL     1       2.199   3.201  16.731  0.00  0.00    +0.000 NA
ENDBRANCH   7  15
TORSDOF 5
ENDMDL
MODEL 9
REMARK VINA RESULT:      -5.6      2.007      2.866
REMARK  Name = 
REMARK  7 active torsions:
REMARK  status: ('A' for Active; 'I' for Inactive)
REMARK    1  A    between atoms: C_1  and  C_2
REMARK    2  A    between atoms: C_2  and  O_3
REMARK    3  A    between atoms: C_2  and  C_4
REMARK    4  A    between atoms: C_4  and  N_5
REMARK    5  A    between atoms: N_5  and  C_6
REMARK    6  A    between atoms: N_5  and  C_7
REMARK    7  A    between atoms: C_13  and  C_14
REMARK                            x       y       z     vdW  Elec       q    Type
REMARK                         _______ _______ _______ _____ _____    ______ ____
ROOT
ATOM      1  C   UNL     1       3.547   4.409  19.300  0.00  0.00    +0.000 A 
ATOM      2  C   UNL     1       2.444   5.320  19.326  0.00  0.00    +0.000 A 
ATOM      3 CL   UNL     1       2.411   6.783  18.387  0.00  0.00    +0.000 Cl
ATOM      4  C   UNL     1       1.277   5.078  20.075  0.00  0.00    +0.000 A 
ATOM      5  C   UNL     1       1.134   3.901  20.792  0.00  0.00    +0.000 A 
ATOM      6  C   UNL     1       2.172   2.979  20.785  0.00  0.00    +0.000 A 
ATOM      7  C   UNL     1       3.373   3.230  20.075  0.00  0.00    +0.000 A 
ENDROOT
BRANCH   1   8
ATOM      8  N   UNL     1       4.702   4.716  18.537  0.00  0.00    +0.000 N 
ATOM      9  C   UNL     1       5.839   5.192  19.343  0.00  0.00    +0.000 C 
BRANCH   8  10
ATOM     10  C   UNL     1       5.053   3.952  17.314  0.00  0.00    +0.000 C 
BRANCH  10  12
ATOM     11  C   UNL     1       5.627   4.813  14.929  0.00  0.00    +0.000 C 
ATOM     12  C   UNL     1       6.038   4.703  16.389  0.00  0.00    +0.000 C 
BRANCH  12  13
ATOM     13  O   UNL     1       7.325   4.084  16.454  0.00  0.00    +0.000 OA
ATOM     14  H   UNL     1       7.344   3.453  15.708  0.00  0.00    +0.000 HD
ENDBRANCH  12  13
ENDBRANCH  10  12
ENDBRANCH   8  10
ENDBRANCH   1   8
BRANCH   7  15
ATOM     15  C   UNL     1       4.395   2.244  20.266  0.00  0.00    +0.000 C 
ATOM     16  N   UNL     1       5.250   1.472  20.421  0.00  0.00    +0.000 NA
ENDBRANCH   7  15
TORSDOF 5
ENDMDL
