MODEL 1
REMARK VINA RESULT:      -8.0      0.000      0.000
REMARK  Name = 
REMARK  5 active torsions:
REMARK  status: ('A' for Active; 'I' for Inactive)
REMARK    1  A    between atoms: C_2  and  CA_7
REMARK    2  A    between atoms: N_3  and  CA_4
REMARK    3  A    between atoms: CA_4  and  C_5
REMARK    4  A    between atoms: C_5  and  O_6
REMARK    5  A    between atoms: C_18  and  C_19
REMARK                            x       y       z     vdW  Elec       q    Type
REMARK                         _______ _______ _______ _____ _____    ______ ____
ROOT
ATOM      1  CA  UNL     1       6.285   4.674  14.824  0.00  0.00    +0.000 A 
ATOM      2  C   UNL     1       5.126   4.071  15.288  0.00  0.00    +0.000 A 
ATOM      3  C   UNL     1       4.662   4.483  16.542  0.00  0.00    +0.000 A 
ATOM      4  C   UNL     1       5.385   5.456  17.230  0.00  0.00    +0.000 A 
ATOM      5  N   UNL     1       4.660   5.731  18.372  0.00  0.00    +0.000 N 
ATOM      6  C   UNL     1       3.582   4.893  18.500  0.00  0.00    +0.000 A 
ATOM      7  C   UNL     1       2.646   4.787  19.533  0.00  0.00    +0.000 A 
ATOM      8  C   UNL     1       1.627   3.845  19.382  0.00  0.00    +0.000 A 
ATOM      9  C   UNL     1       1.550   3.050  18.240  0.00  0.00    +0.000 A 
ATOM     10  C   UNL     1       2.498   3.172  17.217  0.00  0.00    +0.000 A 
ATOM     11  C   UNL     1       3.542   4.109  17.352  0.00  0.00    +0.000 A 
ATOM     12  C   UNL     1       6.587   6.004  16.746  0.00  0.00    +0.000 A 
ATOM     13  N   UNL     1       7.013   5.605  15.508  0.00  0.00    +0.000 NA
ATOM     14  H   UNL     1       4.892   6.447  19.043  0.00  0.00    +0.000 HD
ENDROOT
BRANCH  12  15
ATOM     15  C   UNL     1       7.376   7.013  17.480  0.00  0.00    +0.000 A 
ATOM     16  C   UNL     1       8.116   6.689  18.639  0.00  0.00    +0.000 A 
ATOM     17  C   UNL     1       8.767   7.669  19.393  0.00  0.00    +0.000 A 
ATOM     18  C   UNL     1       8.738   8.986  18.965  0.00  0.00    +0.000 A 
ATOM     19  F   UNL     1       9.361   9.927  19.685  0.00  0.00    +0.000 F 
ATOM     20  C   UNL     1       8.079   9.335  17.795  0.00  0.00    +0.000 A 
ATOM     21  C   UNL     1       7.401   8.355  17.059  0.00  0.00    +0.000 A 
ENDBRANCH  12  15
BRANCH   1  23
ATOM     22  O   UNL     1       7.594   4.957  12.853  0.00  0.00    +0.000 OA
ATOM     23  C   UNL     1       6.779   4.273  13.460  0.00  0.00    +0.000 C 
ATOM     24  N   UNL     1       6.250   3.105  12.948  0.00  0.00    +0.000 N 
ATOM     25  H   UNL     1       5.563   2.614  13.513  0.00  0.00    +0.000 HD
BRANCH  24  26
ATOM     26  CA  UNL     1       6.566   2.656  11.602  0.00  0.00    +0.000 C 
BRANCH  26  27
ATOM     27  C   UNL     1       5.765   1.417  11.201  0.00  0.00    +0.000 C 
BRANCH  27  28
ATOM     28  O   UNL     1       6.526   0.237  11.452  0.00  0.00    +0.000 OA
ATOM     29  H   UNL     1       7.158   0.172  10.714  0.00  0.00    +0.000 HD
ENDBRANCH  27  28
ENDBRANCH  26  27
ENDBRANCH  24  26
ENDBRANCH   1  23
TORSDOF 5
ENDMDL
MODEL 2
REMARK VINA RESULT:      -8.0      2.771      5.693
REMARK  Name = 
REMARK  5 active torsions:
REMARK  status: ('A' for Active; 'I' for Inactive)
REMARK    1  A    between atoms: C_2  and  CA_7
REMARK    2  A    between atoms: N_3  and  CA_4
REMARK    3  A    between atoms: CA_4  and  C_5
REMARK    4  A    between atoms: C_5  and  O_6
REMARK    5  A    between atoms: C_18  and  C_19
REMARK                            x       y       z     vdW  Elec       q    Type
REMARK                         _______ _______ _______ _____ _____    ______ ____
ROOT
ATOM      1  CA  UNL     1       4.838   4.132  17.733  0.00  0.00    +0.000 A 
ATOM      2  C   UNL     1       4.853   3.617  16.445  0.00  0.00    +0.000 A 
ATOM      3  C   UNL     1       5.745   4.205  15.543  0.00  0.00    +0.000 A 
ATOM      4  C   UNL     1       6.545   5.256  15.990  0.00  0.00    +0.000 A 
ATOM      5  N   UNL     1       7.377   5.575  14.937  0.00  0.00    +0.000 N 
ATOM      6  C   UNL     1       7.058   4.865  13.808  0.00  0.00    +0.000 A 
ATOM      7  C   UNL     1       7.597   4.938  12.520  0.00  0.00    +0.000 A 
ATOM      8  C   UNL     1       7.084   4.064  11.559  0.00  0.00    +0.000 A 
ATOM      9  C   UNL     1       6.079   3.154  11.881  0.00  0.00    +0.000 A 
ATOM     10  C   UNL     1       5.553   3.098  13.178  0.00  0.00    +0.000 A 
ATOM     11  C   UNL     1       6.048   3.977  14.162  0.00  0.00    +0.000 A 
ATOM     12  C   UNL     1       6.459   5.784  17.292  0.00  0.00    +0.000 A 
ATOM     13  N   UNL     1       5.598   5.180  18.166  0.00  0.00    +0.000 NA
ATOM     14  H   UNL     1       8.122   6.254  14.976  0.00  0.00    +0.000 HD
ENDROOT
BRANCH  12  15
ATOM     15  C   UNL     1       7.281   6.914  17.767  0.00  0.00    +0.000 A 
ATOM     16  C   UNL     1       8.173   6.788  18.855  0.00  0.00    +0.000 A 
ATOM     17  C   UNL     1       8.861   7.889  19.373  0.00  0.00    +0.000 A 
ATOM     18  C   UNL     1       8.714   9.127  18.769  0.00  0.00    +0.000 A 
ATOM     19  F   UNL     1       9.372  10.183  19.261  0.00  0.00    +0.000 F 
ATOM     20  C   UNL     1       7.900   9.279  17.655  0.00  0.00    +0.000 A 
ATOM     21  C   UNL     1       7.187   8.180  17.160  0.00  0.00    +0.000 A 
ENDBRANCH  12  15
BRANCH   1  23
ATOM     22  O   UNL     1       4.160   2.383  19.202  0.00  0.00    +0.000 OA
ATOM     23  C   UNL     1       3.914   3.486  18.729  0.00  0.00    +0.000 C 
ATOM     24  N   UNL     1       2.785   4.208  19.058  0.00  0.00    +0.000 N 
ATOM     25  H   UNL     1       2.651   5.105  18.600  0.00  0.00    +0.000 HD
BRANCH  24  26
ATOM     26  CA  UNL     1       1.761   3.658  19.932  0.00  0.00    +0.000 C 
BRANCH  26  27
ATOM     27  C   UNL     1       2.095   3.852  21.411  0.00  0.00    +0.000 C 
BRANCH  27  28
ATOM     28  O   UNL     1       2.699   2.672  21.938  0.00  0.00    +0.000 OA
ATOM     29  H   UNL     1       2.851   2.856  22.882  0.00  0.00    +0.000 HD
ENDBRANCH  27  28
ENDBRANCH  26  27
ENDBRANCH  24  26
ENDBRANCH   1  23
TORSDOF 5
ENDMDL
MODEL 3
REMARK VINA RESULT:      -7.9      2.683      5.720
REMARK  Name = 
REMARK  5 active torsions:
REMARK  status: ('A' for Active; 'I' for Inactive)
REMARK    1  A    between atoms: C_2  and  CA_7
REMARK    2  A    between atoms: N_3  and  CA_4
REMARK    3  A    between atoms: CA_4  and  C_5
REMARK    4  A    between atoms: C_5  and  O_6
REMARK    5  A    between atoms: C_18  and  C_19
REMARK                            x       y       z     vdW  Elec       q    Type
REMARK                         _______ _______ _______ _____ _____    ______ ____
ROOT
ATOM      1  CA  UNL     1       4.718   4.127  17.653  0.00  0.00    +0.000 A 
ATOM      2  C   UNL     1       4.794   3.619  16.364  0.00  0.00    +0.000 A 
ATOM      3  C   UNL     1       5.716   4.224  15.503  0.00  0.00    +0.000 A 
ATOM      4  C   UNL     1       6.482   5.282  15.990  0.00  0.00    +0.000 A 
ATOM      5  N   UNL     1       7.354   5.618  14.974  0.00  0.00    +0.000 N 
ATOM      6  C   UNL     1       7.092   4.910  13.829  0.00  0.00    +0.000 A 
ATOM      7  C   UNL     1       7.684   4.997  12.565  0.00  0.00    +0.000 A 
ATOM      8  C   UNL     1       7.223   4.122  11.579  0.00  0.00    +0.000 A 
ATOM      9  C   UNL     1       6.218   3.198  11.854  0.00  0.00    +0.000 A 
ATOM     10  C   UNL     1       5.638   3.127  13.127  0.00  0.00    +0.000 A 
ATOM     11  C   UNL     1       6.079   4.008  14.135  0.00  0.00    +0.000 A 
ATOM     12  C   UNL     1       6.336   5.802  17.289  0.00  0.00    +0.000 A 
ATOM     13  N   UNL     1       5.446   5.182  18.123  0.00  0.00    +0.000 NA
ATOM     14  H   UNL     1       8.088   6.306  15.048  0.00  0.00    +0.000 HD
ENDROOT
BRANCH  12  15
ATOM     15  C   UNL     1       7.122   6.940  17.804  0.00  0.00    +0.000 A 
ATOM     16  C   UNL     1       7.017   8.236  17.252  0.00  0.00    +0.000 A 
ATOM     17  C   UNL     1       7.846   9.281  17.667  0.00  0.00    +0.000 A 
ATOM     18  C   UNL     1       8.755   9.062  18.689  0.00  0.00    +0.000 A 
ATOM     19  F   UNL     1       9.550  10.062  19.090  0.00  0.00    +0.000 F 
ATOM     20  C   UNL     1       8.842   7.822  19.305  0.00  0.00    +0.000 A 
ATOM     21  C   UNL     1       8.032   6.768  18.863  0.00  0.00    +0.000 A 
ENDBRANCH  12  15
BRANCH   1  23
ATOM     22  O   UNL     1       3.257   2.378  18.346  0.00  0.00    +0.000 OA
ATOM     23  C   UNL     1       3.762   3.463  18.606  0.00  0.00    +0.000 C 
ATOM     24  N   UNL     1       3.493   4.157  19.768  0.00  0.00    +0.000 N 
ATOM     25  H   UNL     1       3.942   5.061  19.891  0.00  0.00    +0.000 HD
BRANCH  24  26
ATOM     26  CA  UNL     1       2.513   3.677  20.729  0.00  0.00    +0.000 C 
BRANCH  26  27
ATOM     27  C   UNL     1       1.085   4.063  20.343  0.00  0.00    +0.000 C 
BRANCH  27  28
ATOM     28  O   UNL     1       0.405   2.939  19.786  0.00  0.00    +0.000 OA
ATOM     29  H   UNL     1       0.787   2.816  18.899  0.00  0.00    +0.000 HD
ENDBRANCH  27  28
ENDBRANCH  26  27
ENDBRANCH  24  26
ENDBRANCH   1  23
TORSDOF 5
ENDMDL
MODEL 4
REMARK VINA RESULT:      -7.9      0.489      1.063
REMARK  Name = 
REMARK  5 active torsions:
REMARK  status: ('A' for Active; 'I' for Inactive)
REMARK    1  A    between atoms: C_2  and  CA_7
REMARK    2  A    between atoms: N_3  and  CA_4
REMARK    3  A    between atoms: CA_4  and  C_5
REMARK    4  A    between atoms: C_5  and  O_6
REMARK    5  A    between atoms: C_18  and  C_19
REMARK                            x       y       z     vdW  Elec       q    Type
REMARK                         _______ _______ _______ _____ _____    ______ ____
ROOT
ATOM      1  CA  UNL     1       6.019   4.471  14.905  0.00  0.00    +0.000 A 
ATOM      2  C   UNL     1       4.936   3.778  15.427  0.00  0.00    +0.000 A 
ATOM      3  C   UNL     1       4.521   4.137  16.713  0.00  0.00    +0.000 A 
ATOM      4  C   UNL     1       5.214   5.150  17.376  0.00  0.00    +0.000 A 
ATOM      5  N   UNL     1       4.542   5.355  18.564  0.00  0.00    +0.000 N 
ATOM      6  C   UNL     1       3.537   4.439  18.741  0.00  0.00    +0.000 A 
ATOM      7  C   UNL     1       2.676   4.250  19.825  0.00  0.00    +0.000 A 
ATOM      8  C   UNL     1       1.720   3.238  19.718  0.00  0.00    +0.000 A 
ATOM      9  C   UNL     1       1.630   2.457  18.568  0.00  0.00    +0.000 A 
ATOM     10  C   UNL     1       2.503   2.662  17.493  0.00  0.00    +0.000 A 
ATOM     11  C   UNL     1       3.483   3.671  17.583  0.00  0.00    +0.000 A 
ATOM     12  C   UNL     1       6.341   5.791  16.831  0.00  0.00    +0.000 A 
ATOM     13  N   UNL     1       6.718   5.442  15.562  0.00  0.00    +0.000 NA
ATOM     14  H   UNL     1       4.763   6.076  19.233  0.00  0.00    +0.000 HD
ENDROOT
BRANCH  12  15
ATOM     15  C   UNL     1       7.100   6.843  17.535  0.00  0.00    +0.000 A 
ATOM     16  C   UNL     1       7.080   8.192  17.114  0.00  0.00    +0.000 A 
ATOM     17  C   UNL     1       7.889   9.161  17.714  0.00  0.00    +0.000 A 
ATOM     18  C   UNL     1       8.688   8.808  18.790  0.00  0.00    +0.000 A 
ATOM     19  F   UNL     1       9.463   9.734  19.367  0.00  0.00    +0.000 F 
ATOM     20  C   UNL     1       8.684   7.509  19.277  0.00  0.00    +0.000 A 
ATOM     21  C   UNL     1       7.896   6.533  18.652  0.00  0.00    +0.000 A 
ENDBRANCH  12  15
BRANCH   1  23
ATOM     22  O   UNL     1       7.365   4.736  12.957  0.00  0.00    +0.000 OA
ATOM     23  C   UNL     1       6.455   4.127  13.507  0.00  0.00    +0.000 C 
ATOM     24  N   UNL     1       5.764   3.100  12.897  0.00  0.00    +0.000 N 
ATOM     25  H   UNL     1       5.010   2.664  13.420  0.00  0.00    +0.000 HD
BRANCH  24  26
ATOM     26  CA  UNL     1       6.018   2.732  11.513  0.00  0.00    +0.000 C 
BRANCH  26  27
ATOM     27  C   UNL     1       6.963   1.536  11.395  0.00  0.00    +0.000 C 
BRANCH  27  28
ATOM     28  O   UNL     1       6.214   0.323  11.327  0.00  0.00    +0.000 OA
ATOM     29  H   UNL     1       6.212  -0.034  12.233  0.00  0.00    +0.000 HD
ENDBRANCH  27  28
ENDBRANCH  26  27
ENDBRANCH  24  26
ENDBRANCH   1  23
TORSDOF 5
ENDMDL
MODEL 5
REMARK VINA RESULT:      -7.9      2.611      5.347
REMARK  Name = 
REMARK  5 active torsions:
REMARK  status: ('A' for Active; 'I' for Inactive)
REMARK    1  A    between atoms: C_2  and  CA_7
REMARK    2  A    between atoms: N_3  and  CA_4
REMARK    3  A    between atoms: CA_4  and  C_5
REMARK    4  A    between atoms: C_5  and  O_6
REMARK    5  A    between atoms: C_18  and  C_19
REMARK                            x       y       z     vdW  Elec       q    Type
REMARK                         _______ _______ _______ _____ _____    ______ ____
ROOT
ATOM      1  CA  UNL     1       4.611   4.489  17.761  0.00  0.00    +0.000 A 
ATOM      2  C   UNL     1       4.644   3.902  16.505  0.00  0.00    +0.000 A 
ATOM      3  C   UNL     1       5.603   4.386  15.610  0.00  0.00    +0.000 A 
ATOM      4  C   UNL     1       6.448   5.411  16.033  0.00  0.00    +0.000 A 
ATOM      5  N   UNL     1       7.338   5.622  14.999  0.00  0.00    +0.000 N 
ATOM      6  C   UNL     1       7.019   4.870  13.898  0.00  0.00    +0.000 A 
ATOM      7  C   UNL     1       7.609   4.838  12.631  0.00  0.00    +0.000 A 
ATOM      8  C   UNL     1       7.081   3.944  11.698  0.00  0.00    +0.000 A 
ATOM      9  C   UNL     1       6.011   3.114  12.027  0.00  0.00    +0.000 A 
ATOM     10  C   UNL     1       5.434   3.161  13.302  0.00  0.00    +0.000 A 
ATOM     11  C   UNL     1       5.944   4.064  14.257  0.00  0.00    +0.000 A 
ATOM     12  C   UNL     1       6.346   6.016  17.300  0.00  0.00    +0.000 A 
ATOM     13  N   UNL     1       5.417   5.513  18.169  0.00  0.00    +0.000 NA
ATOM     14  H   UNL     1       8.120   6.257  15.032  0.00  0.00    +0.000 HD
ENDROOT
BRANCH  12  15
ATOM     15  C   UNL     1       7.216   7.121  17.747  0.00  0.00    +0.000 A 
ATOM     16  C   UNL     1       8.158   6.961  18.787  0.00  0.00    +0.000 A 
ATOM     17  C   UNL     1       8.897   8.039  19.283  0.00  0.00    +0.000 A 
ATOM     18  C   UNL     1       8.748   9.288  18.702  0.00  0.00    +0.000 A 
ATOM     19  F   UNL     1       9.454  10.322  19.174  0.00  0.00    +0.000 F 
ATOM     20  C   UNL     1       7.883   9.472  17.633  0.00  0.00    +0.000 A 
ATOM     21  C   UNL     1       7.121   8.396  17.161  0.00  0.00    +0.000 A 
ENDBRANCH  12  15
BRANCH   1  23
ATOM     22  O   UNL     1       3.968   3.287  19.715  0.00  0.00    +0.000 OA
ATOM     23  C   UNL     1       3.613   3.955  18.752  0.00  0.00    +0.000 C 
ATOM     24  N   UNL     1       2.291   4.260  18.497  0.00  0.00    +0.000 N 
ATOM     25  H   UNL     1       2.086   4.802  17.663  0.00  0.00    +0.000 HD
BRANCH  24  26
ATOM     26  CA  UNL     1       1.217   3.724  19.319  0.00  0.00    +0.000 C 
BRANCH  26  27
ATOM     27  C   UNL     1       0.681   2.398  18.781  0.00  0.00    +0.000 C 
BRANCH  27  28
ATOM     28  O   UNL     1       1.642   1.362  18.981  0.00  0.00    +0.000 OA
ATOM     29  H   UNL     1       2.497   1.817  19.089  0.00  0.00    +0.000 HD
ENDBRANCH  27  28
ENDBRANCH  26  27
ENDBRANCH  24  26
ENDBRANCH   1  23
TORSDOF 5
ENDMDL
MODEL 6
REMARK VINA RESULT:      -7.8      3.597      7.330
REMARK  Name = 
REMARK  5 active torsions:
REMARK  status: ('A' for Active; 'I' for Inactive)
REMARK    1  A    between atoms: C_2  and  CA_7
REMARK    2  A    between atoms: N_3  and  CA_4
REMARK    3  A    between atoms: CA_4  and  C_5
REMARK    4  A    between atoms: C_5  and  O_6
REMARK    5  A    between atoms: C_18  and  C_19
REMARK                            x       y       z     vdW  Elec       q    Type
REMARK                         _______ _______ _______ _____ _____    ______ ____
ROOT
ATOM      1  CA  UNL     1       6.958   5.956  17.506  0.00  0.00    +0.000 A 
ATOM      2  C   UNL     1       7.402   5.795  16.201  0.00  0.00    +0.000 A 
ATOM      3  C   UNL     1       6.595   5.029  15.353  0.00  0.00    +0.000 A 
ATOM      4  C   UNL     1       5.419   4.486  15.868  0.00  0.00    +0.000 A 
ATOM      5  N   UNL     1       4.789   3.870  14.806  0.00  0.00    +0.000 N 
ATOM      6  C   UNL     1       5.567   3.889  13.677  0.00  0.00    +0.000 A 
ATOM      7  C   UNL     1       5.339   3.320  12.421  0.00  0.00    +0.000 A 
ATOM      8  C   UNL     1       6.310   3.523  11.438  0.00  0.00    +0.000 A 
ATOM      9  C   UNL     1       7.455   4.270  11.705  0.00  0.00    +0.000 A 
ATOM     10  C   UNL     1       7.664   4.831  12.971  0.00  0.00    +0.000 A 
ATOM     11  C   UNL     1       6.703   4.631  13.982  0.00  0.00    +0.000 A 
ATOM     12  C   UNL     1       5.033   4.629  17.213  0.00  0.00    +0.000 A 
ATOM     13  N   UNL     1       5.822   5.400  18.022  0.00  0.00    +0.000 NA
ATOM     14  H   UNL     1       3.876   3.443  14.846  0.00  0.00    +0.000 HD
ENDROOT
BRANCH  12  15
ATOM     15  C   UNL     1       3.805   4.033  17.775  0.00  0.00    +0.000 A 
ATOM     16  C   UNL     1       3.779   2.722  18.301  0.00  0.00    +0.000 A 
ATOM     17  C   UNL     1       2.589   2.124  18.726  0.00  0.00    +0.000 A 
ATOM     18  C   UNL     1       1.411   2.853  18.688  0.00  0.00    +0.000 A 
ATOM     19  F   UNL     1       0.271   2.283  19.095  0.00  0.00    +0.000 F 
ATOM     20  C   UNL     1       1.407   4.167  18.243  0.00  0.00    +0.000 A 
ATOM     21  C   UNL     1       2.595   4.752  17.788  0.00  0.00    +0.000 A 
ENDBRANCH  12  15
BRANCH   1  23
ATOM     22  O   UNL     1       8.205   6.376  19.492  0.00  0.00    +0.000 OA
ATOM     23  C   UNL     1       7.792   6.809  18.423  0.00  0.00    +0.000 C 
ATOM     24  N   UNL     1       8.045   8.093  17.985  0.00  0.00    +0.000 N 
ATOM     25  H   UNL     1       7.644   8.373  17.094  0.00  0.00    +0.000 HD
BRANCH  24  26
ATOM     26  CA  UNL     1       8.753   9.053  18.817  0.00  0.00    +0.000 C 
BRANCH  26  27
ATOM     27  C   UNL     1       8.865  10.425  18.153  0.00  0.00    +0.000 C 
BRANCH  27  28
ATOM     28  O   UNL     1       9.892  11.192  18.780  0.00  0.00    +0.000 OA
ATOM     29  H   UNL     1       9.430  11.893  19.274  0.00  0.00    +0.000 HD
ENDBRANCH  27  28
ENDBRANCH  26  27
ENDBRANCH  24  26
ENDBRANCH   1  23
TORSDOF 5
ENDMDL
MODEL 7
REMARK VINA RESULT:      -7.8      3.549      7.245
REMARK  Name = 
REMARK  5 active torsions:
REMARK  status: ('A' for Active; 'I' for Inactive)
REMARK    1  A    between atoms: C_2  and  CA_7
REMARK    2  A    between atoms: N_3  and  CA_4
REMARK    3  A    between atoms: CA_4  and  C_5
REMARK    4  A    between atoms: C_5  and  O_6
REMARK    5  A    between atoms: C_18  and  C_19
REMARK                            x       y       z     vdW  Elec       q    Type
REMARK                         _______ _______ _______ _____ _____    ______ ____
ROOT
ATOM      1  CA  UNL     1       7.036   6.166  17.545  0.00  0.00    +0.000 A 
ATOM      2  C   UNL     1       7.430   5.955  16.232  0.00  0.00    +0.000 A 
ATOM      3  C   UNL     1       6.602   5.143  15.451  0.00  0.00    +0.000 A 
ATOM      4  C   UNL     1       5.455   4.607  16.034  0.00  0.00    +0.000 A 
ATOM      5  N   UNL     1       4.792   3.938  15.026  0.00  0.00    +0.000 N 
ATOM      6  C   UNL     1       5.525   3.919  13.867  0.00  0.00    +0.000 A 
ATOM      7  C   UNL     1       5.255   3.293  12.646  0.00  0.00    +0.000 A 
ATOM      8  C   UNL     1       6.183   3.466  11.617  0.00  0.00    +0.000 A 
ATOM      9  C   UNL     1       7.327   4.239  11.806  0.00  0.00    +0.000 A 
ATOM     10  C   UNL     1       7.578   4.857  13.037  0.00  0.00    +0.000 A 
ATOM     11  C   UNL     1       6.661   4.688  14.094  0.00  0.00    +0.000 A 
ATOM     12  C   UNL     1       5.120   4.803  17.387  0.00  0.00    +0.000 A 
ATOM     13  N   UNL     1       5.930   5.619  18.130  0.00  0.00    +0.000 NA
ATOM     14  H   UNL     1       3.888   3.502  15.121  0.00  0.00    +0.000 HD
ENDROOT
BRANCH  12  15
ATOM     15  C   UNL     1       3.924   4.217  18.023  0.00  0.00    +0.000 A 
ATOM     16  C   UNL     1       2.623   4.705  17.769  0.00  0.00    +0.000 A 
ATOM     17  C   UNL     1       1.509   4.222  18.460  0.00  0.00    +0.000 A 
ATOM     18  C   UNL     1       1.670   3.196  19.376  0.00  0.00    +0.000 A 
ATOM     19  F   UNL     1       0.605   2.731  20.039  0.00  0.00    +0.000 F 
ATOM     20  C   UNL     1       2.922   2.642  19.605  0.00  0.00    +0.000 A 
ATOM     21  C   UNL     1       4.041   3.151  18.934  0.00  0.00    +0.000 A 
ENDBRANCH  12  15
BRANCH   1  23
ATOM     22  O   UNL     1       8.411   6.667  19.426  0.00  0.00    +0.000 OA
ATOM     23  C   UNL     1       7.893   7.068  18.391  0.00  0.00    +0.000 C 
ATOM     24  N   UNL     1       8.044   8.361  17.930  0.00  0.00    +0.000 N 
ATOM     25  H   UNL     1       7.561   8.613  17.072  0.00  0.00    +0.000 HD
BRANCH  24  26
ATOM     26  CA  UNL     1       8.764   9.362  18.700  0.00  0.00    +0.000 C 
BRANCH  26  27
ATOM     27  C   UNL     1       8.800  10.719  17.998  0.00  0.00    +0.000 C 
BRANCH  27  28
ATOM     28  O   UNL     1      10.129  11.238  17.997  0.00  0.00    +0.000 OA
ATOM     29  H   UNL     1      10.491  11.027  17.117  0.00  0.00    +0.000 HD
ENDBRANCH  27  28
ENDBRANCH  26  27
ENDBRANCH  24  26
ENDBRANCH   1  23
TORSDOF 5
ENDMDL
MODEL 8
REMARK VINA RESULT:      -7.6      4.429      6.336
REMARK  Name = 
REMARK  5 active torsions:
REMARK  status: ('A' for Active; 'I' for Inactive)
REMARK    1  A    between atoms: C_2  and  CA_7
REMARK    2  A    between atoms: N_3  and  CA_4
REMARK    3  A    between atoms: CA_4  and  C_5
REMARK    4  A    between atoms: C_5  and  O_6
REMARK    5  A    between atoms: C_18  and  C_19
REMARK                            x       y       z     vdW  Elec       q    Type
REMARK                         _______ _______ _______ _____ _____    ______ ____
ROOT
ATOM      1  CA  UNL     1       4.041   3.575  19.663  0.00  0.00    +0.000 A 
ATOM      2  C   UNL     1       3.237   4.616  20.103  0.00  0.00    +0.000 A 
ATOM      3  C   UNL     1       3.152   5.739  19.274  0.00  0.00    +0.000 A 
ATOM      4  C   UNL     1       3.872   5.738  18.081  0.00  0.00    +0.000 A 
ATOM      5  N   UNL     1       3.534   6.909  17.432  0.00  0.00    +0.000 N 
ATOM      6  C   UNL     1       2.736   7.706  18.213  0.00  0.00    +0.000 A 
ATOM      7  C   UNL     1       2.237   8.988  17.969  0.00  0.00    +0.000 A 
ATOM      8  C   UNL     1       1.418   9.556  18.948  0.00  0.00    +0.000 A 
ATOM      9  C   UNL     1       1.111   8.861  20.116  0.00  0.00    +0.000 A 
ATOM     10  C   UNL     1       1.622   7.577  20.340  0.00  0.00    +0.000 A 
ATOM     11  C   UNL     1       2.459   6.988  19.371  0.00  0.00    +0.000 A 
ATOM     12  C   UNL     1       4.719   4.683  17.696  0.00  0.00    +0.000 A 
ATOM     13  N   UNL     1       4.771   3.583  18.509  0.00  0.00    +0.000 NA
ATOM     14  H   UNL     1       3.841   7.165  16.506  0.00  0.00    +0.000 HD
ENDROOT
BRANCH  12  15
ATOM     15  C   UNL     1       5.508   4.684  16.449  0.00  0.00    +0.000 A 
ATOM     16  C   UNL     1       6.753   5.343  16.349  0.00  0.00    +0.000 A 
ATOM     17  C   UNL     1       7.439   5.439  15.135  0.00  0.00    +0.000 A 
ATOM     18  C   UNL     1       6.918   4.821  14.010  0.00  0.00    +0.000 A 
ATOM     19  F   UNL     1       7.573   4.910  12.846  0.00  0.00    +0.000 F 
ATOM     20  C   UNL     1       5.731   4.106  14.082  0.00  0.00    +0.000 A 
ATOM     21  C   UNL     1       5.030   4.040  15.292  0.00  0.00    +0.000 A 
ENDBRANCH  12  15
BRANCH   1  23
ATOM     22  O   UNL     1       3.357   2.183  21.471  0.00  0.00    +0.000 OA
ATOM     23  C   UNL     1       4.114   2.342  20.521  0.00  0.00    +0.000 C 
ATOM     24  N   UNL     1       5.083   1.423  20.173  0.00  0.00    +0.000 N 
ATOM     25  H   UNL     1       5.681   1.647  19.382  0.00  0.00    +0.000 HD
BRANCH  24  26
ATOM     26  CA  UNL     1       5.327   0.235  20.977  0.00  0.00    +0.000 C 
BRANCH  26  27
ATOM     27  C   UNL     1       6.224   0.523  22.180  0.00  0.00    +0.000 C 
BRANCH  27  28
ATOM     28  O   UNL     1       6.599  -0.697  22.817  0.00  0.00    +0.000 OA
ATOM     29  H   UNL     1       6.041  -0.759  23.612  0.00  0.00    +0.000 HD
ENDBRANCH  27  28
ENDBRANCH  26  27
ENDBRANCH  24  26
ENDBRANCH   1  23
TORSDOF 5
ENDMDL
MODEL 9
REMARK VINA RESULT:      -7.5      4.112      6.288
REMARK  Name = 
REMARK  5 active torsions:
REMARK  status: ('A' for Active; 'I' for Inactive)
REMARK    1  A    between atoms: C_2  and  CA_7
REMARK    2  A    between atoms: N_3  and  CA_4
REMARK    3  A    between atoms: CA_4  and  C_5
REMARK    4  A    between atoms: C_5  and  O_6
REMARK    5  A    between atoms: C_18  and  C_19
REMARK                            x       y       z     vdW  Elec       q    Type
REMARK                         _______ _______ _______ _____ _____    ______ ____
ROOT
ATOM      1  CA  UNL     1       4.078   6.443  17.047  0.00  0.00    +0.000 A 
ATOM      2  C   UNL     1       3.658   7.764  17.106  0.00  0.00    +0.000 A 
ATOM      3  C   UNL     1       2.754   8.091  18.121  0.00  0.00    +0.000 A 
ATOM      4  C   UNL     1       2.339   7.084  18.991  0.00  0.00    +0.000 A 
ATOM      5  N   UNL     1       1.537   7.699  19.930  0.00  0.00    +0.000 N 
ATOM      6  C   UNL     1       1.324   9.019  19.625  0.00  0.00    +0.000 A 
ATOM      7  C   UNL     1       0.524   9.970  20.265  0.00  0.00    +0.000 A 
ATOM      8  C   UNL     1       0.516  11.263  19.737  0.00  0.00    +0.000 A 
ATOM      9  C   UNL     1       1.284  11.586  18.621  0.00  0.00    +0.000 A 
ATOM     10  C   UNL     1       2.079  10.618  17.994  0.00  0.00    +0.000 A 
ATOM     11  C   UNL     1       2.094   9.304  18.502  0.00  0.00    +0.000 A 
ATOM     12  C   UNL     1       2.748   5.744  18.863  0.00  0.00    +0.000 A 
ATOM     13  N   UNL     1       3.651   5.447  17.878  0.00  0.00    +0.000 NA
ATOM     14  H   UNL     1       1.140   7.243  20.737  0.00  0.00    +0.000 HD
ENDROOT
BRANCH  12  15
ATOM     15  C   UNL     1       2.293   4.664  19.760  0.00  0.00    +0.000 A 
ATOM     16  C   UNL     1       1.267   3.765  19.392  0.00  0.00    +0.000 A 
ATOM     17  C   UNL     1       0.762   2.819  20.289  0.00  0.00    +0.000 A 
ATOM     18  C   UNL     1       1.319   2.717  21.553  0.00  0.00    +0.000 A 
ATOM     19  F   UNL     1       0.838   1.812  22.414  0.00  0.00    +0.000 F 
ATOM     20  C   UNL     1       2.374   3.536  21.930  0.00  0.00    +0.000 A 
ATOM     21  C   UNL     1       2.855   4.504  21.040  0.00  0.00    +0.000 A 
ENDBRANCH  12  15
BRANCH   1  23
ATOM     22  O   UNL     1       5.428   6.888  15.135  0.00  0.00    +0.000 OA
ATOM     23  C   UNL     1       5.081   6.079  15.986  0.00  0.00    +0.000 C 
ATOM     24  N   UNL     1       5.567   4.788  16.036  0.00  0.00    +0.000 N 
ATOM     25  H   UNL     1       5.207   4.178  16.765  0.00  0.00    +0.000 HD
BRANCH  24  26
ATOM     26  CA  UNL     1       6.466   4.276  15.014  0.00  0.00    +0.000 C 
BRANCH  26  27
ATOM     27  C   UNL     1       5.737   3.948  13.711  0.00  0.00    +0.000 C 
BRANCH  27  28
ATOM     28  O   UNL     1       6.431   2.921  13.004  0.00  0.00    +0.000 OA
ATOM     29  H   UNL     1       5.949   2.811  12.165  0.00  0.00    +0.000 HD
ENDBRANCH  27  28
ENDBRANCH  26  27
ENDBRANCH  24  26
ENDBRANCH   1  23
TORSDOF 5
ENDMDL
