MODEL 1
REMARK VINA RESULT:      -8.6      0.000      0.000
REMARK  Name = 
REMARK  5 active torsions:
REMARK  status: ('A' for Active; 'I' for Inactive)
REMARK    1  A    between atoms: C_1  and  O_2
REMARK    2  A    between atoms: O_2  and  C_3
REMARK    3  A    between atoms: C_7  and  C_8
REMARK    4  A    between atoms: C_8  and  N_9
REMARK    5  A    between atoms: N_9  and  C_10
REMARK                            x       y       z     vdW  Elec       q    Type
REMARK                         _______ _______ _______ _____ _____    ______ ____
ROOT
ATOM      1  C   UNL     1       5.126   3.957  17.275  0.00  0.00    +0.000 A 
ATOM      2  C   UNL     1       5.059   4.661  16.072  0.00  0.00    +0.000 A 
ATOM      3  C   UNL     1       5.794   5.833  15.892  0.00  0.00    +0.000 A 
ATOM      4  C   UNL     1       6.642   6.310  16.898  0.00  0.00    +0.000 A 
ATOM      5  N   UNL     1       7.173   7.531  16.795  0.00  0.00    +0.000 NA
ATOM      6  C   UNL     1       7.954   7.936  17.801  0.00  0.00    +0.000 A 
ATOM      7  N   UNL     1       8.137   9.300  17.982  0.00  0.00    +0.000 N 
ATOM      8  N   UNL     1       8.342   7.194  18.833  0.00  0.00    +0.000 NA
ATOM      9  C   UNL     1       7.773   5.995  18.943  0.00  0.00    +0.000 A 
ATOM     10  N   UNL     1       8.080   5.319  20.126  0.00  0.00    +0.000 N 
ATOM     11  C   UNL     1       6.849   5.510  18.022  0.00  0.00    +0.000 A 
ATOM     12  C   UNL     1       6.096   4.335  18.201  0.00  0.00    +0.000 A 
ATOM     13  H   UNL     1       7.193   9.662  18.085  0.00  0.00    +0.000 HD
ATOM     14  H   UNL     1       8.641   9.375  18.859  0.00  0.00    +0.000 HD
ATOM     15  H   UNL     1       8.810   5.855  20.590  0.00  0.00    +0.000 HD
ATOM     16  H   UNL     1       8.356   4.359  19.964  0.00  0.00    +0.000 HD
ENDROOT
BRANCH   1  17
ATOM     17  N   UNL     1       4.260   2.879  17.470  0.00  0.00    +0.000 N 
ATOM     18  H   UNL     1       4.484   2.376  18.329  0.00  0.00    +0.000 HD
BRANCH  17  19
ATOM     19  C   UNL     1       2.832   3.183  17.386  0.00  0.00    +0.000 C 
BRANCH  19  24
ATOM     20  C   UNL     1       2.086   6.086  19.747  0.00  0.00    +0.000 A 
ATOM     21  C   UNL     1       1.535   5.402  20.836  0.00  0.00    +0.000 A 
ATOM     22  C   UNL     1       1.412   4.013  20.816  0.00  0.00    +0.000 A 
ATOM     23  C   UNL     1       1.844   3.297  19.703  0.00  0.00    +0.000 A 
ATOM     24  C   UNL     1       2.401   3.963  18.602  0.00  0.00    +0.000 A 
ATOM     25  C   UNL     1       2.513   5.363  18.631  0.00  0.00    +0.000 A 
BRANCH  20  27
ATOM     26  C   UNL     1       1.370   8.019  20.932  0.00  0.00    +0.000 C 
ATOM     27  O   UNL     1       2.155   7.443  19.896  0.00  0.00    +0.000 OA
ENDBRANCH  20  27
ENDBRANCH  19  24
ENDBRANCH  17  19
ENDBRANCH   1  17
TORSDOF 4
ENDMDL
MODEL 2
REMARK VINA RESULT:      -8.2      2.869      6.039
REMARK  Name = 
REMARK  5 active torsions:
REMARK  status: ('A' for Active; 'I' for Inactive)
REMARK    1  A    between atoms: C_1  and  O_2
REMARK    2  A    between atoms: O_2  and  C_3
REMARK    3  A    between atoms: C_7  and  C_8
REMARK    4  A    between atoms: C_8  and  N_9
REMARK    5  A    between atoms: N_9  and  C_10
REMARK                            x       y       z     vdW  Elec       q    Type
REMARK                         _______ _______ _______ _____ _____    ______ ____
ROOT
ATOM      1  C   UNL     1       3.974   4.079  16.894  0.00  0.00    +0.000 A 
ATOM      2  C   UNL     1       3.489   2.774  16.812  0.00  0.00    +0.000 A 
ATOM      3  C   UNL     1       2.729   2.231  17.850  0.00  0.00    +0.000 A 
ATOM      4  C   UNL     1       2.409   2.994  18.979  0.00  0.00    +0.000 A 
ATOM      5  N   UNL     1       1.865   2.404  20.046  0.00  0.00    +0.000 NA
ATOM      6  C   UNL     1       1.605   3.183  21.100  0.00  0.00    +0.000 A 
ATOM      7  N   UNL     1       1.498   2.586  22.349  0.00  0.00    +0.000 N 
ATOM      8  N   UNL     1       1.729   4.506  21.139  0.00  0.00    +0.000 NA
ATOM      9  C   UNL     1       2.307   5.075  20.083  0.00  0.00    +0.000 A 
ATOM     10  N   UNL     1       2.570   6.439  20.235  0.00  0.00    +0.000 N 
ATOM     11  C   UNL     1       2.735   4.350  18.975  0.00  0.00    +0.000 A 
ATOM     12  C   UNL     1       3.510   4.887  17.929  0.00  0.00    +0.000 A 
ATOM     13  H   UNL     1       2.384   2.101  22.464  0.00  0.00    +0.000 HD
ATOM     14  H   UNL     1       1.435   3.364  22.998  0.00  0.00    +0.000 HD
ATOM     15  H   UNL     1       2.112   6.731  21.096  0.00  0.00    +0.000 HD
ATOM     16  H   UNL     1       2.266   6.984  19.439  0.00  0.00    +0.000 HD
ENDROOT
BRANCH   1  17
ATOM     17  N   UNL     1       4.855   4.530  15.908  0.00  0.00    +0.000 N 
ATOM     18  H   UNL     1       4.751   5.531  15.749  0.00  0.00    +0.000 HD
BRANCH  17  19
ATOM     19  C   UNL     1       6.258   4.160  16.089  0.00  0.00    +0.000 C 
BRANCH  19  24
ATOM     20  C   UNL     1       7.589   7.422  17.555  0.00  0.00    +0.000 A 
ATOM     21  C   UNL     1       8.126   6.965  18.763  0.00  0.00    +0.000 A 
ATOM     22  C   UNL     1       8.070   5.614  19.101  0.00  0.00    +0.000 A 
ATOM     23  C   UNL     1       7.476   4.706  18.229  0.00  0.00    +0.000 A 
ATOM     24  C   UNL     1       6.933   5.143  17.011  0.00  0.00    +0.000 A 
ATOM     25  C   UNL     1       6.989   6.508  16.685  0.00  0.00    +0.000 A 
BRANCH  20  27
ATOM     26  C   UNL     1       8.502   9.496  18.272  0.00  0.00    +0.000 C 
ATOM     27  O   UNL     1       7.714   8.766  17.341  0.00  0.00    +0.000 OA
ENDBRANCH  20  27
ENDBRANCH  19  24
ENDBRANCH  17  19
ENDBRANCH   1  17
TORSDOF 4
ENDMDL
MODEL 3
REMARK VINA RESULT:      -8.2      1.118      1.879
REMARK  Name = 
REMARK  5 active torsions:
REMARK  status: ('A' for Active; 'I' for Inactive)
REMARK    1  A    between atoms: C_1  and  O_2
REMARK    2  A    between atoms: O_2  and  C_3
REMARK    3  A    between atoms: C_7  and  C_8
REMARK    4  A    between atoms: C_8  and  N_9
REMARK    5  A    between atoms: N_9  and  C_10
REMARK                            x       y       z     vdW  Elec       q    Type
REMARK                         _______ _______ _______ _____ _____    ______ ____
ROOT
ATOM      1  C   UNL     1       5.284   4.158  17.049  0.00  0.00    +0.000 A 
ATOM      2  C   UNL     1       5.247   4.944  15.898  0.00  0.00    +0.000 A 
ATOM      3  C   UNL     1       5.984   6.127  15.820  0.00  0.00    +0.000 A 
ATOM      4  C   UNL     1       6.802   6.533  16.881  0.00  0.00    +0.000 A 
ATOM      5  N   UNL     1       7.333   7.758  16.878  0.00  0.00    +0.000 NA
ATOM      6  C   UNL     1       8.085   8.092  17.932  0.00  0.00    +0.000 A 
ATOM      7  N   UNL     1       8.259   9.440  18.213  0.00  0.00    +0.000 N 
ATOM      8  N   UNL     1       8.446   7.280  18.920  0.00  0.00    +0.000 NA
ATOM      9  C   UNL     1       7.878   6.076  18.929  0.00  0.00    +0.000 A 
ATOM     10  N   UNL     1       8.154   5.317  20.069  0.00  0.00    +0.000 N 
ATOM     11  C   UNL     1       6.981   5.656  17.951  0.00  0.00    +0.000 A 
ATOM     12  C   UNL     1       6.226   4.470  18.026  0.00  0.00    +0.000 A 
ATOM     13  H   UNL     1       7.312   9.793  18.316  0.00  0.00    +0.000 HD
ATOM     14  H   UNL     1       8.738   9.453  19.108  0.00  0.00    +0.000 HD
ATOM     15  H   UNL     1       8.870   5.821  20.590  0.00  0.00    +0.000 HD
ATOM     16  H   UNL     1       8.438   4.372  19.848  0.00  0.00    +0.000 HD
ENDROOT
BRANCH   1  17
ATOM     17  N   UNL     1       4.416   3.067  17.144  0.00  0.00    +0.000 N 
ATOM     18  H   UNL     1       4.650   2.478  17.942  0.00  0.00    +0.000 HD
BRANCH  17  19
ATOM     19  C   UNL     1       2.988   3.383  17.112  0.00  0.00    +0.000 C 
BRANCH  19  24
ATOM     20  C   UNL     1       2.171   4.190  20.750  0.00  0.00    +0.000 A 
ATOM     21  C   UNL     1       1.954   5.569  20.669  0.00  0.00    +0.000 A 
ATOM     22  C   UNL     1       2.060   6.237  19.450  0.00  0.00    +0.000 A 
ATOM     23  C   UNL     1       2.383   5.525  18.298  0.00  0.00    +0.000 A 
ATOM     24  C   UNL     1       2.603   4.141  18.357  0.00  0.00    +0.000 A 
ATOM     25  C   UNL     1       2.500   3.481  19.593  0.00  0.00    +0.000 A 
BRANCH  20  27
ATOM     26  C   UNL     1       1.566   2.317  22.083  0.00  0.00    +0.000 C 
ATOM     27  O   UNL     1       2.030   3.658  22.001  0.00  0.00    +0.000 OA
ENDBRANCH  20  27
ENDBRANCH  19  24
ENDBRANCH  17  19
ENDBRANCH   1  17
TORSDOF 4
ENDMDL
MODEL 4
REMARK VINA RESULT:      -8.1      3.558      6.997
REMARK  Name = 
REMARK  5 active torsions:
REMARK  status: ('A' for Active; 'I' for Inactive)
REMARK    1  A    between atoms: C_1  and  O_2
REMARK    2  A    between atoms: O_2  and  C_3
REMARK    3  A    between atoms: C_7  and  C_8
REMARK    4  A    between atoms: C_8  and  N_9
REMARK    5  A    between atoms: N_9  and  C_10
REMARK                            x       y       z     vdW  Elec       q    Type
REMARK                         _______ _______ _______ _____ _____    ______ ____
ROOT
ATOM      1  C   UNL     1       4.892   5.825  17.230  0.00  0.00    +0.000 A 
ATOM      2  C   UNL     1       3.906   6.759  17.546  0.00  0.00    +0.000 A 
ATOM      3  C   UNL     1       2.917   6.460  18.485  0.00  0.00    +0.000 A 
ATOM      4  C   UNL     1       2.912   5.231  19.154  0.00  0.00    +0.000 A 
ATOM      5  N   UNL     1       1.853   4.879  19.887  0.00  0.00    +0.000 NA
ATOM      6  C   UNL     1       1.900   3.682  20.480  0.00  0.00    +0.000 A 
ATOM      7  N   UNL     1       0.703   3.079  20.839  0.00  0.00    +0.000 N 
ATOM      8  N   UNL     1       2.948   2.866  20.503  0.00  0.00    +0.000 NA
ATOM      9  C   UNL     1       3.981   3.212  19.737  0.00  0.00    +0.000 A 
ATOM     10  N   UNL     1       4.989   2.247  19.658  0.00  0.00    +0.000 N 
ATOM     11  C   UNL     1       3.999   4.376  18.973  0.00  0.00    +0.000 A 
ATOM     12  C   UNL     1       4.987   4.680  18.018  0.00  0.00    +0.000 A 
ATOM     13  H   UNL     1       0.182   3.032  19.967  0.00  0.00    +0.000 HD
ATOM     14  H   UNL     1       0.968   2.147  21.140  0.00  0.00    +0.000 HD
ATOM     15  H   UNL     1       4.763   1.531  20.345  0.00  0.00    +0.000 HD
ATOM     16  H   UNL     1       5.911   2.637  19.804  0.00  0.00    +0.000 HD
ENDROOT
BRANCH   1  17
ATOM     17  N   UNL     1       5.768   6.104  16.178  0.00  0.00    +0.000 N 
ATOM     18  H   UNL     1       6.146   7.048  16.254  0.00  0.00    +0.000 HD
BRANCH  17  19
ATOM     19  C   UNL     1       6.825   5.120  15.948  0.00  0.00    +0.000 C 
BRANCH  19  24
ATOM     20  C   UNL     1       6.131   3.543  12.544  0.00  0.00    +0.000 A 
ATOM     21  C   UNL     1       7.034   4.247  11.741  0.00  0.00    +0.000 A 
ATOM     22  C   UNL     1       7.870   5.218  12.292  0.00  0.00    +0.000 A 
ATOM     23  C   UNL     1       7.808   5.490  13.656  0.00  0.00    +0.000 A 
ATOM     24  C   UNL     1       6.911   4.794  14.479  0.00  0.00    +0.000 A 
ATOM     25  C   UNL     1       6.070   3.823  13.911  0.00  0.00    +0.000 A 
BRANCH  20  27
ATOM     26  C   UNL     1       4.181   3.078  11.267  0.00  0.00    +0.000 C 
ATOM     27  O   UNL     1       5.376   2.615  11.883  0.00  0.00    +0.000 OA
ENDBRANCH  20  27
ENDBRANCH  19  24
ENDBRANCH  17  19
ENDBRANCH   1  17
TORSDOF 4
ENDMDL
MODEL 5
REMARK VINA RESULT:      -8.0      2.886      5.903
REMARK  Name = 
REMARK  5 active torsions:
REMARK  status: ('A' for Active; 'I' for Inactive)
REMARK    1  A    between atoms: C_1  and  O_2
REMARK    2  A    between atoms: O_2  and  C_3
REMARK    3  A    between atoms: C_7  and  C_8
REMARK    4  A    between atoms: C_8  and  N_9
REMARK    5  A    between atoms: N_9  and  C_10
REMARK                            x       y       z     vdW  Elec       q    Type
REMARK                         _______ _______ _______ _____ _____    ______ ____
ROOT
ATOM      1  C   UNL     1       4.192   4.459  17.298  0.00  0.00    +0.000 A 
ATOM      2  C   UNL     1       3.241   5.426  17.626  0.00  0.00    +0.000 A 
ATOM      3  C   UNL     1       2.506   5.328  18.808  0.00  0.00    +0.000 A 
ATOM      4  C   UNL     1       2.729   4.279  19.707  0.00  0.00    +0.000 A 
ATOM      5  N   UNL     1       1.883   4.083  20.721  0.00  0.00    +0.000 NA
ATOM      6  C   UNL     1       2.138   3.049  21.529  0.00  0.00    +0.000 A 
ATOM      7  N   UNL     1       1.091   2.523  22.273  0.00  0.00    +0.000 N 
ATOM      8  N   UNL     1       3.216   2.274  21.484  0.00  0.00    +0.000 NA
ATOM      9  C   UNL     1       4.029   2.456  20.445  0.00  0.00    +0.000 A 
ATOM     10  N   UNL     1       5.056   1.513  20.345  0.00  0.00    +0.000 N 
ATOM     11  C   UNL     1       3.802   3.421  19.468  0.00  0.00    +0.000 A 
ATOM     12  C   UNL     1       4.532   3.520  18.269  0.00  0.00    +0.000 A 
ATOM     13  H   UNL     1       0.395   2.276  21.575  0.00  0.00    +0.000 HD
ATOM     14  H   UNL     1       1.477   1.685  22.697  0.00  0.00    +0.000 HD
ATOM     15  H   UNL     1       5.034   0.964  21.202  0.00  0.00    +0.000 HD
ATOM     16  H   UNL     1       5.960   1.939  20.188  0.00  0.00    +0.000 HD
ENDROOT
BRANCH   1  17
ATOM     17  N   UNL     1       4.793   4.511  16.038  0.00  0.00    +0.000 N 
ATOM     18  H   UNL     1       4.544   5.367  15.545  0.00  0.00    +0.000 HD
BRANCH  17  19
ATOM     19  C   UNL     1       6.236   4.277  16.010  0.00  0.00    +0.000 C 
BRANCH  19  24
ATOM     20  C   UNL     1       7.511   7.488  17.630  0.00  0.00    +0.000 A 
ATOM     21  C   UNL     1       8.154   6.973  18.761  0.00  0.00    +0.000 A 
ATOM     22  C   UNL     1       8.187   5.599  18.997  0.00  0.00    +0.000 A 
ATOM     23  C   UNL     1       7.576   4.728  18.099  0.00  0.00    +0.000 A 
ATOM     24  C   UNL     1       6.928   5.224  16.958  0.00  0.00    +0.000 A 
ATOM     25  C   UNL     1       6.895   6.611  16.735  0.00  0.00    +0.000 A 
BRANCH  20  27
ATOM     26  C   UNL     1       8.561   9.527  18.258  0.00  0.00    +0.000 C 
ATOM     27  O   UNL     1       7.557   8.849  17.513  0.00  0.00    +0.000 OA
ENDBRANCH  20  27
ENDBRANCH  19  24
ENDBRANCH  17  19
ENDBRANCH   1  17
TORSDOF 4
ENDMDL
MODEL 6
REMARK VINA RESULT:      -8.0      3.718      7.171
REMARK  Name = 
REMARK  5 active torsions:
REMARK  status: ('A' for Active; 'I' for Inactive)
REMARK    1  A    between atoms: C_1  and  O_2
REMARK    2  A    between atoms: O_2  and  C_3
REMARK    3  A    between atoms: C_7  and  C_8
REMARK    4  A    between atoms: C_8  and  N_9
REMARK    5  A    between atoms: N_9  and  C_10
REMARK                            x       y       z     vdW  Elec       q    Type
REMARK                         _______ _______ _______ _____ _____    ______ ____
ROOT
ATOM      1  C   UNL     1       4.439   4.872  17.155  0.00  0.00    +0.000 A 
ATOM      2  C   UNL     1       4.214   3.509  16.958  0.00  0.00    +0.000 A 
ATOM      3  C   UNL     1       3.448   2.777  17.865  0.00  0.00    +0.000 A 
ATOM      4  C   UNL     1       2.859   3.398  18.973  0.00  0.00    +0.000 A 
ATOM      5  N   UNL     1       2.308   2.654  19.935  0.00  0.00    +0.000 NA
ATOM      6  C   UNL     1       1.784   3.308  20.977  0.00  0.00    +0.000 A 
ATOM      7  N   UNL     1       1.638   2.623  22.176  0.00  0.00    +0.000 N 
ATOM      8  N   UNL     1       1.658   4.626  21.086  0.00  0.00    +0.000 NA
ATOM      9  C   UNL     1       2.246   5.354  20.138  0.00  0.00    +0.000 A 
ATOM     10  N   UNL     1       2.234   6.730  20.378  0.00  0.00    +0.000 N 
ATOM     11  C   UNL     1       2.930   4.787  19.066  0.00  0.00    +0.000 A 
ATOM     12  C   UNL     1       3.713   5.518  18.153  0.00  0.00    +0.000 A 
ATOM     13  H   UNL     1       2.577   2.296  22.386  0.00  0.00    +0.000 HD
ATOM     14  H   UNL     1       1.356   3.335  22.842  0.00  0.00    +0.000 HD
ATOM     15  H   UNL     1       1.630   6.882  21.183  0.00  0.00    +0.000 HD
ATOM     16  H   UNL     1       1.934   7.262  19.571  0.00  0.00    +0.000 HD
ENDROOT
BRANCH   1  17
ATOM     17  N   UNL     1       5.336   5.532  16.311  0.00  0.00    +0.000 N 
ATOM     18  H   UNL     1       5.496   6.490  16.621  0.00  0.00    +0.000 HD
BRANCH  17  19
ATOM     19  C   UNL     1       6.595   4.837  16.048  0.00  0.00    +0.000 C 
BRANCH  19  24
ATOM     20  C   UNL     1       6.078   3.493  12.514  0.00  0.00    +0.000 A 
ATOM     21  C   UNL     1       7.017   4.252  11.807  0.00  0.00    +0.000 A 
ATOM     22  C   UNL     1       7.819   5.184  12.463  0.00  0.00    +0.000 A 
ATOM     23  C   UNL     1       7.689   5.363  13.837  0.00  0.00    +0.000 A 
ATOM     24  C   UNL     1       6.756   4.611  14.566  0.00  0.00    +0.000 A 
ATOM     25  C   UNL     1       5.948   3.680  13.892  0.00  0.00    +0.000 A 
BRANCH  20  27
ATOM     26  C   UNL     1       4.160   3.097  11.167  0.00  0.00    +0.000 C 
ATOM     27  O   UNL     1       5.360   2.612  11.755  0.00  0.00    +0.000 OA
ENDBRANCH  20  27
ENDBRANCH  19  24
ENDBRANCH  17  19
ENDBRANCH   1  17
TORSDOF 4
ENDMDL
MODEL 7
REMARK VINA RESULT:      -7.8      3.882      6.400
REMARK  Name = 
REMARK  5 active torsions:
REMARK  status: ('A' for Active; 'I' for Inactive)
REMARK    1  A    between atoms: C_1  and  O_2
REMARK    2  A    between atoms: O_2  and  C_3
REMARK    3  A    between atoms: C_7  and  C_8
REMARK    4  A    between atoms: C_8  and  N_9
REMARK    5  A    between atoms: N_9  and  C_10
REMARK                            x       y       z     vdW  Elec       q    Type
REMARK                         _______ _______ _______ _____ _____    ______ ____
ROOT
ATOM      1  C   UNL     1       2.163   6.649  19.964  0.00  0.00    +0.000 A 
ATOM      2  C   UNL     1       2.719   6.725  18.687  0.00  0.00    +0.000 A 
ATOM      3  C   UNL     1       3.039   5.565  17.980  0.00  0.00    +0.000 A 
ATOM      4  C   UNL     1       2.778   4.301  18.521  0.00  0.00    +0.000 A 
ATOM      5  N   UNL     1       3.275   3.211  17.930  0.00  0.00    +0.000 NA
ATOM      6  C   UNL     1       3.009   2.036  18.510  0.00  0.00    +0.000 A 
ATOM      7  N   UNL     1       3.851   0.966  18.241  0.00  0.00    +0.000 N 
ATOM      8  N   UNL     1       2.203   1.846  19.549  0.00  0.00    +0.000 NA
ATOM      9  C   UNL     1       1.747   2.943  20.149  0.00  0.00    +0.000 A 
ATOM     10  N   UNL     1       1.043   2.702  21.332  0.00  0.00    +0.000 N 
ATOM     11  C   UNL     1       2.056   4.228  19.712  0.00  0.00    +0.000 A 
ATOM     12  C   UNL     1       1.746   5.402  20.423  0.00  0.00    +0.000 A 
ATOM     13  H   UNL     1       4.771   1.305  18.510  0.00  0.00    +0.000 HD
ATOM     14  H   UNL     1       3.546   0.236  18.877  0.00  0.00    +0.000 HD
ATOM     15  H   UNL     1       0.909   1.695  21.393  0.00  0.00    +0.000 HD
ATOM     16  H   UNL     1       0.166   3.205  21.371  0.00  0.00    +0.000 HD
ENDROOT
BRANCH   1  17
ATOM     17  N   UNL     1       2.002   7.828  20.697  0.00  0.00    +0.000 N 
ATOM     18  H   UNL     1       2.895   8.164  21.055  0.00  0.00    +0.000 HD
BRANCH  17  19
ATOM     19  C   UNL     1       1.255   8.895  20.033  0.00  0.00    +0.000 C 
BRANCH  19  24
ATOM     20  C   UNL     1      -1.082  11.473  21.598  0.00  0.00    +0.000 A 
ATOM     21  C   UNL     1      -1.144  11.004  22.914  0.00  0.00    +0.000 A 
ATOM     22  C   UNL     1      -0.430   9.871  23.300  0.00  0.00    +0.000 A 
ATOM     23  C   UNL     1       0.355   9.197  22.369  0.00  0.00    +0.000 A 
ATOM     24  C   UNL     1       0.432   9.651  21.044  0.00  0.00    +0.000 A 
ATOM     25  C   UNL     1      -0.297  10.790  20.665  0.00  0.00    +0.000 A 
BRANCH  20  27
ATOM     26  C   UNL     1      -2.412  12.709  20.062  0.00  0.00    +0.000 C 
ATOM     27  O   UNL     1      -1.823  12.595  21.351  0.00  0.00    +0.000 OA
ENDBRANCH  20  27
ENDBRANCH  19  24
ENDBRANCH  17  19
ENDBRANCH   1  17
TORSDOF 4
ENDMDL
MODEL 8
REMARK VINA RESULT:      -7.8      2.363      3.938
REMARK  Name = 
REMARK  5 active torsions:
REMARK  status: ('A' for Active; 'I' for Inactive)
REMARK    1  A    between atoms: C_1  and  O_2
REMARK    2  A    between atoms: O_2  and  C_3
REMARK    3  A    between atoms: C_7  and  C_8
REMARK    4  A    between atoms: C_8  and  N_9
REMARK    5  A    between atoms: N_9  and  C_10
REMARK                            x       y       z     vdW  Elec       q    Type
REMARK                         _______ _______ _______ _____ _____    ______ ____
ROOT
ATOM      1  C   UNL     1       4.350   5.236  18.910  0.00  0.00    +0.000 A 
ATOM      2  C   UNL     1       3.895   3.996  18.462  0.00  0.00    +0.000 A 
ATOM      3  C   UNL     1       4.392   3.439  17.283  0.00  0.00    +0.000 A 
ATOM      4  C   UNL     1       5.383   4.094  16.543  0.00  0.00    +0.000 A 
ATOM      5  N   UNL     1       5.697   3.656  15.321  0.00  0.00    +0.000 NA
ATOM      6  C   UNL     1       6.634   4.340  14.657  0.00  0.00    +0.000 A 
ATOM      7  N   UNL     1       6.662   4.241  13.273  0.00  0.00    +0.000 N 
ATOM      8  N   UNL     1       7.360   5.340  15.145  0.00  0.00    +0.000 NA
ATOM      9  C   UNL     1       7.009   5.789  16.348  0.00  0.00    +0.000 A 
ATOM     10  N   UNL     1       7.686   6.944  16.751  0.00  0.00    +0.000 N 
ATOM     11  C   UNL     1       5.967   5.237  17.087  0.00  0.00    +0.000 A 
ATOM     12  C   UNL     1       5.452   5.798  18.271  0.00  0.00    +0.000 A 
ATOM     13  H   UNL     1       5.730   4.530  12.988  0.00  0.00    +0.000 HD
ATOM     14  H   UNL     1       7.348   4.931  12.982  0.00  0.00    +0.000 HD
ATOM     15  H   UNL     1       8.424   7.104  16.069  0.00  0.00    +0.000 HD
ATOM     16  H   UNL     1       8.047   6.873  17.694  0.00  0.00    +0.000 HD
ENDROOT
BRANCH   1  17
ATOM     17  N   UNL     1       3.717   5.826  20.007  0.00  0.00    +0.000 N 
ATOM     18  H   UNL     1       4.170   6.702  20.266  0.00  0.00    +0.000 HD
BRANCH  17  19
ATOM     19  C   UNL     1       2.268   5.984  19.899  0.00  0.00    +0.000 C 
BRANCH  19  24
ATOM     20  C   UNL     1       1.051   9.598  20.010  0.00  0.00    +0.000 A 
ATOM     21  C   UNL     1       1.386  10.026  18.721  0.00  0.00    +0.000 A 
ATOM     22  C   UNL     1       1.991   9.155  17.816  0.00  0.00    +0.000 A 
ATOM     23  C   UNL     1       2.264   7.844  18.196  0.00  0.00    +0.000 A 
ATOM     24  C   UNL     1       1.935   7.394  19.483  0.00  0.00    +0.000 A 
ATOM     25  C   UNL     1       1.332   8.283  20.388  0.00  0.00    +0.000 A 
BRANCH  20  27
ATOM     26  C   UNL     1       0.097  10.159  22.115  0.00  0.00    +0.000 C 
ATOM     27  O   UNL     1       0.458  10.547  20.795  0.00  0.00    +0.000 OA
ENDBRANCH  20  27
ENDBRANCH  19  24
ENDBRANCH  17  19
ENDBRANCH   1  17
TORSDOF 4
ENDMDL
MODEL 9
REMARK VINA RESULT:      -7.6      3.711      6.307
REMARK  Name = 
REMARK  5 active torsions:
REMARK  status: ('A' for Active; 'I' for Inactive)
REMARK    1  A    between atoms: C_1  and  O_2
REMARK    2  A    between atoms: O_2  and  C_3
REMARK    3  A    between atoms: C_7  and  C_8
REMARK    4  A    between atoms: C_8  and  N_9
REMARK    5  A    between atoms: N_9  and  C_10
REMARK                            x       y       z     vdW  Elec       q    Type
REMARK                         _______ _______ _______ _____ _____    ______ ____
ROOT
ATOM      1  C   UNL     1       2.202   6.665  19.834  0.00  0.00    +0.000 A 
ATOM      2  C   UNL     1       2.851   6.732  18.601  0.00  0.00    +0.000 A 
ATOM      3  C   UNL     1       3.204   5.566  17.919  0.00  0.00    +0.000 A 
ATOM      4  C   UNL     1       2.883   4.307  18.439  0.00  0.00    +0.000 A 
ATOM      5  N   UNL     1       3.404   3.209  17.886  0.00  0.00    +0.000 NA
ATOM      6  C   UNL     1       3.078   2.039  18.444  0.00  0.00    +0.000 A 
ATOM      7  N   UNL     1       3.920   0.955  18.237  0.00  0.00    +0.000 N 
ATOM      8  N   UNL     1       2.194   1.862  19.420  0.00  0.00    +0.000 NA
ATOM      9  C   UNL     1       1.713   2.967  19.986  0.00  0.00    +0.000 A 
ATOM     10  N   UNL     1       0.919   2.738  21.113  0.00  0.00    +0.000 N 
ATOM     11  C   UNL     1       2.074   4.246  19.573  0.00  0.00    +0.000 A 
ATOM     12  C   UNL     1       1.731   5.426  20.260  0.00  0.00    +0.000 A 
ATOM     13  H   UNL     1       4.823   1.279  18.573  0.00  0.00    +0.000 HD
ATOM     14  H   UNL     1       3.557   0.231  18.848  0.00  0.00    +0.000 HD
ATOM     15  H   UNL     1       0.766   1.733  21.164  0.00  0.00    +0.000 HD
ATOM     16  H   UNL     1       0.050   3.255  21.088  0.00  0.00    +0.000 HD
ENDROOT
BRANCH   1  17
ATOM     17  N   UNL     1       2.006   7.847  20.553  0.00  0.00    +0.000 N 
ATOM     18  H   UNL     1       1.963   8.654  19.931  0.00  0.00    +0.000 HD
BRANCH  17  19
ATOM     19  C   UNL     1       0.892   7.841  21.500  0.00  0.00    +0.000 C 
BRANCH  19  24
ATOM     20  C   UNL     1       0.255  11.572  21.018  0.00  0.00    +0.000 A 
ATOM     21  C   UNL     1      -0.567  11.840  22.118  0.00  0.00    +0.000 A 
ATOM     22  C   UNL     1      -0.908  10.830  23.016  0.00  0.00    +0.000 A 
ATOM     23  C   UNL     1      -0.425   9.539  22.820  0.00  0.00    +0.000 A 
ATOM     24  C   UNL     1       0.403   9.249  21.726  0.00  0.00    +0.000 A 
ATOM     25  C   UNL     1       0.733  10.274  20.824  0.00  0.00    +0.000 A 
BRANCH  20  27
ATOM     26  C   UNL     1       1.449  12.458  19.163  0.00  0.00    +0.000 C 
ATOM     27  O   UNL     1       0.517  12.650  20.220  0.00  0.00    +0.000 OA
ENDBRANCH  20  27
ENDBRANCH  19  24
ENDBRANCH  17  19
ENDBRANCH   1  17
TORSDOF 4
ENDMDL
