MODEL 1
REMARK VINA RESULT:      -9.9      0.000      0.000
REMARK  Name = 
REMARK  2 active torsions:
REMARK  status: ('A' for Active; 'I' for Inactive)
REMARK    1  A    between atoms: N_10  and  C_11
REMARK    2  A    between atoms: N_14  and  C_15
REMARK                            x       y       z     vdW  Elec       q    Type
REMARK                         _______ _______ _______ _____ _____    ______ ____
ROOT
ATOM      1  C   UNL     1       0.130  10.288  19.185  0.00  0.00    +0.000 C 
ATOM      2  C   UNL     1       0.150   9.423  20.447  0.00  0.00    +0.000 C 
ATOM      3  C   UNL     1       1.587   8.978  20.736  0.00  0.00    +0.000 C 
ATOM      4  N   UNL     1       2.207   8.248  19.628  0.00  0.00    +0.000 NA
ATOM      5  C   UNL     1       2.211   9.082  18.412  0.00  0.00    +0.000 C 
ATOM      6  C   UNL     1       0.820   9.592  18.006  0.00  0.00    +0.000 C 
ENDROOT
BRANCH   4   7
ATOM      7  C   UNL     1       1.815   6.828  19.390  0.00  0.00    +0.000 C 
ATOM      8  C   UNL     1       1.373   6.036  20.657  0.00  0.00    +0.000 C 
ATOM      9  C   UNL     1       1.612   4.533  20.656  0.00  0.00    +0.000 C 
ATOM     10  C   UNL     1       1.644   3.939  19.258  0.00  0.00    +0.000 C 
ATOM     11  C   UNL     1       1.820   2.418  19.367  0.00  0.00    +0.000 C 
ATOM     12  C   UNL     1       2.189   1.828  18.019  0.00  0.00    +0.000 C 
ATOM     13  C   UNL     1       3.539   2.379  17.574  0.00  0.00    +0.000 C 
ATOM     14  C   UNL     1       3.605   3.885  17.640  0.00  0.00    +0.000 A 
ATOM     15  C   UNL     1       4.586   4.552  16.899  0.00  0.00    +0.000 A 
ATOM     16  C   UNL     1       4.678   5.939  16.944  0.00  0.00    +0.000 A 
ATOM     17  C   UNL     1       3.811   6.677  17.755  0.00  0.00    +0.000 A 
ATOM     18  C   UNL     1       2.839   6.043  18.546  0.00  0.00    +0.000 A 
ATOM     19  C   UNL     1       2.738   4.629  18.469  0.00  0.00    +0.000 A 
ENDBRANCH   4   7
BRANCH   1  29
ATOM     20  O   UNL     1      -1.254  12.095  20.957  0.00  0.00    +0.000 OA
ATOM     21  C   UNL     1      -1.739  11.755  19.886  0.00  0.00    +0.000 C 
ATOM     22  C   UNL     1      -3.087  12.222  19.358  0.00  0.00    +0.000 C 
ATOM     23  C   UNL     1      -3.199  11.485  18.065  0.00  0.00    +0.000 A 
ATOM     24  C   UNL     1      -4.239  11.545  17.151  0.00  0.00    +0.000 A 
ATOM     25  C   UNL     1      -4.150  10.745  16.014  0.00  0.00    +0.000 A 
ATOM     26  C   UNL     1      -3.053   9.890  15.833  0.00  0.00    +0.000 A 
ATOM     27  C   UNL     1      -2.008   9.841  16.771  0.00  0.00    +0.000 A 
ATOM     28  C   UNL     1      -2.074  10.669  17.875  0.00  0.00    +0.000 A 
ATOM     29  N   UNL     1      -1.175  10.884  18.936  0.00  0.00    +0.000 N 
ENDBRANCH   1  29
TORSDOF 2
ENDMDL
MODEL 2
REMARK VINA RESULT:      -9.5      1.976      8.423
REMARK  Name = 
REMARK  2 active torsions:
REMARK  status: ('A' for Active; 'I' for Inactive)
REMARK    1  A    between atoms: N_10  and  C_11
REMARK    2  A    between atoms: N_14  and  C_15
REMARK                            x       y       z     vdW  Elec       q    Type
REMARK                         _______ _______ _______ _____ _____    ______ ____
ROOT
ATOM      1  C   UNL     1       2.407   7.735  19.069  0.00  0.00    +0.000 C 
ATOM      2  C   UNL     1       1.989   8.500  17.812  0.00  0.00    +0.000 C 
ATOM      3  C   UNL     1       1.784   9.977  18.160  0.00  0.00    +0.000 C 
ATOM      4  N   UNL     1       0.798  10.196  19.221  0.00  0.00    +0.000 NA
ATOM      5  C   UNL     1       1.203   9.479  20.444  0.00  0.00    +0.000 C 
ATOM      6  C   UNL     1       1.437   7.976  20.231  0.00  0.00    +0.000 C 
ENDROOT
BRANCH   4   7
ATOM      7  C   UNL     1      -0.652  10.072  18.896  0.00  0.00    +0.000 C 
ATOM      8  C   UNL     1      -0.980   9.786  17.399  0.00  0.00    +0.000 C 
ATOM      9  C   UNL     1      -2.311  10.297  16.868  0.00  0.00    +0.000 C 
ATOM     10  C   UNL     1      -3.367  10.435  17.951  0.00  0.00    +0.000 C 
ATOM     11  C   UNL     1      -4.685  10.888  17.307  0.00  0.00    +0.000 C 
ATOM     12  C   UNL     1      -5.662  11.355  18.370  0.00  0.00    +0.000 C 
ATOM     13  C   UNL     1      -5.095  12.580  19.079  0.00  0.00    +0.000 C 
ATOM     14  C   UNL     1      -3.685  12.368  19.572  0.00  0.00    +0.000 A 
ATOM     15  C   UNL     1      -3.185  13.207  20.573  0.00  0.00    +0.000 A 
ATOM     16  C   UNL     1      -1.887  13.043  21.045  0.00  0.00    +0.000 A 
ATOM     17  C   UNL     1      -1.060  12.056  20.500  0.00  0.00    +0.000 A 
ATOM     18  C   UNL     1      -1.509  11.220  19.465  0.00  0.00    +0.000 A 
ATOM     19  C   UNL     1      -2.845  11.381  19.013  0.00  0.00    +0.000 A 
ENDBRANCH   4   7
BRANCH   1  29
ATOM     20  O   UNL     1       4.315   6.887  17.078  0.00  0.00    +0.000 OA
ATOM     21  C   UNL     1       3.729   6.078  17.786  0.00  0.00    +0.000 C 
ATOM     22  C   UNL     1       3.919   4.571  17.720  0.00  0.00    +0.000 C 
ATOM     23  C   UNL     1       2.953   4.079  18.745  0.00  0.00    +0.000 A 
ATOM     24  C   UNL     1       2.716   2.764  19.115  0.00  0.00    +0.000 A 
ATOM     25  C   UNL     1       1.742   2.527  20.082  0.00  0.00    +0.000 A 
ATOM     26  C   UNL     1       1.013   3.594  20.630  0.00  0.00    +0.000 A 
ATOM     27  C   UNL     1       1.267   4.921  20.242  0.00  0.00    +0.000 A 
ATOM     28  C   UNL     1       2.265   5.159  19.318  0.00  0.00    +0.000 A 
ATOM     29  N   UNL     1       2.779   6.356  18.786  0.00  0.00    +0.000 N 
ENDBRANCH   1  29
TORSDOF 2
ENDMDL
MODEL 3
REMARK VINA RESULT:      -9.2      1.834      8.445
REMARK  Name = 
REMARK  2 active torsions:
REMARK  status: ('A' for Active; 'I' for Inactive)
REMARK    1  A    between atoms: N_10  and  C_11
REMARK    2  A    between atoms: N_14  and  C_15
REMARK                            x       y       z     vdW  Elec       q    Type
REMARK                         _______ _______ _______ _____ _____    ______ ____
ROOT
ATOM      1  C   UNL     1       2.351   7.810  19.084  0.00  0.00    +0.000 C 
ATOM      2  C   UNL     1       1.963   8.631  17.852  0.00  0.00    +0.000 C 
ATOM      3  C   UNL     1       1.742  10.090  18.262  0.00  0.00    +0.000 C 
ATOM      4  N   UNL     1       0.727  10.257  19.305  0.00  0.00    +0.000 NA
ATOM      5  C   UNL     1       1.102   9.486  20.504  0.00  0.00    +0.000 C 
ATOM      6  C   UNL     1       1.348   7.995  20.230  0.00  0.00    +0.000 C 
ENDROOT
BRANCH   4   7
ATOM      7  C   UNL     1      -0.713  10.143  18.934  0.00  0.00    +0.000 C 
ATOM      8  C   UNL     1      -0.999   9.921  17.418  0.00  0.00    +0.000 C 
ATOM      9  C   UNL     1      -2.317  10.451  16.873  0.00  0.00    +0.000 C 
ATOM     10  C   UNL     1      -3.403  10.538  17.931  0.00  0.00    +0.000 C 
ATOM     11  C   UNL     1      -4.704  11.015  17.272  0.00  0.00    +0.000 C 
ATOM     12  C   UNL     1      -5.712  11.433  18.326  0.00  0.00    +0.000 C 
ATOM     13  C   UNL     1      -5.170  12.628  19.103  0.00  0.00    +0.000 C 
ATOM     14  C   UNL     1      -3.773  12.398  19.625  0.00  0.00    +0.000 A 
ATOM     15  C   UNL     1      -3.304  13.195  20.675  0.00  0.00    +0.000 A 
ATOM     16  C   UNL     1      -2.019  13.014  21.175  0.00  0.00    +0.000 A 
ATOM     17  C   UNL     1      -1.173  12.055  20.611  0.00  0.00    +0.000 A 
ATOM     18  C   UNL     1      -1.590  11.263  19.529  0.00  0.00    +0.000 A 
ATOM     19  C   UNL     1      -2.914  11.439  19.047  0.00  0.00    +0.000 A 
ENDBRANCH   4   7
BRANCH   1  29
ATOM     20  O   UNL     1       1.471   5.432  20.460  0.00  0.00    +0.000 OA
ATOM     21  C   UNL     1       2.232   5.371  19.503  0.00  0.00    +0.000 C 
ATOM     22  C   UNL     1       2.797   4.083  18.926  0.00  0.00    +0.000 C 
ATOM     23  C   UNL     1       3.677   4.580  17.828  0.00  0.00    +0.000 A 
ATOM     24  C   UNL     1       4.440   3.822  16.953  0.00  0.00    +0.000 A 
ATOM     25  C   UNL     1       5.216   4.500  16.016  0.00  0.00    +0.000 A 
ATOM     26  C   UNL     1       5.237   5.902  15.993  0.00  0.00    +0.000 A 
ATOM     27  C   UNL     1       4.458   6.655  16.889  0.00  0.00    +0.000 A 
ATOM     28  C   UNL     1       3.652   5.983  17.788  0.00  0.00    +0.000 A 
ATOM     29  N   UNL     1       2.737   6.447  18.750  0.00  0.00    +0.000 N 
ENDBRANCH   1  29
TORSDOF 2
ENDMDL
MODEL 4
REMARK VINA RESULT:      -9.1      1.226      2.234
REMARK  Name = 
REMARK  2 active torsions:
REMARK  status: ('A' for Active; 'I' for Inactive)
REMARK    1  A    between atoms: N_10  and  C_11
REMARK    2  A    between atoms: N_14  and  C_15
REMARK                            x       y       z     vdW  Elec       q    Type
REMARK                         _______ _______ _______ _____ _____    ______ ____
ROOT
ATOM      1  C   UNL     1      -0.285  10.390  19.102  0.00  0.00    +0.000 C 
ATOM      2  C   UNL     1      -0.137   9.554  20.374  0.00  0.00    +0.000 C 
ATOM      3  C   UNL     1       1.347   9.270  20.627  0.00  0.00    +0.000 C 
ATOM      4  N   UNL     1       2.010   8.592  19.510  0.00  0.00    +0.000 NA
ATOM      5  C   UNL     1       1.891   9.402  18.284  0.00  0.00    +0.000 C 
ATOM      6  C   UNL     1       0.442   9.752  17.913  0.00  0.00    +0.000 C 
ENDROOT
BRANCH   4   7
ATOM      7  C   UNL     1       1.768   7.135  19.304  0.00  0.00    +0.000 C 
ATOM      8  C   UNL     1       1.448   6.321  20.594  0.00  0.00    +0.000 C 
ATOM      9  C   UNL     1       1.847   4.853  20.607  0.00  0.00    +0.000 C 
ATOM     10  C   UNL     1       1.904   4.243  19.218  0.00  0.00    +0.000 C 
ATOM     11  C   UNL     1       2.246   2.751  19.342  0.00  0.00    +0.000 C 
ATOM     12  C   UNL     1       2.638   2.182  17.991  0.00  0.00    +0.000 C 
ATOM     13  C   UNL     1       3.908   2.866  17.499  0.00  0.00    +0.000 C 
ATOM     14  C   UNL     1       3.814   4.372  17.543  0.00  0.00    +0.000 A 
ATOM     15  C   UNL     1       4.696   5.127  16.764  0.00  0.00    +0.000 A 
ATOM     16  C   UNL     1       4.640   6.517  16.787  0.00  0.00    +0.000 A 
ATOM     17  C   UNL     1       3.721   7.171  17.612  0.00  0.00    +0.000 A 
ATOM     18  C   UNL     1       2.845   6.450  18.441  0.00  0.00    +0.000 A 
ATOM     19  C   UNL     1       2.895   5.033  18.387  0.00  0.00    +0.000 A 
ENDBRANCH   4   7
BRANCH   1  29
ATOM     20  O   UNL     1      -1.969   9.625  16.888  0.00  0.00    +0.000 OA
ATOM     21  C   UNL     1      -2.368  10.386  17.760  0.00  0.00    +0.000 C 
ATOM     22  C   UNL     1      -3.754  11.010  17.798  0.00  0.00    +0.000 C 
ATOM     23  C   UNL     1      -3.690  11.865  19.020  0.00  0.00    +0.000 A 
ATOM     24  C   UNL     1      -4.697  12.660  19.543  0.00  0.00    +0.000 A 
ATOM     25  C   UNL     1      -4.409  13.403  20.686  0.00  0.00    +0.000 A 
ATOM     26  C   UNL     1      -3.128  13.358  21.256  0.00  0.00    +0.000 A 
ATOM     27  C   UNL     1      -2.118  12.546  20.711  0.00  0.00    +0.000 A 
ATOM     28  C   UNL     1      -2.418  11.774  19.605  0.00  0.00    +0.000 A 
ATOM     29  N   UNL     1      -1.653  10.839  18.884  0.00  0.00    +0.000 N 
ENDBRANCH   1  29
TORSDOF 2
ENDMDL
MODEL 5
REMARK VINA RESULT:      -8.6      2.821      4.475
REMARK  Name = 
REMARK  2 active torsions:
REMARK  status: ('A' for Active; 'I' for Inactive)
REMARK    1  A    between atoms: N_10  and  C_11
REMARK    2  A    between atoms: N_14  and  C_15
REMARK                            x       y       z     vdW  Elec       q    Type
REMARK                         _______ _______ _______ _____ _____    ______ ____
ROOT
ATOM      1  C   UNL     1       0.120  12.023  20.048  0.00  0.00    +0.000 C 
ATOM      2  C   UNL     1      -0.152  11.111  18.850  0.00  0.00    +0.000 C 
ATOM      3  C   UNL     1      -0.457   9.695  19.348  0.00  0.00    +0.000 C 
ATOM      4  N   UNL     1       0.610   9.123  20.173  0.00  0.00    +0.000 NA
ATOM      5  C   UNL     1       0.864   9.984  21.341  0.00  0.00    +0.000 C 
ATOM      6  C   UNL     1       1.191  11.441  20.977  0.00  0.00    +0.000 C 
ENDROOT
BRANCH   4   7
ATOM      7  C   UNL     1       1.846   8.621  19.506  0.00  0.00    +0.000 C 
ATOM      8  C   UNL     1       2.003   9.012  18.006  0.00  0.00    +0.000 C 
ATOM      9  C   UNL     1       2.786   8.058  17.117  0.00  0.00    +0.000 C 
ATOM     10  C   UNL     1       3.806   7.234  17.884  0.00  0.00    +0.000 C 
ATOM     11  C   UNL     1       4.587   6.359  16.894  0.00  0.00    +0.000 C 
ATOM     12  C   UNL     1       5.371   5.292  17.633  0.00  0.00    +0.000 C 
ATOM     13  C   UNL     1       4.406   4.356  18.353  0.00  0.00    +0.000 C 
ATOM     14  C   UNL     1       3.400   5.097  19.200  0.00  0.00    +0.000 A 
ATOM     15  C   UNL     1       2.734   4.406  20.218  0.00  0.00    +0.000 A 
ATOM     16  C   UNL     1       1.796   5.057  21.012  0.00  0.00    +0.000 A 
ATOM     17  C   UNL     1       1.488   6.401  20.779  0.00  0.00    +0.000 A 
ATOM     18  C   UNL     1       2.103   7.119  19.741  0.00  0.00    +0.000 A 
ATOM     19  C   UNL     1       3.079   6.450  18.957  0.00  0.00    +0.000 A 
ENDBRANCH   4   7
BRANCH   1  29
ATOM     20  O   UNL     1      -1.935  14.035  20.281  0.00  0.00    +0.000 OA
ATOM     21  C   UNL     1      -0.826  14.303  19.835  0.00  0.00    +0.000 C 
ATOM     22  C   UNL     1      -0.393  15.681  19.361  0.00  0.00    +0.000 C 
ATOM     23  C   UNL     1       1.001  15.436  18.889  0.00  0.00    +0.000 A 
ATOM     24  C   UNL     1       1.884  16.364  18.358  0.00  0.00    +0.000 A 
ATOM     25  C   UNL     1       3.137  15.908  17.953  0.00  0.00    +0.000 A 
ATOM     26  C   UNL     1       3.464  14.548  18.056  0.00  0.00    +0.000 A 
ATOM     27  C   UNL     1       2.555  13.621  18.595  0.00  0.00    +0.000 A 
ATOM     28  C   UNL     1       1.331  14.081  19.041  0.00  0.00    +0.000 A 
ATOM     29  N   UNL     1       0.257  13.421  19.666  0.00  0.00    +0.000 N 
ENDBRANCH   1  29
TORSDOF 2
ENDMDL
MODEL 6
REMARK VINA RESULT:      -8.2      2.328      3.950
REMARK  Name = 
REMARK  2 active torsions:
REMARK  status: ('A' for Active; 'I' for Inactive)
REMARK    1  A    between atoms: N_10  and  C_11
REMARK    2  A    between atoms: N_14  and  C_15
REMARK                            x       y       z     vdW  Elec       q    Type
REMARK                         _______ _______ _______ _____ _____    ______ ____
ROOT
ATOM      1  C   UNL     1      -0.213  10.956  21.159  0.00  0.00    +0.000 C 
ATOM      2  C   UNL     1      -0.561   9.995  20.022  0.00  0.00    +0.000 C 
ATOM      3  C   UNL     1      -0.505   8.554  20.538  0.00  0.00    +0.000 C 
ATOM      4  N   UNL     1       0.792   8.189  21.112  0.00  0.00    +0.000 NA
ATOM      5  C   UNL     1       1.127   9.097  22.224  0.00  0.00    +0.000 C 
ATOM      6  C   UNL     1       1.112  10.584  21.835  0.00  0.00    +0.000 C 
ENDROOT
BRANCH   4   7
ATOM      7  C   UNL     1       1.933   7.904  20.195  0.00  0.00    +0.000 C 
ATOM      8  C   UNL     1       1.945   8.722  18.868  0.00  0.00    +0.000 C 
ATOM      9  C   UNL     1       2.596   8.072  17.656  0.00  0.00    +0.000 C 
ATOM     10  C   UNL     1       3.661   7.056  18.029  0.00  0.00    +0.000 C 
ATOM     11  C   UNL     1       4.301   6.511  16.745  0.00  0.00    +0.000 C 
ATOM     12  C   UNL     1       5.122   5.271  17.046  0.00  0.00    +0.000 C 
ATOM     13  C   UNL     1       4.205   4.167  17.561  0.00  0.00    +0.000 C 
ATOM     14  C   UNL     1       3.321   4.625  18.695  0.00  0.00    +0.000 A 
ATOM     15  C   UNL     1       2.741   3.666  19.531  0.00  0.00    +0.000 A 
ATOM     16  C   UNL     1       1.916   4.055  20.581  0.00  0.00    +0.000 A 
ATOM     17  C   UNL     1       1.632   5.407  20.790  0.00  0.00    +0.000 A 
ATOM     18  C   UNL     1       2.160   6.400  19.948  0.00  0.00    +0.000 A 
ATOM     19  C   UNL     1       3.023   5.990  18.898  0.00  0.00    +0.000 A 
ENDBRANCH   4   7
BRANCH   1  29
ATOM     20  O   UNL     1      -2.521  12.562  21.808  0.00  0.00    +0.000 OA
ATOM     21  C   UNL     1      -1.580  13.023  21.174  0.00  0.00    +0.000 C 
ATOM     22  C   UNL     1      -1.499  14.451  20.660  0.00  0.00    +0.000 C 
ATOM     23  C   UNL     1      -0.193  14.460  19.937  0.00  0.00    +0.000 A 
ATOM     24  C   UNL     1       0.395  15.527  19.277  0.00  0.00    +0.000 A 
ATOM     25  C   UNL     1       1.614  15.304  18.640  0.00  0.00    +0.000 A 
ATOM     26  C   UNL     1       2.196  14.027  18.651  0.00  0.00    +0.000 A 
ATOM     27  C   UNL     1       1.584  12.956  19.326  0.00  0.00    +0.000 A 
ATOM     28  C   UNL     1       0.400  13.189  19.996  0.00  0.00    +0.000 A 
ATOM     29  N   UNL     1      -0.404  12.352  20.791  0.00  0.00    +0.000 N 
ENDBRANCH   1  29
TORSDOF 2
ENDMDL
MODEL 7
REMARK VINA RESULT:      -8.2      2.648      8.918
REMARK  Name = 
REMARK  2 active torsions:
REMARK  status: ('A' for Active; 'I' for Inactive)
REMARK    1  A    between atoms: N_10  and  C_11
REMARK    2  A    between atoms: N_14  and  C_15
REMARK                            x       y       z     vdW  Elec       q    Type
REMARK                         _______ _______ _______ _____ _____    ______ ____
ROOT
ATOM      1  C   UNL     1       0.276  10.463  19.336  0.00  0.00    +0.000 C 
ATOM      2  C   UNL     1      -1.244  10.335  19.220  0.00  0.00    +0.000 C 
ATOM      3  C   UNL     1      -1.820  11.627  18.632  0.00  0.00    +0.000 C 
ATOM      4  N   UNL     1      -1.483  12.823  19.408  0.00  0.00    +0.000 NA
ATOM      5  C   UNL     1      -0.019  12.966  19.508  0.00  0.00    +0.000 C 
ATOM      6  C   UNL     1       0.685  11.732  20.092  0.00  0.00    +0.000 C 
ENDROOT
BRANCH   4   7
ATOM      7  C   UNL     1      -2.208  13.082  20.686  0.00  0.00    +0.000 C 
ATOM      8  C   UNL     1      -1.577  12.435  21.956  0.00  0.00    +0.000 C 
ATOM      9  C   UNL     1      -2.521  12.068  23.091  0.00  0.00    +0.000 C 
ATOM     10  C   UNL     1      -3.779  12.918  23.115  0.00  0.00    +0.000 C 
ATOM     11  C   UNL     1      -4.628  12.519  24.330  0.00  0.00    +0.000 C 
ATOM     12  C   UNL     1      -6.027  13.095  24.213  0.00  0.00    +0.000 C 
ATOM     13  C   UNL     1      -6.723  12.496  22.995  0.00  0.00    +0.000 C 
ATOM     14  C   UNL     1      -5.894  12.600  21.739  0.00  0.00    +0.000 A 
ATOM     15  C   UNL     1      -6.528  12.485  20.498  0.00  0.00    +0.000 A 
ATOM     16  C   UNL     1      -5.792  12.569  19.322  0.00  0.00    +0.000 A 
ATOM     17  C   UNL     1      -4.405  12.738  19.369  0.00  0.00    +0.000 A 
ATOM     18  C   UNL     1      -3.724  12.817  20.595  0.00  0.00    +0.000 A 
ATOM     19  C   UNL     1      -4.492  12.758  21.788  0.00  0.00    +0.000 A 
ENDBRANCH   4   7
BRANCH   1  29
ATOM     20  O   UNL     1      -0.018   9.171  21.899  0.00  0.00    +0.000 OA
ATOM     21  C   UNL     1       0.683   8.690  21.018  0.00  0.00    +0.000 C 
ATOM     22  C   UNL     1       1.466   7.393  21.146  0.00  0.00    +0.000 C 
ATOM     23  C   UNL     1       2.162   7.305  19.828  0.00  0.00    +0.000 A 
ATOM     24  C   UNL     1       3.012   6.301  19.392  0.00  0.00    +0.000 A 
ATOM     25  C   UNL     1       3.578   6.436  18.126  0.00  0.00    +0.000 A 
ATOM     26  C   UNL     1       3.310   7.571  17.347  0.00  0.00    +0.000 A 
ATOM     27  C   UNL     1       2.446   8.580  17.806  0.00  0.00    +0.000 A 
ATOM     28  C   UNL     1       1.848   8.424  19.042  0.00  0.00    +0.000 A 
ATOM     29  N   UNL     1       0.913   9.216  19.733  0.00  0.00    +0.000 N 
ENDBRANCH   1  29
TORSDOF 2
ENDMDL
MODEL 8
REMARK VINA RESULT:      -7.8      1.785      8.644
REMARK  Name = 
REMARK  2 active torsions:
REMARK  status: ('A' for Active; 'I' for Inactive)
REMARK    1  A    between atoms: N_10  and  C_11
REMARK    2  A    between atoms: N_14  and  C_15
REMARK                            x       y       z     vdW  Elec       q    Type
REMARK                         _______ _______ _______ _____ _____    ______ ____
ROOT
ATOM      1  C   UNL     1       1.716   8.963  19.496  0.00  0.00    +0.000 C 
ATOM      2  C   UNL     1       1.242   9.536  18.159  0.00  0.00    +0.000 C 
ATOM      3  C   UNL     1       0.925  11.025  18.326  0.00  0.00    +0.000 C 
ATOM      4  N   UNL     1      -0.076  11.296  19.361  0.00  0.00    +0.000 NA
ATOM      5  C   UNL     1       0.381  10.766  20.659  0.00  0.00    +0.000 C 
ATOM      6  C   UNL     1       0.728   9.270  20.628  0.00  0.00    +0.000 C 
ENDROOT
BRANCH   4   7
ATOM      7  C   UNL     1      -1.512  11.024  19.065  0.00  0.00    +0.000 C 
ATOM      8  C   UNL     1      -1.843  10.735  17.569  0.00  0.00    +0.000 C 
ATOM      9  C   UNL     1      -3.233  11.112  17.079  0.00  0.00    +0.000 C 
ATOM     10  C   UNL     1      -4.272  11.113  18.187  0.00  0.00    +0.000 C 
ATOM     11  C   UNL     1      -5.646  11.436  17.583  0.00  0.00    +0.000 C 
ATOM     12  C   UNL     1      -6.641  11.774  18.677  0.00  0.00    +0.000 C 
ATOM     13  C   UNL     1      -6.192  13.038  19.402  0.00  0.00    +0.000 C 
ATOM     14  C   UNL     1      -4.755  12.968  19.859  0.00  0.00    +0.000 A 
ATOM     15  C   UNL     1      -4.324  13.835  20.867  0.00  0.00    +0.000 A 
ATOM     16  C   UNL     1      -3.005  13.801  21.307  0.00  0.00    +0.000 A 
ATOM     17  C   UNL     1      -2.090  12.921  20.722  0.00  0.00    +0.000 A 
ATOM     18  C   UNL     1      -2.472  12.062  19.678  0.00  0.00    +0.000 A 
ATOM     19  C   UNL     1      -3.828  12.088  19.259  0.00  0.00    +0.000 A 
ENDBRANCH   4   7
BRANCH   1  29
ATOM     20  O   UNL     1       1.097   6.813  21.318  0.00  0.00    +0.000 OA
ATOM     21  C   UNL     1       1.812   6.636  20.339  0.00  0.00    +0.000 C 
ATOM     22  C   UNL     1       2.449   5.308  19.961  0.00  0.00    +0.000 C 
ATOM     23  C   UNL     1       3.231   5.661  18.741  0.00  0.00    +0.000 A 
ATOM     24  C   UNL     1       4.007   4.814  17.965  0.00  0.00    +0.000 A 
ATOM     25  C   UNL     1       4.680   5.366  16.877  0.00  0.00    +0.000 A 
ATOM     26  C   UNL     1       4.588   6.740  16.609  0.00  0.00    +0.000 A 
ATOM     27  C   UNL     1       3.796   7.584  17.407  0.00  0.00    +0.000 A 
ATOM     28  C   UNL     1       3.093   7.029  18.458  0.00  0.00    +0.000 A 
ATOM     29  N   UNL     1       2.192   7.592  19.380  0.00  0.00    +0.000 N 
ENDBRANCH   1  29
TORSDOF 2
ENDMDL
MODEL 9
REMARK VINA RESULT:      -7.8      2.602      4.349
REMARK  Name = 
REMARK  2 active torsions:
REMARK  status: ('A' for Active; 'I' for Inactive)
REMARK    1  A    between atoms: N_10  and  C_11
REMARK    2  A    between atoms: N_14  and  C_15
REMARK                            x       y       z     vdW  Elec       q    Type
REMARK                         _______ _______ _______ _____ _____    ______ ____
ROOT
ATOM      1  C   UNL     1       0.223  11.937  19.980  0.00  0.00    +0.000 C 
ATOM      2  C   UNL     1      -0.044  11.014  18.789  0.00  0.00    +0.000 C 
ATOM      3  C   UNL     1      -0.367   9.606  19.298  0.00  0.00    +0.000 C 
ATOM      4  N   UNL     1       0.687   9.033  20.139  0.00  0.00    +0.000 NA
ATOM      5  C   UNL     1       0.936   9.905  21.302  0.00  0.00    +0.000 C 
ATOM      6  C   UNL     1       1.280  11.354  20.926  0.00  0.00    +0.000 C 
ENDROOT
BRANCH   4   7
ATOM      7  C   UNL     1       1.926   8.514  19.491  0.00  0.00    +0.000 C 
ATOM      8  C   UNL     1       2.106   8.897  17.991  0.00  0.00    +0.000 C 
ATOM      9  C   UNL     1       2.889   7.930  17.116  0.00  0.00    +0.000 C 
ATOM     10  C   UNL     1       3.889   7.098  17.899  0.00  0.00    +0.000 C 
ATOM     11  C   UNL     1       4.673   6.209  16.923  0.00  0.00    +0.000 C 
ATOM     12  C   UNL     1       5.436   5.136  17.677  0.00  0.00    +0.000 C 
ATOM     13  C   UNL     1       4.451   4.216  18.389  0.00  0.00    +0.000 C 
ATOM     14  C   UNL     1       3.443   4.971  19.220  0.00  0.00    +0.000 A 
ATOM     15  C   UNL     1       2.757   4.293  20.232  0.00  0.00    +0.000 A 
ATOM     16  C   UNL     1       1.816   4.959  21.012  0.00  0.00    +0.000 A 
ATOM     17  C   UNL     1       1.526   6.304  20.769  0.00  0.00    +0.000 A 
ATOM     18  C   UNL     1       2.163   7.011  19.736  0.00  0.00    +0.000 A 
ATOM     19  C   UNL     1       3.140   6.327  18.967  0.00  0.00    +0.000 A 
ENDBRANCH   4   7
BRANCH   1  29
ATOM     20  O   UNL     1       2.474  13.036  18.549  0.00  0.00    +0.000 OA
ATOM     21  C   UNL     1       1.527  13.737  18.886  0.00  0.00    +0.000 C 
ATOM     22  C   UNL     1       1.409  15.226  18.607  0.00  0.00    +0.000 C 
ATOM     23  C   UNL     1       0.113  15.575  19.260  0.00  0.00    +0.000 A 
ATOM     24  C   UNL     1      -0.499  16.818  19.303  0.00  0.00    +0.000 A 
ATOM     25  C   UNL     1      -1.702  16.924  19.997  0.00  0.00    +0.000 A 
ATOM     26  C   UNL     1      -2.246  15.807  20.649  0.00  0.00    +0.000 A 
ATOM     27  C   UNL     1      -1.611  14.555  20.594  0.00  0.00    +0.000 A 
ATOM     28  C   UNL     1      -0.442  14.439  19.868  0.00  0.00    +0.000 A 
ATOM     29  N   UNL     1       0.376  13.330  19.586  0.00  0.00    +0.000 N 
ENDBRANCH   1  29
TORSDOF 2
ENDMDL
