MODEL 1
REMARK VINA RESULT:      -6.9      0.000      0.000
REMARK  Name = 
REMARK  6 active torsions:
REMARK  status: ('A' for Active; 'I' for Inactive)
REMARK    1  A    between atoms: C_1  and  C_2
REMARK    2  A    between atoms: C_2  and  O_3
REMARK    3  A    between atoms: O_3  and  C_4
REMARK    4  A    between atoms: C_4  and  C_6
REMARK    5  A    between atoms: C_7  and  C_8
REMARK    6  A    between atoms: C_12  and  C_13
REMARK                            x       y       z     vdW  Elec       q    Type
REMARK                         _______ _______ _______ _____ _____    ______ ____
ROOT
ATOM      1  C   UNL     1       4.072   4.513  17.262  0.00  0.00    +0.000 A 
ATOM      2  C   UNL     1       3.880   5.863  17.574  0.00  0.00    +0.000 A 
ATOM      3  C   UNL     1       4.588   6.855  16.893  0.00  0.00    +0.000 A 
ATOM      4  C   UNL     1       5.494   6.510  15.889  0.00  0.00    +0.000 A 
ATOM      5  C   UNL     1       5.697   5.164  15.561  0.00  0.00    +0.000 A 
ATOM      6  C   UNL     1       4.984   4.174  16.255  0.00  0.00    +0.000 A 
ENDROOT
BRANCH   5   7
ATOM      7  C   UNL     1       6.635   4.713  14.493  0.00  0.00    +0.000 C 
ATOM      8  N   UNL     1       6.355   3.561  13.813  0.00  0.00    +0.000 N 
ATOM      9  O   UNL     1       7.647   5.350  14.219  0.00  0.00    +0.000 OA
ATOM     10  H   UNL     1       5.594   2.936  14.016  0.00  0.00    +0.000 HD
ATOM     11  H   UNL     1       7.039   3.264  13.129  0.00  0.00    +0.000 HD
ENDBRANCH   5   7
BRANCH   1  13
ATOM     12  C   UNL     1       1.921   3.588  18.100  0.00  0.00    +0.000 C 
ATOM     13  C   UNL     1       3.252   3.510  17.947  0.00  0.00    +0.000 C 
BRANCH  12  14
ATOM     14  C   UNL     1       1.211   2.483  18.770  0.00  0.00    +0.000 C 
ATOM     15  O   UNL     1       0.140   2.019  18.413  0.00  0.00    +0.000 OA
BRANCH  14  16
ATOM     16  O   UNL     1       1.907   2.157  19.885  0.00  0.00    +0.000 OA
BRANCH  16  18
ATOM     17  C   UNL     1       2.245   3.769  21.618  0.00  0.00    +0.000 C 
ATOM     18  C   UNL     1       1.349   2.655  21.109  0.00  0.00    +0.000 C 
ENDBRANCH  16  18
ENDBRANCH  14  16
ENDBRANCH  12  14
ENDBRANCH   1  13
TORSDOF 5
ENDMDL
MODEL 2
REMARK VINA RESULT:      -6.7      2.599      2.937
REMARK  Name = 
REMARK  6 active torsions:
REMARK  status: ('A' for Active; 'I' for Inactive)
REMARK    1  A    between atoms: C_1  and  C_2
REMARK    2  A    between atoms: C_2  and  O_3
REMARK    3  A    between atoms: O_3  and  C_4
REMARK    4  A    between atoms: C_4  and  C_6
REMARK    5  A    between atoms: C_7  and  C_8
REMARK    6  A    between atoms: C_12  and  C_13
REMARK                            x       y       z     vdW  Elec       q    Type
REMARK                         _______ _______ _______ _____ _____    ______ ____
ROOT
ATOM      1  C   UNL     1       4.807   4.085  17.669  0.00  0.00    +0.000 A 
ATOM      2  C   UNL     1       5.116   3.900  16.317  0.00  0.00    +0.000 A 
ATOM      3  C   UNL     1       6.304   4.403  15.786  0.00  0.00    +0.000 A 
ATOM      4  C   UNL     1       7.202   5.095  16.600  0.00  0.00    +0.000 A 
ATOM      5  C   UNL     1       6.912   5.288  17.957  0.00  0.00    +0.000 A 
ATOM      6  C   UNL     1       5.712   4.782  18.480  0.00  0.00    +0.000 A 
ENDROOT
BRANCH   5   7
ATOM      7  C   UNL     1       7.824   6.003  18.896  0.00  0.00    +0.000 C 
ATOM      8  N   UNL     1       8.176   5.391  20.066  0.00  0.00    +0.000 N 
ATOM      9  O   UNL     1       8.254   7.122  18.642  0.00  0.00    +0.000 OA
ATOM     10  H   UNL     1       7.816   4.511  20.394  0.00  0.00    +0.000 HD
ATOM     11  H   UNL     1       8.758   5.927  20.698  0.00  0.00    +0.000 HD
ENDBRANCH   5   7
BRANCH   1  13
ATOM     12  C   UNL     1       2.413   4.106  18.338  0.00  0.00    +0.000 C 
ATOM     13  C   UNL     1       3.588   3.473  18.202  0.00  0.00    +0.000 C 
BRANCH  12  14
ATOM     14  C   UNL     1       1.249   3.356  18.847  0.00  0.00    +0.000 C 
ATOM     15  O   UNL     1       0.741   2.392  18.296  0.00  0.00    +0.000 OA
BRANCH  14  16
ATOM     16  O   UNL     1       0.803   3.985  19.960  0.00  0.00    +0.000 OA
BRANCH  16  18
ATOM     17  C   UNL     1       1.676   2.620  21.717  0.00  0.00    +0.000 C 
ATOM     18  C   UNL     1       1.724   3.986  21.059  0.00  0.00    +0.000 C 
ENDBRANCH  16  18
ENDBRANCH  14  16
ENDBRANCH  12  14
ENDBRANCH   1  13
TORSDOF 5
ENDMDL
MODEL 3
REMARK VINA RESULT:      -6.7      2.228      6.536
REMARK  Name = 
REMARK  6 active torsions:
REMARK  status: ('A' for Active; 'I' for Inactive)
REMARK    1  A    between atoms: C_1  and  C_2
REMARK    2  A    between atoms: C_2  and  O_3
REMARK    3  A    between atoms: O_3  and  C_4
REMARK    4  A    between atoms: C_4  and  C_6
REMARK    5  A    between atoms: C_7  and  C_8
REMARK    6  A    between atoms: C_12  and  C_13
REMARK                            x       y       z     vdW  Elec       q    Type
REMARK                         _______ _______ _______ _____ _____    ______ ____
ROOT
ATOM      1  C   UNL     1       4.213   4.804  17.200  0.00  0.00    +0.000 A 
ATOM      2  C   UNL     1       4.013   6.093  17.705  0.00  0.00    +0.000 A 
ATOM      3  C   UNL     1       2.974   6.350  18.601  0.00  0.00    +0.000 A 
ATOM      4  C   UNL     1       2.124   5.320  19.007  0.00  0.00    +0.000 A 
ATOM      5  C   UNL     1       2.311   4.022  18.515  0.00  0.00    +0.000 A 
ATOM      6  C   UNL     1       3.355   3.776  17.611  0.00  0.00    +0.000 A 
ENDROOT
BRANCH   5   7
ATOM      7  C   UNL     1       1.457   2.866  18.910  0.00  0.00    +0.000 C 
ATOM      8  N   UNL     1       1.789   1.618  18.462  0.00  0.00    +0.000 N 
ATOM      9  O   UNL     1       0.467   3.013  19.618  0.00  0.00    +0.000 OA
ATOM     10  H   UNL     1       2.535   1.409  17.820  0.00  0.00    +0.000 HD
ATOM     11  H   UNL     1       1.159   0.866  18.713  0.00  0.00    +0.000 HD
ENDBRANCH   5   7
BRANCH   1  13
ATOM     12  C   UNL     1       5.485   5.040  15.076  0.00  0.00    +0.000 C 
ATOM     13  C   UNL     1       5.363   4.563  16.324  0.00  0.00    +0.000 C 
BRANCH  12  14
ATOM     14  C   UNL     1       6.719   4.759  14.319  0.00  0.00    +0.000 C 
ATOM     15  O   UNL     1       7.673   5.515  14.228  0.00  0.00    +0.000 OA
BRANCH  14  16
ATOM     16  O   UNL     1       6.554   3.577  13.679  0.00  0.00    +0.000 OA
BRANCH  16  18
ATOM     17  C   UNL     1       5.142   3.072  11.818  0.00  0.00    +0.000 C 
ATOM     18  C   UNL     1       6.466   3.674  12.251  0.00  0.00    +0.000 C 
ENDBRANCH  16  18
ENDBRANCH  14  16
ENDBRANCH  12  14
ENDBRANCH   1  13
TORSDOF 5
ENDMDL
MODEL 4
REMARK VINA RESULT:      -6.6      1.357      1.503
REMARK  Name = 
REMARK  6 active torsions:
REMARK  status: ('A' for Active; 'I' for Inactive)
REMARK    1  A    between atoms: C_1  and  C_2
REMARK    2  A    between atoms: C_2  and  O_3
REMARK    3  A    between atoms: O_3  and  C_4
REMARK    4  A    between atoms: C_4  and  C_6
REMARK    5  A    between atoms: C_7  and  C_8
REMARK    6  A    between atoms: C_12  and  C_13
REMARK                            x       y       z     vdW  Elec       q    Type
REMARK                         _______ _______ _______ _____ _____    ______ ____
ROOT
ATOM      1  C   UNL     1       4.836   3.936  17.576  0.00  0.00    +0.000 A 
ATOM      2  C   UNL     1       5.643   4.487  18.577  0.00  0.00    +0.000 A 
ATOM      3  C   UNL     1       6.872   5.067  18.257  0.00  0.00    +0.000 A 
ATOM      4  C   UNL     1       7.307   5.108  16.931  0.00  0.00    +0.000 A 
ATOM      5  C   UNL     1       6.511   4.563  15.915  0.00  0.00    +0.000 A 
ATOM      6  C   UNL     1       5.280   3.978  16.249  0.00  0.00    +0.000 A 
ENDROOT
BRANCH   5   7
ATOM      7  C   UNL     1       6.896   4.579  14.475  0.00  0.00    +0.000 C 
ATOM      8  N   UNL     1       6.363   3.638  13.640  0.00  0.00    +0.000 N 
ATOM      9  O   UNL     1       7.681   5.411  14.031  0.00  0.00    +0.000 OA
ATOM     10  H   UNL     1       5.774   2.875  13.924  0.00  0.00    +0.000 HD
ATOM     11  H   UNL     1       6.686   3.653  12.680  0.00  0.00    +0.000 HD
ENDBRANCH   5   7
BRANCH   1  13
ATOM     12  C   UNL     1       2.595   4.085  18.644  0.00  0.00    +0.000 C 
ATOM     13  C   UNL     1       3.520   3.408  17.947  0.00  0.00    +0.000 C 
BRANCH  12  14
ATOM     14  C   UNL     1       1.291   3.450  18.909  0.00  0.00    +0.000 C 
ATOM     15  O   UNL     1       0.732   2.658  18.165  0.00  0.00    +0.000 OA
BRANCH  14  16
ATOM     16  O   UNL     1       0.797   3.975  20.056  0.00  0.00    +0.000 OA
BRANCH  16  18
ATOM     17  C   UNL     1       1.658   2.570  21.788  0.00  0.00    +0.000 C 
ATOM     18  C   UNL     1       1.706   3.953  21.165  0.00  0.00    +0.000 C 
ENDBRANCH  16  18
ENDBRANCH  14  16
ENDBRANCH  12  14
ENDBRANCH   1  13
TORSDOF 5
ENDMDL
MODEL 5
REMARK VINA RESULT:      -6.6      3.372      6.569
REMARK  Name = 
REMARK  6 active torsions:
REMARK  status: ('A' for Active; 'I' for Inactive)
REMARK    1  A    between atoms: C_1  and  C_2
REMARK    2  A    between atoms: C_2  and  O_3
REMARK    3  A    between atoms: O_3  and  C_4
REMARK    4  A    between atoms: C_4  and  C_6
REMARK    5  A    between atoms: C_7  and  C_8
REMARK    6  A    between atoms: C_12  and  C_13
REMARK                            x       y       z     vdW  Elec       q    Type
REMARK                         _______ _______ _______ _____ _____    ______ ____
ROOT
ATOM      1  C   UNL     1       3.850   4.294  17.061  0.00  0.00    +0.000 A 
ATOM      2  C   UNL     1       2.909   3.269  17.203  0.00  0.00    +0.000 A 
ATOM      3  C   UNL     1       1.792   3.440  18.023  0.00  0.00    +0.000 A 
ATOM      4  C   UNL     1       1.600   4.641  18.708  0.00  0.00    +0.000 A 
ATOM      5  C   UNL     1       2.530   5.680  18.576  0.00  0.00    +0.000 A 
ATOM      6  C   UNL     1       3.651   5.495  17.753  0.00  0.00    +0.000 A 
ENDROOT
BRANCH   5   7
ATOM      7  C   UNL     1       2.390   6.997  19.261  0.00  0.00    +0.000 C 
ATOM      8  N   UNL     1       2.199   7.019  20.614  0.00  0.00    +0.000 N 
ATOM      9  O   UNL     1       2.438   8.051  18.637  0.00  0.00    +0.000 OA
ATOM     10  H   UNL     1       2.072   6.210  21.197  0.00  0.00    +0.000 HD
ATOM     11  H   UNL     1       2.061   7.930  21.035  0.00  0.00    +0.000 HD
ENDBRANCH   5   7
BRANCH   1  13
ATOM     12  C   UNL     1       5.584   5.087  15.466  0.00  0.00    +0.000 C 
ATOM     13  C   UNL     1       4.964   4.100  16.130  0.00  0.00    +0.000 C 
BRANCH  12  14
ATOM     14  C   UNL     1       6.726   4.757  14.593  0.00  0.00    +0.000 C 
ATOM     15  O   UNL     1       7.730   5.439  14.463  0.00  0.00    +0.000 OA
BRANCH  14  16
ATOM     16  O   UNL     1       6.412   3.633  13.905  0.00  0.00    +0.000 OA
BRANCH  16  18
ATOM     17  C   UNL     1       5.517   2.786  11.856  0.00  0.00    +0.000 C 
ATOM     18  C   UNL     1       6.502   3.758  12.479  0.00  0.00    +0.000 C 
ENDBRANCH  16  18
ENDBRANCH  14  16
ENDBRANCH  12  14
ENDBRANCH   1  13
TORSDOF 5
ENDMDL
MODEL 6
REMARK VINA RESULT:      -6.6      3.930      6.282
REMARK  Name = 
REMARK  6 active torsions:
REMARK  status: ('A' for Active; 'I' for Inactive)
REMARK    1  A    between atoms: C_1  and  C_2
REMARK    2  A    between atoms: C_2  and  O_3
REMARK    3  A    between atoms: O_3  and  C_4
REMARK    4  A    between atoms: C_4  and  C_6
REMARK    5  A    between atoms: C_7  and  C_8
REMARK    6  A    between atoms: C_12  and  C_13
REMARK                            x       y       z     vdW  Elec       q    Type
REMARK                         _______ _______ _______ _____ _____    ______ ____
ROOT
ATOM      1  C   UNL     1       5.395   4.563  16.430  0.00  0.00    +0.000 A 
ATOM      2  C   UNL     1       4.257   4.254  17.181  0.00  0.00    +0.000 A 
ATOM      3  C   UNL     1       4.230   4.488  18.557  0.00  0.00    +0.000 A 
ATOM      4  C   UNL     1       5.339   5.040  19.199  0.00  0.00    +0.000 A 
ATOM      5  C   UNL     1       6.488   5.359  18.463  0.00  0.00    +0.000 A 
ATOM      6  C   UNL     1       6.506   5.114  17.081  0.00  0.00    +0.000 A 
ENDROOT
BRANCH   5   7
ATOM      7  C   UNL     1       7.708   5.963  19.070  0.00  0.00    +0.000 C 
ATOM      8  N   UNL     1       8.278   5.353  20.152  0.00  0.00    +0.000 N 
ATOM      9  O   UNL     1       8.202   6.993  18.623  0.00  0.00    +0.000 OA
ATOM     10  H   UNL     1       7.904   4.552  20.632  0.00  0.00    +0.000 HD
ATOM     11  H   UNL     1       9.076   5.819  20.564  0.00  0.00    +0.000 HD
ENDBRANCH   5   7
BRANCH   1  13
ATOM     12  C   UNL     1       6.394   3.984  14.228  0.00  0.00    +0.000 C 
ATOM     13  C   UNL     1       5.352   4.374  14.978  0.00  0.00    +0.000 C 
BRANCH  12  14
ATOM     14  C   UNL     1       6.200   3.787  12.779  0.00  0.00    +0.000 C 
ATOM     15  O   UNL     1       7.070   3.910  11.932  0.00  0.00    +0.000 OA
BRANCH  14  16
ATOM     16  O   UNL     1       4.884   3.548  12.564  0.00  0.00    +0.000 OA
BRANCH  16  18
ATOM     17  C   UNL     1       3.529   3.589  10.596  0.00  0.00    +0.000 C 
ATOM     18  C   UNL     1       4.594   2.825  11.360  0.00  0.00    +0.000 C 
ENDBRANCH  16  18
ENDBRANCH  14  16
ENDBRANCH  12  14
ENDBRANCH   1  13
TORSDOF 5
ENDMDL
MODEL 7
REMARK VINA RESULT:      -6.6      3.010      6.727
REMARK  Name = 
REMARK  6 active torsions:
REMARK  status: ('A' for Active; 'I' for Inactive)
REMARK    1  A    between atoms: C_1  and  C_2
REMARK    2  A    between atoms: C_2  and  O_3
REMARK    3  A    between atoms: O_3  and  C_4
REMARK    4  A    between atoms: C_4  and  C_6
REMARK    5  A    between atoms: C_7  and  C_8
REMARK    6  A    between atoms: C_12  and  C_13
REMARK                            x       y       z     vdW  Elec       q    Type
REMARK                         _______ _______ _______ _____ _____    ______ ____
ROOT
ATOM      1  C   UNL     1       3.739   3.587  17.660  0.00  0.00    +0.000 A 
ATOM      2  C   UNL     1       2.512   4.060  17.183  0.00  0.00    +0.000 A 
ATOM      3  C   UNL     1       1.385   4.063  18.006  0.00  0.00    +0.000 A 
ATOM      4  C   UNL     1       1.471   3.598  19.319  0.00  0.00    +0.000 A 
ATOM      5  C   UNL     1       2.691   3.123  19.815  0.00  0.00    +0.000 A 
ATOM      6  C   UNL     1       3.817   3.119  18.978  0.00  0.00    +0.000 A 
ENDROOT
BRANCH   5   7
ATOM      7  C   UNL     1       2.869   2.622  21.209  0.00  0.00    +0.000 C 
ATOM      8  N   UNL     1       1.870   2.831  22.117  0.00  0.00    +0.000 N 
ATOM      9  O   UNL     1       3.890   2.037  21.552  0.00  0.00    +0.000 OA
ATOM     10  H   UNL     1       1.033   3.363  21.950  0.00  0.00    +0.000 HD
ATOM     11  H   UNL     1       2.048   2.518  23.063  0.00  0.00    +0.000 HD
ENDBRANCH   5   7
BRANCH   1  13
ATOM     12  C   UNL     1       5.259   4.759  16.080  0.00  0.00    +0.000 C 
ATOM     13  C   UNL     1       4.914   3.674  16.789  0.00  0.00    +0.000 C 
BRANCH  12  14
ATOM     14  C   UNL     1       6.496   4.727  15.277  0.00  0.00    +0.000 C 
ATOM     15  O   UNL     1       7.394   5.552  15.339  0.00  0.00    +0.000 OA
BRANCH  14  16
ATOM     16  O   UNL     1       6.402   3.691  14.410  0.00  0.00    +0.000 OA
BRANCH  16  18
ATOM     17  C   UNL     1       5.670   3.194  12.190  0.00  0.00    +0.000 C 
ATOM     18  C   UNL     1       6.605   4.039  13.034  0.00  0.00    +0.000 C 
ENDBRANCH  16  18
ENDBRANCH  14  16
ENDBRANCH  12  14
ENDBRANCH   1  13
TORSDOF 5
ENDMDL
MODEL 8
REMARK VINA RESULT:      -6.6      2.214      2.596
REMARK  Name = 
REMARK  6 active torsions:
REMARK  status: ('A' for Active; 'I' for Inactive)
REMARK    1  A    between atoms: C_1  and  C_2
REMARK    2  A    between atoms: C_2  and  O_3
REMARK    3  A    between atoms: O_3  and  C_4
REMARK    4  A    between atoms: C_4  and  C_6
REMARK    5  A    between atoms: C_7  and  C_8
REMARK    6  A    between atoms: C_12  and  C_13
REMARK                            x       y       z     vdW  Elec       q    Type
REMARK                         _______ _______ _______ _____ _____    ______ ____
ROOT
ATOM      1  C   UNL     1       4.484   4.541  17.478  0.00  0.00    +0.000 A 
ATOM      2  C   UNL     1       4.765   3.869  16.283  0.00  0.00    +0.000 A 
ATOM      3  C   UNL     1       5.930   4.150  15.568  0.00  0.00    +0.000 A 
ATOM      4  C   UNL     1       6.834   5.103  16.042  0.00  0.00    +0.000 A 
ATOM      5  C   UNL     1       6.571   5.784  17.237  0.00  0.00    +0.000 A 
ATOM      6  C   UNL     1       5.394   5.498  17.945  0.00  0.00    +0.000 A 
ENDROOT
BRANCH   5   7
ATOM      7  C   UNL     1       7.490   6.805  17.817  0.00  0.00    +0.000 C 
ATOM      8  N   UNL     1       7.634   8.004  17.175  0.00  0.00    +0.000 N 
ATOM      9  O   UNL     1       8.119   6.589  18.847  0.00  0.00    +0.000 OA
ATOM     10  H   UNL     1       7.221   8.243  16.290  0.00  0.00    +0.000 HD
ATOM     11  H   UNL     1       8.302   8.651  17.574  0.00  0.00    +0.000 HD
ENDBRANCH   5   7
BRANCH   1  13
ATOM     12  C   UNL     1       2.340   3.322  17.792  0.00  0.00    +0.000 C 
ATOM     13  C   UNL     1       3.289   4.160  18.235  0.00  0.00    +0.000 C 
BRANCH  12  14
ATOM     14  C   UNL     1       1.210   2.986  18.678  0.00  0.00    +0.000 C 
ATOM     15  O   UNL     1       0.331   2.180  18.419  0.00  0.00    +0.000 OA
BRANCH  14  16
ATOM     16  O   UNL     1       1.277   3.795  19.762  0.00  0.00    +0.000 OA
BRANCH  16  18
ATOM     17  C   UNL     1       2.483   2.714  21.520  0.00  0.00    +0.000 C 
ATOM     18  C   UNL     1       1.111   3.127  21.021  0.00  0.00    +0.000 C 
ENDBRANCH  16  18
ENDBRANCH  14  16
ENDBRANCH  12  14
ENDBRANCH   1  13
TORSDOF 5
ENDMDL
MODEL 9
REMARK VINA RESULT:      -6.5      2.336      6.211
REMARK  Name = 
REMARK  6 active torsions:
REMARK  status: ('A' for Active; 'I' for Inactive)
REMARK    1  A    between atoms: C_1  and  C_2
REMARK    2  A    between atoms: C_2  and  O_3
REMARK    3  A    between atoms: O_3  and  C_4
REMARK    4  A    between atoms: C_4  and  C_6
REMARK    5  A    between atoms: C_7  and  C_8
REMARK    6  A    between atoms: C_12  and  C_13
REMARK                            x       y       z     vdW  Elec       q    Type
REMARK                         _______ _______ _______ _____ _____    ______ ____
ROOT
ATOM      1  C   UNL     1       3.399   5.635  18.590  0.00  0.00    +0.000 A 
ATOM      2  C   UNL     1       2.862   6.297  19.699  0.00  0.00    +0.000 A 
ATOM      3  C   UNL     1       1.845   5.708  20.452  0.00  0.00    +0.000 A 
ATOM      4  C   UNL     1       1.354   4.447  20.108  0.00  0.00    +0.000 A 
ATOM      5  C   UNL     1       1.882   3.768  19.003  0.00  0.00    +0.000 A 
ATOM      6  C   UNL     1       2.901   4.371  18.250  0.00  0.00    +0.000 A 
ENDROOT
BRANCH   5   7
ATOM      7  C   UNL     1       1.424   2.414  18.579  0.00  0.00    +0.000 C 
ATOM      8  N   UNL     1       2.360   1.474  18.251  0.00  0.00    +0.000 N 
ATOM      9  O   UNL     1       0.232   2.133  18.513  0.00  0.00    +0.000 OA
ATOM     10  H   UNL     1       3.351   1.632  18.202  0.00  0.00    +0.000 HD
ATOM     11  H   UNL     1       2.008   0.583  17.923  0.00  0.00    +0.000 HD
ENDBRANCH   5   7
BRANCH   1  13
ATOM     12  C   UNL     1       5.794   5.847  17.957  0.00  0.00    +0.000 C 
ATOM     13  C   UNL     1       4.519   6.254  17.876  0.00  0.00    +0.000 C 
BRANCH  12  14
ATOM     14  C   UNL     1       6.818   6.533  17.146  0.00  0.00    +0.000 C 
ATOM     15  O   UNL     1       6.949   7.744  17.059  0.00  0.00    +0.000 OA
BRANCH  14  16
ATOM     16  O   UNL     1       7.504   5.589  16.457  0.00  0.00    +0.000 OA
BRANCH  16  18
ATOM     17  C   UNL     1       6.513   4.262  14.734  0.00  0.00    +0.000 C 
ATOM     18  C   UNL     1       6.780   4.373  16.223  0.00  0.00    +0.000 C 
ENDBRANCH  16  18
ENDBRANCH  14  16
ENDBRANCH  12  14
ENDBRANCH   1  13
TORSDOF 5
ENDMDL
