MODEL 1
REMARK VINA RESULT:      -8.0      0.000      0.000
REMARK  Name = 
REMARK  10 active torsions:
REMARK  status: ('A' for Active; 'I' for Inactive)
REMARK    1  A    between atoms: C_1  and  O_2
REMARK    2  A    between atoms: O_2  and  C_3
REMARK    3  A    between atoms: C_5  and  C_6
REMARK    4  A    between atoms: C_8  and  C_9
REMARK    5  A    between atoms: N_11  and  C_12
REMARK    6  A    between atoms: C_17  and  N_18
REMARK    7  A    between atoms: C_32  and  O_33
REMARK    8  A    between atoms: O_33  and  C_34
REMARK    9  A    between atoms: C_35  and  O_36
REMARK   10  A    between atoms: O_36  and  C_37
REMARK                            x       y       z     vdW  Elec       q    Type
REMARK                         _______ _______ _______ _____ _____    ______ ____
ROOT
ATOM      1  C   UNL     1       1.113   9.020  19.864  0.00  0.00    +0.000 A 
ATOM      2  C   UNL     1       0.643   9.917  18.932  0.00  0.00    +0.000 A 
ATOM      3  C   UNL     1       0.105  11.107  19.406  0.00  0.00    +0.000 A 
ATOM      4  C   UNL     1      -0.453  11.155  20.686  0.00  0.00    +0.000 A 
ATOM      5  C   UNL     1      -1.425  12.108  21.067  0.00  0.00    +0.000 A 
ATOM      6  C   UNL     1      -1.965  12.091  22.343  0.00  0.00    +0.000 A 
ATOM      7  C   UNL     1      -1.496  11.141  23.256  0.00  0.00    +0.000 A 
ATOM      8  C   UNL     1      -0.528  10.214  22.872  0.00  0.00    +0.000 A 
ATOM      9  C   UNL     1      -0.032  10.161  21.571  0.00  0.00    +0.000 A 
ATOM     10  N   UNL     1       0.818   9.179  21.184  0.00  0.00    +0.000 NA
ENDROOT
BRANCH   1  13
ATOM     11  C   UNL     1       3.537   6.688  17.959  0.00  0.00    +0.000 A 
ATOM     12  C   UNL     1       2.799   7.836  18.338  0.00  0.00    +0.000 A 
ATOM     13  C   UNL     1       1.968   7.867  19.483  0.00  0.00    +0.000 A 
ATOM     14  C   UNL     1       1.954   6.718  20.265  0.00  0.00    +0.000 A 
ATOM     15  C   UNL     1       2.658   5.564  19.903  0.00  0.00    +0.000 A 
ATOM     16  C   UNL     1       3.445   5.517  18.744  0.00  0.00    +0.000 A 
BRANCH  11  18
ATOM     17  C   UNL     1       5.705   6.889  16.958  0.00  0.00    +0.000 C 
ATOM     18  O   UNL     1       4.312   6.657  16.824  0.00  0.00    +0.000 OA
ENDBRANCH  11  18
BRANCH  15  19
ATOM     19  O   UNL     1       2.374   4.544  20.784  0.00  0.00    +0.000 OA
ATOM     20  C   UNL     1       1.199   3.780  20.580  0.00  0.00    +0.000 C 
ENDBRANCH  15  19
BRANCH  16  21
ATOM     21  O   UNL     1       4.102   4.339  18.539  0.00  0.00    +0.000 OA
ATOM     22  C   UNL     1       3.646   3.315  17.674  0.00  0.00    +0.000 C 
ENDBRANCH  16  21
ENDBRANCH   1  13
BRANCH   3  23
ATOM     23  C   UNL     1       0.688  12.375  18.851  0.00  0.00    +0.000 C 
ATOM     24  O   UNL     1       0.107  12.986  17.962  0.00  0.00    +0.000 OA
ATOM     25  N   UNL     1       1.833  12.820  19.500  0.00  0.00    +0.000 N 
ATOM     26  H   UNL     1       2.527  12.086  19.543  0.00  0.00    +0.000 HD
BRANCH  25  27
ATOM     27  C   UNL     1       2.365  14.082  19.156  0.00  0.00    +0.000 A 
ATOM     28  C   UNL     1       3.416  14.040  18.223  0.00  0.00    +0.000 A 
ATOM     29  C   UNL     1       3.978  15.212  17.745  0.00  0.00    +0.000 A 
ATOM     30  C   UNL     1       3.522  16.426  18.233  0.00  0.00    +0.000 A 
ATOM     31  C   UNL     1       2.491  16.467  19.182  0.00  0.00    +0.000 A 
ATOM     32  C   UNL     1       1.854  15.305  19.674  0.00  0.00    +0.000 A 
BRANCH  32  33
ATOM     33  N   UNL     1       0.799  15.420  20.569  0.00  0.00    +0.000 N 
ATOM     34  C   UNL     1      -0.599  15.634  20.166  0.00  0.00    +0.000 C 
ATOM     35  C   UNL     1      -1.261  16.618  21.149  0.00  0.00    +0.000 C 
ATOM     36  O   UNL     1      -1.205  16.114  22.494  0.00  0.00    +0.000 OA
ATOM     37  C   UNL     1       0.162  15.938  22.890  0.00  0.00    +0.000 C 
ATOM     38  C   UNL     1       0.903  14.955  21.969  0.00  0.00    +0.000 C 
ENDBRANCH  32  33
ENDBRANCH  25  27
ENDBRANCH   3  23
TORSDOF 7
ENDMDL
MODEL 2
REMARK VINA RESULT:      -7.7      1.313      2.477
REMARK  Name = 
REMARK  10 active torsions:
REMARK  status: ('A' for Active; 'I' for Inactive)
REMARK    1  A    between atoms: C_1  and  O_2
REMARK    2  A    between atoms: O_2  and  C_3
REMARK    3  A    between atoms: C_5  and  C_6
REMARK    4  A    between atoms: C_8  and  C_9
REMARK    5  A    between atoms: N_11  and  C_12
REMARK    6  A    between atoms: C_17  and  N_18
REMARK    7  A    between atoms: C_32  and  O_33
REMARK    8  A    between atoms: O_33  and  C_34
REMARK    9  A    between atoms: C_35  and  O_36
REMARK   10  A    between atoms: O_36  and  C_37
REMARK                            x       y       z     vdW  Elec       q    Type
REMARK                         _______ _______ _______ _____ _____    ______ ____
ROOT
ATOM      1  C   UNL     1       1.823   8.253  19.043  0.00  0.00    +0.000 A 
ATOM      2  C   UNL     1       1.092   9.208  18.373  0.00  0.00    +0.000 A 
ATOM      3  C   UNL     1       0.593  10.269  19.119  0.00  0.00    +0.000 A 
ATOM      4  C   UNL     1       0.337  10.098  20.482  0.00  0.00    +0.000 A 
ATOM      5  C   UNL     1      -0.588  10.893  21.198  0.00  0.00    +0.000 A 
ATOM      6  C   UNL     1      -0.823  10.661  22.543  0.00  0.00    +0.000 A 
ATOM      7  C   UNL     1      -0.095   9.656  23.186  0.00  0.00    +0.000 A 
ATOM      8  C   UNL     1       0.825   8.887  22.473  0.00  0.00    +0.000 A 
ATOM      9  C   UNL     1       1.016   9.049  21.102  0.00  0.00    +0.000 A 
ATOM     10  N   UNL     1       1.823   8.214  20.404  0.00  0.00    +0.000 NA
ENDROOT
BRANCH   1  13
ATOM     11  C   UNL     1       3.176   4.932  17.600  0.00  0.00    +0.000 A 
ATOM     12  C   UNL     1       2.324   5.876  18.223  0.00  0.00    +0.000 A 
ATOM     13  C   UNL     1       2.648   7.250  18.323  0.00  0.00    +0.000 A 
ATOM     14  C   UNL     1       3.836   7.648  17.721  0.00  0.00    +0.000 A 
ATOM     15  C   UNL     1       4.706   6.732  17.117  0.00  0.00    +0.000 A 
ATOM     16  C   UNL     1       4.407   5.364  17.058  0.00  0.00    +0.000 A 
BRANCH  11  18
ATOM     17  C   UNL     1       1.867   3.098  18.415  0.00  0.00    +0.000 C 
ATOM     18  O   UNL     1       2.867   3.594  17.540  0.00  0.00    +0.000 OA
ENDBRANCH  11  18
BRANCH  15  19
ATOM     19  O   UNL     1       5.856   7.374  16.712  0.00  0.00    +0.000 OA
ATOM     20  C   UNL     1       7.027   7.221  17.492  0.00  0.00    +0.000 C 
ENDBRANCH  15  19
BRANCH  16  21
ATOM     21  O   UNL     1       5.329   4.599  16.406  0.00  0.00    +0.000 OA
ATOM     22  C   UNL     1       5.380   4.441  15.000  0.00  0.00    +0.000 C 
ENDBRANCH  16  21
ENDBRANCH   1  13
BRANCH   3  23
ATOM     23  C   UNL     1       0.945  11.649  18.642  0.00  0.00    +0.000 C 
ATOM     24  O   UNL     1       0.300  12.176  17.744  0.00  0.00    +0.000 OA
ATOM     25  N   UNL     1       1.948  12.277  19.371  0.00  0.00    +0.000 N 
ATOM     26  H   UNL     1       2.768  11.689  19.429  0.00  0.00    +0.000 HD
BRANCH  25  27
ATOM     27  C   UNL     1       2.239  13.632  19.101  0.00  0.00    +0.000 A 
ATOM     28  C   UNL     1       3.306  13.834  18.208  0.00  0.00    +0.000 A 
ATOM     29  C   UNL     1       3.649  15.113  17.802  0.00  0.00    +0.000 A 
ATOM     30  C   UNL     1       2.956  16.194  18.324  0.00  0.00    +0.000 A 
ATOM     31  C   UNL     1       1.910  15.993  19.234  0.00  0.00    +0.000 A 
ATOM     32  C   UNL     1       1.491  14.710  19.651  0.00  0.00    +0.000 A 
BRANCH  32  33
ATOM     33  N   UNL     1       0.408  14.580  20.510  0.00  0.00    +0.000 N 
ATOM     34  C   UNL     1      -0.980  14.401  20.058  0.00  0.00    +0.000 C 
ATOM     35  C   UNL     1      -1.916  15.216  20.971  0.00  0.00    +0.000 C 
ATOM     36  O   UNL     1      -1.784  14.800  22.341  0.00  0.00    +0.000 OA
ATOM     37  C   UNL     1      -0.436  15.007  22.784  0.00  0.00    +0.000 C 
ATOM     38  C   UNL     1       0.573  14.216  21.934  0.00  0.00    +0.000 C 
ENDBRANCH  32  33
ENDBRANCH  25  27
ENDBRANCH   3  23
TORSDOF 7
ENDMDL
MODEL 3
REMARK VINA RESULT:      -7.6      1.302      1.571
REMARK  Name = 
REMARK  10 active torsions:
REMARK  status: ('A' for Active; 'I' for Inactive)
REMARK    1  A    between atoms: C_1  and  O_2
REMARK    2  A    between atoms: O_2  and  C_3
REMARK    3  A    between atoms: C_5  and  C_6
REMARK    4  A    between atoms: C_8  and  C_9
REMARK    5  A    between atoms: N_11  and  C_12
REMARK    6  A    between atoms: C_17  and  N_18
REMARK    7  A    between atoms: C_32  and  O_33
REMARK    8  A    between atoms: O_33  and  C_34
REMARK    9  A    between atoms: C_35  and  O_36
REMARK   10  A    between atoms: O_36  and  C_37
REMARK                            x       y       z     vdW  Elec       q    Type
REMARK                         _______ _______ _______ _____ _____    ______ ____
ROOT
ATOM      1  C   UNL     1       1.851   8.306  19.176  0.00  0.00    +0.000 A 
ATOM      2  C   UNL     1       1.103   9.222  18.472  0.00  0.00    +0.000 A 
ATOM      3  C   UNL     1       0.545  10.275  19.186  0.00  0.00    +0.000 A 
ATOM      4  C   UNL     1       0.259  10.116  20.544  0.00  0.00    +0.000 A 
ATOM      5  C   UNL     1      -0.715  10.886  21.222  0.00  0.00    +0.000 A 
ATOM      6  C   UNL     1      -0.977  10.667  22.564  0.00  0.00    +0.000 A 
ATOM      7  C   UNL     1      -0.229   9.700  23.243  0.00  0.00    +0.000 A 
ATOM      8  C   UNL     1       0.737   8.955  22.568  0.00  0.00    +0.000 A 
ATOM      9  C   UNL     1       0.959   9.103  21.200  0.00  0.00    +0.000 A 
ATOM     10  N   UNL     1       1.816   8.288  20.538  0.00  0.00    +0.000 NA
ENDROOT
BRANCH   1  13
ATOM     11  C   UNL     1       4.740   6.701  17.172  0.00  0.00    +0.000 A 
ATOM     12  C   UNL     1       3.966   7.649  17.885  0.00  0.00    +0.000 A 
ATOM     13  C   UNL     1       2.732   7.324  18.496  0.00  0.00    +0.000 A 
ATOM     14  C   UNL     1       2.335   5.994  18.413  0.00  0.00    +0.000 A 
ATOM     15  C   UNL     1       3.072   5.042  17.697  0.00  0.00    +0.000 A 
ATOM     16  C   UNL     1       4.271   5.375  17.053  0.00  0.00    +0.000 A 
BRANCH  11  18
ATOM     17  C   UNL     1       7.115   6.995  17.315  0.00  0.00    +0.000 C 
ATOM     18  O   UNL     1       5.921   7.038  16.552  0.00  0.00    +0.000 OA
ENDBRANCH  11  18
BRANCH  15  19
ATOM     19  O   UNL     1       2.395   3.842  17.676  0.00  0.00    +0.000 OA
ATOM     20  C   UNL     1       2.724   2.861  18.642  0.00  0.00    +0.000 C 
ENDBRANCH  15  19
BRANCH  16  21
ATOM     21  O   UNL     1       4.898   4.337  16.427  0.00  0.00    +0.000 OA
ATOM     22  C   UNL     1       5.341   4.370  15.083  0.00  0.00    +0.000 C 
ENDBRANCH  16  21
ENDBRANCH   1  13
BRANCH   3  23
ATOM     23  C   UNL     1       0.857  11.659  18.696  0.00  0.00    +0.000 C 
ATOM     24  O   UNL     1       0.176  12.174  17.817  0.00  0.00    +0.000 OA
ATOM     25  N   UNL     1       1.872  12.307  19.392  0.00  0.00    +0.000 N 
ATOM     26  H   UNL     1       2.703  11.733  19.424  0.00  0.00    +0.000 HD
BRANCH  25  27
ATOM     27  C   UNL     1       2.131  13.666  19.110  0.00  0.00    +0.000 A 
ATOM     28  C   UNL     1       3.178  13.885  18.196  0.00  0.00    +0.000 A 
ATOM     29  C   UNL     1       3.488  15.168  17.779  0.00  0.00    +0.000 A 
ATOM     30  C   UNL     1       2.783  16.237  18.308  0.00  0.00    +0.000 A 
ATOM     31  C   UNL     1       1.757  16.021  19.238  0.00  0.00    +0.000 A 
ATOM     32  C   UNL     1       1.372  14.731  19.669  0.00  0.00    +0.000 A 
BRANCH  32  33
ATOM     33  N   UNL     1       0.308  14.584  20.548  0.00  0.00    +0.000 N 
ATOM     34  C   UNL     1      -1.089  14.405  20.123  0.00  0.00    +0.000 C 
ATOM     35  C   UNL     1      -2.009  15.202  21.067  0.00  0.00    +0.000 C 
ATOM     36  O   UNL     1      -1.846  14.768  22.428  0.00  0.00    +0.000 OA
ATOM     37  C   UNL     1      -0.490  14.976  22.845  0.00  0.00    +0.000 C 
ATOM     38  C   UNL     1       0.505  14.202  21.963  0.00  0.00    +0.000 C 
ENDBRANCH  32  33
ENDBRANCH  25  27
ENDBRANCH   3  23
TORSDOF 7
ENDMDL
MODEL 4
REMARK VINA RESULT:      -7.6      0.480      2.115
REMARK  Name = 
REMARK  10 active torsions:
REMARK  status: ('A' for Active; 'I' for Inactive)
REMARK    1  A    between atoms: C_1  and  O_2
REMARK    2  A    between atoms: O_2  and  C_3
REMARK    3  A    between atoms: C_5  and  C_6
REMARK    4  A    between atoms: C_8  and  C_9
REMARK    5  A    between atoms: N_11  and  C_12
REMARK    6  A    between atoms: C_17  and  N_18
REMARK    7  A    between atoms: C_32  and  O_33
REMARK    8  A    between atoms: O_33  and  C_34
REMARK    9  A    between atoms: C_35  and  O_36
REMARK   10  A    between atoms: O_36  and  C_37
REMARK                            x       y       z     vdW  Elec       q    Type
REMARK                         _______ _______ _______ _____ _____    ______ ____
ROOT
ATOM      1  C   UNL     1       1.287   8.707  19.784  0.00  0.00    +0.000 A 
ATOM      2  C   UNL     1       0.820   9.631  18.877  0.00  0.00    +0.000 A 
ATOM      3  C   UNL     1       0.322  10.826  19.382  0.00  0.00    +0.000 A 
ATOM      4  C   UNL     1      -0.208  10.865  20.674  0.00  0.00    +0.000 A 
ATOM      5  C   UNL     1      -1.148  11.835  21.092  0.00  0.00    +0.000 A 
ATOM      6  C   UNL     1      -1.662  11.810  22.377  0.00  0.00    +0.000 A 
ATOM      7  C   UNL     1      -1.199  10.833  23.265  0.00  0.00    +0.000 A 
ATOM      8  C   UNL     1      -0.263   9.889  22.845  0.00  0.00    +0.000 A 
ATOM      9  C   UNL     1       0.206   9.846  21.533  0.00  0.00    +0.000 A 
ATOM     10  N   UNL     1       1.022   8.850  21.113  0.00  0.00    +0.000 NA
ENDROOT
BRANCH   1  13
ATOM     11  C   UNL     1       2.981   5.234  19.664  0.00  0.00    +0.000 A 
ATOM     12  C   UNL     1       2.126   6.298  20.043  0.00  0.00    +0.000 A 
ATOM     13  C   UNL     1       2.104   7.540  19.366  0.00  0.00    +0.000 A 
ATOM     14  C   UNL     1       2.932   7.650  18.255  0.00  0.00    +0.000 A 
ATOM     15  C   UNL     1       3.801   6.621  17.871  0.00  0.00    +0.000 A 
ATOM     16  C   UNL     1       3.857   5.408  18.570  0.00  0.00    +0.000 A 
BRANCH  11  18
ATOM     17  C   UNL     1       2.122   3.869  21.437  0.00  0.00    +0.000 C 
ATOM     18  O   UNL     1       3.020   4.045  20.353  0.00  0.00    +0.000 OA
ENDBRANCH  11  18
BRANCH  15  19
ATOM     19  O   UNL     1       4.588   7.038  16.820  0.00  0.00    +0.000 OA
ATOM     20  C   UNL     1       5.975   7.216  17.041  0.00  0.00    +0.000 C 
ENDBRANCH  15  19
BRANCH  16  21
ATOM     21  O   UNL     1       4.723   4.486  18.059  0.00  0.00    +0.000 OA
ATOM     22  C   UNL     1       4.414   3.616  16.986  0.00  0.00    +0.000 C 
ENDBRANCH  16  21
ENDBRANCH   1  13
BRANCH   3  23
ATOM     23  C   UNL     1       0.925  12.088  18.836  0.00  0.00    +0.000 C 
ATOM     24  O   UNL     1       0.434  12.635  17.856  0.00  0.00    +0.000 OA
ATOM     25  N   UNL     1       1.970  12.606  19.592  0.00  0.00    +0.000 N 
ATOM     26  H   UNL     1       2.677  11.902  19.753  0.00  0.00    +0.000 HD
BRANCH  25  27
ATOM     27  C   UNL     1       2.497  13.871  19.249  0.00  0.00    +0.000 A 
ATOM     28  C   UNL     1       3.600  13.828  18.377  0.00  0.00    +0.000 A 
ATOM     29  C   UNL     1       4.167  15.000  17.905  0.00  0.00    +0.000 A 
ATOM     30  C   UNL     1       3.661  16.215  18.339  0.00  0.00    +0.000 A 
ATOM     31  C   UNL     1       2.579  16.257  19.228  0.00  0.00    +0.000 A 
ATOM     32  C   UNL     1       1.936  15.094  19.710  0.00  0.00    +0.000 A 
BRANCH  32  33
ATOM     33  N   UNL     1       0.831  15.208  20.542  0.00  0.00    +0.000 N 
ATOM     34  C   UNL     1      -0.554  15.307  20.057  0.00  0.00    +0.000 C 
ATOM     35  C   UNL     1      -1.323  16.317  20.932  0.00  0.00    +0.000 C 
ATOM     36  O   UNL     1      -1.309  15.914  22.312  0.00  0.00    +0.000 OA
ATOM     37  C   UNL     1       0.043  15.850  22.785  0.00  0.00    +0.000 C 
ATOM     38  C   UNL     1       0.887  14.851  21.976  0.00  0.00    +0.000 C 
ENDBRANCH  32  33
ENDBRANCH  25  27
ENDBRANCH   3  23
TORSDOF 7
ENDMDL
MODEL 5
REMARK VINA RESULT:      -7.5      1.278      1.623
REMARK  Name = 
REMARK  10 active torsions:
REMARK  status: ('A' for Active; 'I' for Inactive)
REMARK    1  A    between atoms: C_1  and  O_2
REMARK    2  A    between atoms: O_2  and  C_3
REMARK    3  A    between atoms: C_5  and  C_6
REMARK    4  A    between atoms: C_8  and  C_9
REMARK    5  A    between atoms: N_11  and  C_12
REMARK    6  A    between atoms: C_17  and  N_18
REMARK    7  A    between atoms: C_32  and  O_33
REMARK    8  A    between atoms: O_33  and  C_34
REMARK    9  A    between atoms: C_35  and  O_36
REMARK   10  A    between atoms: O_36  and  C_37
REMARK                            x       y       z     vdW  Elec       q    Type
REMARK                         _______ _______ _______ _____ _____    ______ ____
ROOT
ATOM      1  C   UNL     1       1.158   9.283  20.232  0.00  0.00    +0.000 A 
ATOM      2  C   UNL     1       1.153  10.434  19.476  0.00  0.00    +0.000 A 
ATOM      3  C   UNL     1       0.742  11.605  20.100  0.00  0.00    +0.000 A 
ATOM      4  C   UNL     1      -0.138  11.541  21.183  0.00  0.00    +0.000 A 
ATOM      5  C   UNL     1      -0.978  12.616  21.558  0.00  0.00    +0.000 A 
ATOM      6  C   UNL     1      -1.852  12.487  22.625  0.00  0.00    +0.000 A 
ATOM      7  C   UNL     1      -1.854  11.290  23.348  0.00  0.00    +0.000 A 
ATOM      8  C   UNL     1      -1.013  10.242  22.977  0.00  0.00    +0.000 A 
ATOM      9  C   UNL     1      -0.186  10.321  21.857  0.00  0.00    +0.000 A 
ATOM     10  N   UNL     1       0.534   9.250  21.442  0.00  0.00    +0.000 NA
ENDROOT
BRANCH   1  13
ATOM     11  C   UNL     1       3.195   6.741  18.150  0.00  0.00    +0.000 A 
ATOM     12  C   UNL     1       2.619   7.957  18.595  0.00  0.00    +0.000 A 
ATOM     13  C   UNL     1       1.848   8.049  19.778  0.00  0.00    +0.000 A 
ATOM     14  C   UNL     1       1.728   6.885  20.528  0.00  0.00    +0.000 A 
ATOM     15  C   UNL     1       2.270   5.667  20.101  0.00  0.00    +0.000 A 
ATOM     16  C   UNL     1       2.995   5.565  18.905  0.00  0.00    +0.000 A 
BRANCH  11  18
ATOM     17  C   UNL     1       5.314   6.857  17.037  0.00  0.00    +0.000 C 
ATOM     18  O   UNL     1       3.911   6.656  16.980  0.00  0.00    +0.000 OA
ENDBRANCH  11  18
BRANCH  15  19
ATOM     19  O   UNL     1       1.902   4.659  20.965  0.00  0.00    +0.000 OA
ATOM     20  C   UNL     1       0.957   3.701  20.525  0.00  0.00    +0.000 C 
ENDBRANCH  15  19
BRANCH  16  21
ATOM     21  O   UNL     1       3.494   4.324  18.636  0.00  0.00    +0.000 OA
ATOM     22  C   UNL     1       4.736   3.846  19.119  0.00  0.00    +0.000 C 
ENDBRANCH  16  21
ENDBRANCH   1  13
BRANCH   3  23
ATOM     23  C   UNL     1       1.690  12.767  20.038  0.00  0.00    +0.000 C 
ATOM     24  O   UNL     1       2.419  13.023  20.990  0.00  0.00    +0.000 OA
ATOM     25  N   UNL     1       1.737  13.414  18.809  0.00  0.00    +0.000 N 
ATOM     26  H   UNL     1       0.809  13.682  18.512  0.00  0.00    +0.000 HD
BRANCH  25  27
ATOM     27  C   UNL     1       2.710  14.417  18.603  0.00  0.00    +0.000 A 
ATOM     28  C   UNL     1       3.979  13.935  18.237  0.00  0.00    +0.000 A 
ATOM     29  C   UNL     1       5.004  14.816  17.936  0.00  0.00    +0.000 A 
ATOM     30  C   UNL     1       4.775  16.178  18.044  0.00  0.00    +0.000 A 
ATOM     31  C   UNL     1       3.517  16.658  18.434  0.00  0.00    +0.000 A 
ATOM     32  C   UNL     1       2.424  15.806  18.714  0.00  0.00    +0.000 A 
BRANCH  32  33
ATOM     33  N   UNL     1       1.188  16.349  19.037  0.00  0.00    +0.000 N 
ATOM     34  C   UNL     1       0.502  16.121  20.317  0.00  0.00    +0.000 C 
ATOM     35  C   UNL     1      -1.008  15.955  20.057  0.00  0.00    +0.000 C 
ATOM     36  O   UNL     1      -1.546  17.119  19.407  0.00  0.00    +0.000 OA
ATOM     37  C   UNL     1      -0.893  17.317  18.145  0.00  0.00    +0.000 C 
ATOM     38  C   UNL     1       0.624  17.507  18.310  0.00  0.00    +0.000 C 
ENDBRANCH  32  33
ENDBRANCH  25  27
ENDBRANCH   3  23
TORSDOF 7
ENDMDL
MODEL 6
REMARK VINA RESULT:      -7.4      0.981      1.327
REMARK  Name = 
REMARK  10 active torsions:
REMARK  status: ('A' for Active; 'I' for Inactive)
REMARK    1  A    between atoms: C_1  and  O_2
REMARK    2  A    between atoms: O_2  and  C_3
REMARK    3  A    between atoms: C_5  and  C_6
REMARK    4  A    between atoms: C_8  and  C_9
REMARK    5  A    between atoms: N_11  and  C_12
REMARK    6  A    between atoms: C_17  and  N_18
REMARK    7  A    between atoms: C_32  and  O_33
REMARK    8  A    between atoms: O_33  and  C_34
REMARK    9  A    between atoms: C_35  and  O_36
REMARK   10  A    between atoms: O_36  and  C_37
REMARK                            x       y       z     vdW  Elec       q    Type
REMARK                         _______ _______ _______ _____ _____    ______ ____
ROOT
ATOM      1  C   UNL     1       1.631   8.087  19.914  0.00  0.00    +0.000 A 
ATOM      2  C   UNL     1       1.313   9.046  18.979  0.00  0.00    +0.000 A 
ATOM      3  C   UNL     1       0.889  10.282  19.452  0.00  0.00    +0.000 A 
ATOM      4  C   UNL     1       0.274  10.373  20.703  0.00  0.00    +0.000 A 
ATOM      5  C   UNL     1      -0.603  11.424  21.056  0.00  0.00    +0.000 A 
ATOM      6  C   UNL     1      -1.206  11.448  22.303  0.00  0.00    +0.000 A 
ATOM      7  C   UNL     1      -0.896  10.437  23.217  0.00  0.00    +0.000 A 
ATOM      8  C   UNL     1      -0.020   9.412  22.862  0.00  0.00    +0.000 A 
ATOM      9  C   UNL     1       0.535   9.324  21.586  0.00  0.00    +0.000 A 
ATOM     10  N   UNL     1       1.287   8.258  21.221  0.00  0.00    +0.000 NA
ENDROOT
BRANCH   1  13
ATOM     11  C   UNL     1       3.761   5.479  18.017  0.00  0.00    +0.000 A 
ATOM     12  C   UNL     1       3.138   6.700  18.373  0.00  0.00    +0.000 A 
ATOM     13  C   UNL     1       2.369   6.851  19.551  0.00  0.00    +0.000 A 
ATOM     14  C   UNL     1       2.299   5.743  20.387  0.00  0.00    +0.000 A 
ATOM     15  C   UNL     1       2.888   4.519  20.050  0.00  0.00    +0.000 A 
ATOM     16  C   UNL     1       3.611   4.355  18.860  0.00  0.00    +0.000 A 
BRANCH  11  18
ATOM     17  C   UNL     1       5.030   6.495  16.256  0.00  0.00    +0.000 C 
ATOM     18  O   UNL     1       4.476   5.333  16.852  0.00  0.00    +0.000 OA
ENDBRANCH  11  18
BRANCH  15  19
ATOM     19  O   UNL     1       2.564   3.566  20.990  0.00  0.00    +0.000 OA
ATOM     20  C   UNL     1       1.277   2.978  20.943  0.00  0.00    +0.000 C 
ENDBRANCH  15  19
BRANCH  16  21
ATOM     21  O   UNL     1       4.160   3.119  18.683  0.00  0.00    +0.000 OA
ATOM     22  C   UNL     1       3.522   2.059  17.995  0.00  0.00    +0.000 C 
ENDBRANCH  16  21
ENDBRANCH   1  13
BRANCH   3  23
ATOM     23  C   UNL     1       1.639  11.484  18.954  0.00  0.00    +0.000 C 
ATOM     24  O   UNL     1       2.136  11.483  17.834  0.00  0.00    +0.000 OA
ATOM     25  N   UNL     1       1.606  12.582  19.805  0.00  0.00    +0.000 N 
ATOM     26  H   UNL     1       1.907  12.322  20.734  0.00  0.00    +0.000 HD
BRANCH  25  27
ATOM     27  C   UNL     1       2.146  13.808  19.357  0.00  0.00    +0.000 A 
ATOM     28  C   UNL     1       3.252  13.681  18.498  0.00  0.00    +0.000 A 
ATOM     29  C   UNL     1       3.832  14.803  17.929  0.00  0.00    +0.000 A 
ATOM     30  C   UNL     1       3.336  16.055  18.255  0.00  0.00    +0.000 A 
ATOM     31  C   UNL     1       2.251  16.183  19.131  0.00  0.00    +0.000 A 
ATOM     32  C   UNL     1       1.595  15.072  19.708  0.00  0.00    +0.000 A 
BRANCH  32  33
ATOM     33  N   UNL     1       0.488  15.266  20.522  0.00  0.00    +0.000 N 
ATOM     34  C   UNL     1       0.569  15.631  21.945  0.00  0.00    +0.000 C 
ATOM     35  C   UNL     1      -0.520  14.868  22.723  0.00  0.00    +0.000 C 
ATOM     36  O   UNL     1      -1.827  15.174  22.208  0.00  0.00    +0.000 OA
ATOM     37  C   UNL     1      -1.908  14.786  20.829  0.00  0.00    +0.000 C 
ATOM     38  C   UNL     1      -0.861  15.513  19.968  0.00  0.00    +0.000 C 
ENDBRANCH  32  33
ENDBRANCH  25  27
ENDBRANCH   3  23
TORSDOF 7
ENDMDL
MODEL 7
REMARK VINA RESULT:      -7.4      1.532      2.835
REMARK  Name = 
REMARK  10 active torsions:
REMARK  status: ('A' for Active; 'I' for Inactive)
REMARK    1  A    between atoms: C_1  and  O_2
REMARK    2  A    between atoms: O_2  and  C_3
REMARK    3  A    between atoms: C_5  and  C_6
REMARK    4  A    between atoms: C_8  and  C_9
REMARK    5  A    between atoms: N_11  and  C_12
REMARK    6  A    between atoms: C_17  and  N_18
REMARK    7  A    between atoms: C_32  and  O_33
REMARK    8  A    between atoms: O_33  and  C_34
REMARK    9  A    between atoms: C_35  and  O_36
REMARK   10  A    between atoms: O_36  and  C_37
REMARK                            x       y       z     vdW  Elec       q    Type
REMARK                         _______ _______ _______ _____ _____    ______ ____
ROOT
ATOM      1  C   UNL     1       2.209   7.978  18.737  0.00  0.00    +0.000 A 
ATOM      2  C   UNL     1       1.741   9.079  18.056  0.00  0.00    +0.000 A 
ATOM      3  C   UNL     1       1.266  10.143  18.813  0.00  0.00    +0.000 A 
ATOM      4  C   UNL     1       0.755   9.911  20.092  0.00  0.00    +0.000 A 
ATOM      5  C   UNL     1      -0.167  10.779  20.723  0.00  0.00    +0.000 A 
ATOM      6  C   UNL     1      -0.662  10.484  21.982  0.00  0.00    +0.000 A 
ATOM      7  C   UNL     1      -0.200   9.335  22.632  0.00  0.00    +0.000 A 
ATOM      8  C   UNL     1       0.719   8.494  22.006  0.00  0.00    +0.000 A 
ATOM      9  C   UNL     1       1.168   8.728  20.707  0.00  0.00    +0.000 A 
ATOM     10  N   UNL     1       1.965   7.837  20.070  0.00  0.00    +0.000 NA
ENDROOT
BRANCH   1  13
ATOM     11  C   UNL     1       3.456   4.560  17.433  0.00  0.00    +0.000 A 
ATOM     12  C   UNL     1       2.631   5.556  18.010  0.00  0.00    +0.000 A 
ATOM     13  C   UNL     1       3.005   6.920  18.066  0.00  0.00    +0.000 A 
ATOM     14  C   UNL     1       4.213   7.252  17.465  0.00  0.00    +0.000 A 
ATOM     15  C   UNL     1       5.056   6.284  16.906  0.00  0.00    +0.000 A 
ATOM     16  C   UNL     1       4.708   4.927  16.892  0.00  0.00    +0.000 A 
BRANCH  11  18
ATOM     17  C   UNL     1       3.233   2.489  18.619  0.00  0.00    +0.000 C 
ATOM     18  O   UNL     1       3.099   3.232  17.418  0.00  0.00    +0.000 OA
ENDBRANCH  11  18
BRANCH  15  19
ATOM     19  O   UNL     1       6.234   6.868  16.493  0.00  0.00    +0.000 OA
ATOM     20  C   UNL     1       7.276   7.033  17.437  0.00  0.00    +0.000 C 
ENDBRANCH  15  19
BRANCH  16  21
ATOM     21  O   UNL     1       5.610   4.105  16.281  0.00  0.00    +0.000 OA
ATOM     22  C   UNL     1       5.761   3.997  14.878  0.00  0.00    +0.000 C 
ENDBRANCH  16  21
ENDBRANCH   1  13
BRANCH   3  23
ATOM     23  C   UNL     1       1.878  11.487  18.539  0.00  0.00    +0.000 C 
ATOM     24  O   UNL     1       2.552  11.667  17.532  0.00  0.00    +0.000 OA
ATOM     25  N   UNL     1       1.517  12.483  19.439  0.00  0.00    +0.000 N 
ATOM     26  H   UNL     1       1.695  12.186  20.389  0.00  0.00    +0.000 HD
BRANCH  25  27
ATOM     27  C   UNL     1       1.913  13.813  19.177  0.00  0.00    +0.000 A 
ATOM     28  C   UNL     1       2.982  13.939  18.273  0.00  0.00    +0.000 A 
ATOM     29  C   UNL     1       3.421  15.190  17.874  0.00  0.00    +0.000 A 
ATOM     30  C   UNL     1       2.823  16.317  18.415  0.00  0.00    +0.000 A 
ATOM     31  C   UNL     1       1.775  16.192  19.336  0.00  0.00    +0.000 A 
ATOM     32  C   UNL     1       1.260  14.942  19.747  0.00  0.00    +0.000 A 
BRANCH  32  33
ATOM     33  N   UNL     1       0.180  14.889  20.618  0.00  0.00    +0.000 N 
ATOM     34  C   UNL     1       0.291  15.071  22.073  0.00  0.00    +0.000 C 
ATOM     35  C   UNL     1      -0.660  14.085  22.778  0.00  0.00    +0.000 C 
ATOM     36  O   UNL     1      -2.018  14.292  22.355  0.00  0.00    +0.000 OA
ATOM     37  C   UNL     1      -2.124  14.081  20.940  0.00  0.00    +0.000 C 
ATOM     38  C   UNL     1      -1.215  15.038  20.150  0.00  0.00    +0.000 C 
ENDBRANCH  32  33
ENDBRANCH  25  27
ENDBRANCH   3  23
TORSDOF 7
ENDMDL
MODEL 8
REMARK VINA RESULT:      -7.3      1.308      2.604
REMARK  Name = 
REMARK  10 active torsions:
REMARK  status: ('A' for Active; 'I' for Inactive)
REMARK    1  A    between atoms: C_1  and  O_2
REMARK    2  A    between atoms: O_2  and  C_3
REMARK    3  A    between atoms: C_5  and  C_6
REMARK    4  A    between atoms: C_8  and  C_9
REMARK    5  A    between atoms: N_11  and  C_12
REMARK    6  A    between atoms: C_17  and  N_18
REMARK    7  A    between atoms: C_32  and  O_33
REMARK    8  A    between atoms: O_33  and  C_34
REMARK    9  A    between atoms: C_35  and  O_36
REMARK   10  A    between atoms: O_36  and  C_37
REMARK                            x       y       z     vdW  Elec       q    Type
REMARK                         _______ _______ _______ _____ _____    ______ ____
ROOT
ATOM      1  C   UNL     1       0.976   9.341  20.373  0.00  0.00    +0.000 A 
ATOM      2  C   UNL     1       1.056  10.472  19.593  0.00  0.00    +0.000 A 
ATOM      3  C   UNL     1       0.699  11.679  20.180  0.00  0.00    +0.000 A 
ATOM      4  C   UNL     1      -0.207  11.692  21.243  0.00  0.00    +0.000 A 
ATOM      5  C   UNL     1      -0.991  12.821  21.574  0.00  0.00    +0.000 A 
ATOM      6  C   UNL     1      -1.895  12.768  22.622  0.00  0.00    +0.000 A 
ATOM      7  C   UNL     1      -1.984  11.591  23.371  0.00  0.00    +0.000 A 
ATOM      8  C   UNL     1      -1.198  10.487  23.043  0.00  0.00    +0.000 A 
ATOM      9  C   UNL     1      -0.341  10.492  21.943  0.00  0.00    +0.000 A 
ATOM     10  N   UNL     1       0.324   9.372  21.568  0.00  0.00    +0.000 NA
ENDROOT
BRANCH   1  13
ATOM     11  C   UNL     1       2.255   5.693  20.353  0.00  0.00    +0.000 A 
ATOM     12  C   UNL     1       1.575   6.875  20.737  0.00  0.00    +0.000 A 
ATOM     13  C   UNL     1       1.603   8.059  19.963  0.00  0.00    +0.000 A 
ATOM     14  C   UNL     1       2.294   7.991  18.759  0.00  0.00    +0.000 A 
ATOM     15  C   UNL     1       2.992   6.843  18.366  0.00  0.00    +0.000 A 
ATOM     16  C   UNL     1       3.002   5.684  19.155  0.00  0.00    +0.000 A 
BRANCH  11  18
ATOM     17  C   UNL     1       1.275   3.565  20.861  0.00  0.00    +0.000 C 
ATOM     18  O   UNL     1       2.250   4.559  21.132  0.00  0.00    +0.000 OA
ENDBRANCH  11  18
BRANCH  15  19
ATOM     19  O   UNL     1       3.682   7.088  17.200  0.00  0.00    +0.000 OA
ATOM     20  C   UNL     1       5.093   7.190  17.256  0.00  0.00    +0.000 C 
ENDBRANCH  15  19
BRANCH  16  21
ATOM     21  O   UNL     1       3.693   4.632  18.627  0.00  0.00    +0.000 OA
ATOM     22  C   UNL     1       4.909   4.136  19.155  0.00  0.00    +0.000 C 
ENDBRANCH  16  21
ENDBRANCH   1  13
BRANCH   3  23
ATOM     23  C   UNL     1       1.715  12.783  20.117  0.00  0.00    +0.000 C 
ATOM     24  O   UNL     1       2.476  12.979  21.057  0.00  0.00    +0.000 OA
ATOM     25  N   UNL     1       1.778  13.445  18.896  0.00  0.00    +0.000 N 
ATOM     26  H   UNL     1       0.862  13.773  18.622  0.00  0.00    +0.000 HD
BRANCH  25  27
ATOM     27  C   UNL     1       2.805  14.390  18.685  0.00  0.00    +0.000 A 
ATOM     28  C   UNL     1       4.026  13.841  18.254  0.00  0.00    +0.000 A 
ATOM     29  C   UNL     1       5.094  14.665  17.941  0.00  0.00    +0.000 A 
ATOM     30  C   UNL     1       4.959  16.035  18.104  0.00  0.00    +0.000 A 
ATOM     31  C   UNL     1       3.751  16.579  18.558  0.00  0.00    +0.000 A 
ATOM     32  C   UNL     1       2.616  15.790  18.853  0.00  0.00    +0.000 A 
BRANCH  32  33
ATOM     33  N   UNL     1       1.431  16.399  19.243  0.00  0.00    +0.000 N 
ATOM     34  C   UNL     1       1.026  16.583  20.645  0.00  0.00    +0.000 C 
ATOM     35  C   UNL     1      -0.490  16.333  20.768  0.00  0.00    +0.000 C 
ATOM     36  O   UNL     1      -1.227  17.228  19.918  0.00  0.00    +0.000 OA
ATOM     37  C   UNL     1      -0.849  17.021  18.550  0.00  0.00    +0.000 C 
ATOM     38  C   UNL     1       0.653  17.263  18.329  0.00  0.00    +0.000 C 
ENDBRANCH  32  33
ENDBRANCH  25  27
ENDBRANCH   3  23
TORSDOF 7
ENDMDL
MODEL 9
REMARK VINA RESULT:      -7.1      1.716      2.284
REMARK  Name = 
REMARK  10 active torsions:
REMARK  status: ('A' for Active; 'I' for Inactive)
REMARK    1  A    between atoms: C_1  and  O_2
REMARK    2  A    between atoms: O_2  and  C_3
REMARK    3  A    between atoms: C_5  and  C_6
REMARK    4  A    between atoms: C_8  and  C_9
REMARK    5  A    between atoms: N_11  and  C_12
REMARK    6  A    between atoms: C_17  and  N_18
REMARK    7  A    between atoms: C_32  and  O_33
REMARK    8  A    between atoms: O_33  and  C_34
REMARK    9  A    between atoms: C_35  and  O_36
REMARK   10  A    between atoms: O_36  and  C_37
REMARK                            x       y       z     vdW  Elec       q    Type
REMARK                         _______ _______ _______ _____ _____    ______ ____
ROOT
ATOM      1  C   UNL     1       1.675   9.553  18.612  0.00  0.00    +0.000 A 
ATOM      2  C   UNL     1       2.184  10.687  18.021  0.00  0.00    +0.000 A 
ATOM      3  C   UNL     1       1.577  11.897  18.334  0.00  0.00    +0.000 A 
ATOM      4  C   UNL     1       0.236  11.920  18.724  0.00  0.00    +0.000 A 
ATOM      5  C   UNL     1      -0.588  13.061  18.588  0.00  0.00    +0.000 A 
ATOM      6  C   UNL     1      -1.919  13.018  18.966  0.00  0.00    +0.000 A 
ATOM      7  C   UNL     1      -2.419  11.838  19.526  0.00  0.00    +0.000 A 
ATOM      8  C   UNL     1      -1.594  10.722  19.667  0.00  0.00    +0.000 A 
ATOM      9  C   UNL     1      -0.274  10.718  19.218  0.00  0.00    +0.000 A 
ATOM     10  N   UNL     1       0.474   9.589  19.253  0.00  0.00    +0.000 NA
ENDROOT
BRANCH   1  13
ATOM     11  C   UNL     1       3.937   6.603  17.554  0.00  0.00    +0.000 A 
ATOM     12  C   UNL     1       3.318   7.876  17.581  0.00  0.00    +0.000 A 
ATOM     13  C   UNL     1       2.409   8.263  18.595  0.00  0.00    +0.000 A 
ATOM     14  C   UNL     1       2.194   7.341  19.613  0.00  0.00    +0.000 A 
ATOM     15  C   UNL     1       2.777   6.069  19.599  0.00  0.00    +0.000 A 
ATOM     16  C   UNL     1       3.641   5.668  18.570  0.00  0.00    +0.000 A 
BRANCH  11  18
ATOM     17  C   UNL     1       6.183   6.398  16.743  0.00  0.00    +0.000 C 
ATOM     18  O   UNL     1       4.790   6.225  16.543  0.00  0.00    +0.000 OA
ENDBRANCH  11  18
BRANCH  15  19
ATOM     19  O   UNL     1       2.302   5.322  20.654  0.00  0.00    +0.000 OA
ATOM     20  C   UNL     1       1.129   4.552  20.465  0.00  0.00    +0.000 C 
ENDBRANCH  15  19
BRANCH  16  21
ATOM     21  O   UNL     1       4.163   4.415  18.709  0.00  0.00    +0.000 OA
ATOM     22  C   UNL     1       3.688   3.276  18.017  0.00  0.00    +0.000 C 
ENDBRANCH  16  21
ENDBRANCH   1  13
BRANCH   3  23
ATOM     23  C   UNL     1       2.474  12.983  18.855  0.00  0.00    +0.000 C 
ATOM     24  O   UNL     1       2.748  13.041  20.048  0.00  0.00    +0.000 OA
ATOM     25  N   UNL     1       3.027  13.799  17.875  0.00  0.00    +0.000 N 
ATOM     26  H   UNL     1       2.305  14.176  17.277  0.00  0.00    +0.000 HD
BRANCH  25  27
ATOM     27  C   UNL     1       4.004  14.747  18.250  0.00  0.00    +0.000 A 
ATOM     28  C   UNL     1       5.323  14.393  17.913  0.00  0.00    +0.000 A 
ATOM     29  C   UNL     1       6.369  15.267  18.159  0.00  0.00    +0.000 A 
ATOM     30  C   UNL     1       6.104  16.475  18.784  0.00  0.00    +0.000 A 
ATOM     31  C   UNL     1       4.794  16.816  19.144  0.00  0.00    +0.000 A 
ATOM     32  C   UNL     1       3.684  15.982  18.880  0.00  0.00    +0.000 A 
BRANCH  32  33
ATOM     33  N   UNL     1       2.404  16.407  19.210  0.00  0.00    +0.000 N 
ATOM     34  C   UNL     1       1.889  16.470  20.586  0.00  0.00    +0.000 C 
ATOM     35  C   UNL     1       0.418  16.013  20.595  0.00  0.00    +0.000 C 
ATOM     36  O   UNL     1      -0.380  16.839  19.729  0.00  0.00    +0.000 OA
ATOM     37  C   UNL     1       0.109  16.747  18.384  0.00  0.00    +0.000 C 
ATOM     38  C   UNL     1       1.575  17.200  18.276  0.00  0.00    +0.000 C 
ENDBRANCH  32  33
ENDBRANCH  25  27
ENDBRANCH   3  23
TORSDOF 7
ENDMDL
