MODEL 1
REMARK VINA RESULT:      -7.0      0.000      0.000
REMARK  Name = 
REMARK  11 active torsions:
REMARK  status: ('A' for Active; 'I' for Inactive)
REMARK    1  A    between atoms: C_1  and  O_2
REMARK    2  A    between atoms: O_2  and  C_3
REMARK    3  A    between atoms: C_5  and  C_6
REMARK    4  A    between atoms: C_7  and  C_8
REMARK    5  A    between atoms: N_13  and  C_14
REMARK    6  A    between atoms: C_14  and  C_15
REMARK    7  A    between atoms: C_15  and  O_17
REMARK    8  A    between atoms: C_21  and  O_22
REMARK    9  A    between atoms: O_22  and  C_23
REMARK   10  A    between atoms: C_24  and  O_25
REMARK   11  A    between atoms: O_25  and  C_26
REMARK                            x       y       z     vdW  Elec       q    Type
REMARK                         _______ _______ _______ _____ _____    ______ ____
ROOT
ATOM      1  C   UNL     1       3.043   7.792  18.040  0.00  0.00    +0.000 C 
ATOM      2  C   UNL     1       1.942   8.543  17.877  0.00  0.00    +0.000 C 
ENDROOT
BRANCH   2   3
ATOM      3  C   UNL     1       2.019  10.014  18.037  0.00  0.00    +0.000 C 
ATOM      4  O   UNL     1       2.686  10.684  17.255  0.00  0.00    +0.000 OA
ATOM      5  N   UNL     1       1.247  10.555  19.046  0.00  0.00    +0.000 N 
ATOM      6  C   UNL     1       1.105  12.006  19.152  0.00  0.00    +0.000 C 
ATOM      7  C   UNL     1      -0.378  12.398  19.373  0.00  0.00    +0.000 C 
ATOM      8  N   UNL     1      -1.079  11.679  20.480  0.00  0.00    +0.000 NA
ATOM      9  C   UNL     1      -0.834  10.217  20.311  0.00  0.00    +0.000 C 
ATOM     10  C   UNL     1       0.637   9.806  20.144  0.00  0.00    +0.000 C 
BRANCH   8  11
ATOM     11  C   UNL     1      -0.583  12.191  21.791  0.00  0.00    +0.000 C 
BRANCH  11  12
ATOM     12  C   UNL     1      -1.205  11.427  22.957  0.00  0.00    +0.000 C 
ATOM     13  O   UNL     1      -2.356  11.571  23.338  0.00  0.00    +0.000 OA
BRANCH  12  14
ATOM     14  O   UNL     1      -0.346  10.532  23.506  0.00  0.00    +0.000 OA
ATOM     15  H   UNL     1      -0.551  10.475  24.467  0.00  0.00    +0.000 HD
ENDBRANCH  12  14
ENDBRANCH  11  12
ENDBRANCH   8  11
ENDBRANCH   2   3
BRANCH   1  18
ATOM     16  C   UNL     1       4.372   4.362  17.097  0.00  0.00    +0.000 A 
ATOM     17  C   UNL     1       4.220   5.759  17.167  0.00  0.00    +0.000 A 
ATOM     18  C   UNL     1       3.112   6.346  17.777  0.00  0.00    +0.000 A 
ATOM     19  C   UNL     1       2.109   5.509  18.260  0.00  0.00    +0.000 A 
ATOM     20  C   UNL     1       2.207   4.111  18.145  0.00  0.00    +0.000 A 
ATOM     21  C   UNL     1       3.340   3.516  17.548  0.00  0.00    +0.000 A 
BRANCH  16  23
ATOM     22  C   UNL     1       5.908   4.329  15.295  0.00  0.00    +0.000 C 
ATOM     23  O   UNL     1       5.522   3.822  16.574  0.00  0.00    +0.000 OA
ENDBRANCH  16  23
BRANCH  20  24
ATOM     24  O   UNL     1       1.095   3.467  18.637  0.00  0.00    +0.000 OA
ATOM     25  C   UNL     1       0.910   3.482  20.048  0.00  0.00    +0.000 C 
ENDBRANCH  20  24
BRANCH  21  26
ATOM     26  O   UNL     1       3.305   2.152  17.457  0.00  0.00    +0.000 OA
ATOM     27  C   UNL     1       3.727   1.335  18.535  0.00  0.00    +0.000 C 
ENDBRANCH  21  26
ENDBRANCH   1  18
TORSDOF 8
ENDMDL
MODEL 2
REMARK VINA RESULT:      -6.8      2.099      2.981
REMARK  Name = 
REMARK  11 active torsions:
REMARK  status: ('A' for Active; 'I' for Inactive)
REMARK    1  A    between atoms: C_1  and  O_2
REMARK    2  A    between atoms: O_2  and  C_3
REMARK    3  A    between atoms: C_5  and  C_6
REMARK    4  A    between atoms: C_7  and  C_8
REMARK    5  A    between atoms: N_13  and  C_14
REMARK    6  A    between atoms: C_14  and  C_15
REMARK    7  A    between atoms: C_15  and  O_17
REMARK    8  A    between atoms: C_21  and  O_22
REMARK    9  A    between atoms: O_22  and  C_23
REMARK   10  A    between atoms: C_24  and  O_25
REMARK   11  A    between atoms: O_25  and  C_26
REMARK                            x       y       z     vdW  Elec       q    Type
REMARK                         _______ _______ _______ _____ _____    ______ ____
ROOT
ATOM      1  C   UNL     1       2.157   7.449  20.237  0.00  0.00    +0.000 C 
ATOM      2  C   UNL     1       1.279   7.759  21.204  0.00  0.00    +0.000 C 
ENDROOT
BRANCH   2   3
ATOM      3  C   UNL     1       1.178   9.154  21.694  0.00  0.00    +0.000 C 
ATOM      4  O   UNL     1       1.728   9.479  22.741  0.00  0.00    +0.000 OA
ATOM      5  N   UNL     1       0.510  10.038  20.871  0.00  0.00    +0.000 N 
ATOM      6  C   UNL     1       0.530  11.468  21.173  0.00  0.00    +0.000 C 
ATOM      7  C   UNL     1       0.832  12.296  19.899  0.00  0.00    +0.000 C 
ATOM      8  N   UNL     1      -0.016  11.982  18.708  0.00  0.00    +0.000 NA
ATOM      9  C   UNL     1      -0.012  10.503  18.513  0.00  0.00    +0.000 C 
ATOM     10  C   UNL     1      -0.362   9.669  19.755  0.00  0.00    +0.000 C 
BRANCH   8  11
ATOM     11  C   UNL     1      -1.388  12.524  18.926  0.00  0.00    +0.000 C 
BRANCH  11  12
ATOM     12  C   UNL     1      -2.396  11.884  17.974  0.00  0.00    +0.000 C 
ATOM     13  O   UNL     1      -3.415  11.314  18.331  0.00  0.00    +0.000 OA
BRANCH  12  14
ATOM     14  O   UNL     1      -2.056  12.053  16.671  0.00  0.00    +0.000 OA
ATOM     15  H   UNL     1      -1.335  12.723  16.637  0.00  0.00    +0.000 HD
ENDBRANCH  12  14
ENDBRANCH  11  12
ENDBRANCH   8  11
ENDBRANCH   2   3
BRANCH   1  18
ATOM     16  C   UNL     1       3.275   4.633  17.947  0.00  0.00    +0.000 A 
ATOM     17  C   UNL     1       3.029   5.925  18.449  0.00  0.00    +0.000 A 
ATOM     18  C   UNL     1       2.249   6.133  19.586  0.00  0.00    +0.000 A 
ATOM     19  C   UNL     1       1.650   5.025  20.182  0.00  0.00    +0.000 A 
ATOM     20  C   UNL     1       1.828   3.731  19.662  0.00  0.00    +0.000 A 
ATOM     21  C   UNL     1       2.638   3.519  18.524  0.00  0.00    +0.000 A 
BRANCH  16  23
ATOM     22  C   UNL     1       4.849   5.628  16.483  0.00  0.00    +0.000 C 
ATOM     23  O   UNL     1       4.126   4.462  16.881  0.00  0.00    +0.000 OA
ENDBRANCH  16  23
BRANCH  20  24
ATOM     24  O   UNL     1       1.118   2.784  20.363  0.00  0.00    +0.000 OA
ATOM     25  C   UNL     1       1.486   2.572  21.721  0.00  0.00    +0.000 C 
ENDBRANCH  20  24
BRANCH  21  26
ATOM     26  O   UNL     1       2.704   2.224  18.088  0.00  0.00    +0.000 OA
ATOM     27  C   UNL     1       3.705   1.341  18.563  0.00  0.00    +0.000 C 
ENDBRANCH  21  26
ENDBRANCH   1  18
TORSDOF 8
ENDMDL
MODEL 3
REMARK VINA RESULT:      -6.8      5.669      9.292
REMARK  Name = 
REMARK  11 active torsions:
REMARK  status: ('A' for Active; 'I' for Inactive)
REMARK    1  A    between atoms: C_1  and  O_2
REMARK    2  A    between atoms: O_2  and  C_3
REMARK    3  A    between atoms: C_5  and  C_6
REMARK    4  A    between atoms: C_7  and  C_8
REMARK    5  A    between atoms: N_13  and  C_14
REMARK    6  A    between atoms: C_14  and  C_15
REMARK    7  A    between atoms: C_15  and  O_17
REMARK    8  A    between atoms: C_21  and  O_22
REMARK    9  A    between atoms: O_22  and  C_23
REMARK   10  A    between atoms: C_24  and  O_25
REMARK   11  A    between atoms: O_25  and  C_26
REMARK                            x       y       z     vdW  Elec       q    Type
REMARK                         _______ _______ _______ _____ _____    ______ ____
ROOT
ATOM      1  C   UNL     1       8.324   8.373  18.049  0.00  0.00    +0.000 C 
ATOM      2  C   UNL     1       7.142   7.927  17.594  0.00  0.00    +0.000 C 
ENDROOT
BRANCH   2   3
ATOM      3  C   UNL     1       6.908   6.471  17.443  0.00  0.00    +0.000 C 
ATOM      4  O   UNL     1       7.853   5.715  17.241  0.00  0.00    +0.000 OA
ATOM      5  N   UNL     1       5.607   6.046  17.620  0.00  0.00    +0.000 N 
ATOM      6  C   UNL     1       5.314   4.615  17.685  0.00  0.00    +0.000 C 
ATOM      7  C   UNL     1       4.363   4.302  18.868  0.00  0.00    +0.000 C 
ATOM      8  N   UNL     1       3.125   5.136  18.940  0.00  0.00    +0.000 NA
ATOM      9  C   UNL     1       3.523   6.568  18.816  0.00  0.00    +0.000 C 
ATOM     10  C   UNL     1       4.423   6.904  17.616  0.00  0.00    +0.000 C 
BRANCH   8  11
ATOM     11  C   UNL     1       2.183   4.711  17.864  0.00  0.00    +0.000 C 
BRANCH  11  12
ATOM     12  C   UNL     1       1.717   3.272  18.070  0.00  0.00    +0.000 C 
ATOM     13  O   UNL     1       2.079   2.326  17.387  0.00  0.00    +0.000 OA
BRANCH  12  14
ATOM     14  O   UNL     1       0.881   3.146  19.132  0.00  0.00    +0.000 OA
ATOM     15  H   UNL     1       0.190   2.488  18.888  0.00  0.00    +0.000 HD
ENDBRANCH  12  14
ENDBRANCH  11  12
ENDBRANCH   8  11
ENDBRANCH   2   3
BRANCH   1  18
ATOM     16  C   UNL     1       9.985  11.473  19.483  0.00  0.00    +0.000 A 
ATOM     17  C   UNL     1       9.560  10.140  19.326  0.00  0.00    +0.000 A 
ATOM     18  C   UNL     1       8.618   9.780  18.362  0.00  0.00    +0.000 A 
ATOM     19  C   UNL     1       8.044  10.793  17.596  0.00  0.00    +0.000 A 
ATOM     20  C   UNL     1       8.404  12.139  17.778  0.00  0.00    +0.000 A 
ATOM     21  C   UNL     1       9.375  12.500  18.738  0.00  0.00    +0.000 A 
BRANCH  16  23
ATOM     22  C   UNL     1      12.305  11.792  19.835  0.00  0.00    +0.000 C 
ATOM     23  O   UNL     1      10.984  11.773  20.378  0.00  0.00    +0.000 OA
ENDBRANCH  16  23
BRANCH  20  24
ATOM     24  O   UNL     1       7.692  12.986  16.961  0.00  0.00    +0.000 OA
ATOM     25  C   UNL     1       6.784  13.882  17.591  0.00  0.00    +0.000 C 
ENDBRANCH  20  24
BRANCH  21  26
ATOM     26  O   UNL     1       9.614  13.842  18.851  0.00  0.00    +0.000 OA
ATOM     27  C   UNL     1      10.554  14.493  18.015  0.00  0.00    +0.000 C 
ENDBRANCH  21  26
ENDBRANCH   1  18
TORSDOF 8
ENDMDL
MODEL 4
REMARK VINA RESULT:      -6.7      1.407      1.510
REMARK  Name = 
REMARK  11 active torsions:
REMARK  status: ('A' for Active; 'I' for Inactive)
REMARK    1  A    between atoms: C_1  and  O_2
REMARK    2  A    between atoms: O_2  and  C_3
REMARK    3  A    between atoms: C_5  and  C_6
REMARK    4  A    between atoms: C_7  and  C_8
REMARK    5  A    between atoms: N_13  and  C_14
REMARK    6  A    between atoms: C_14  and  C_15
REMARK    7  A    between atoms: C_15  and  O_17
REMARK    8  A    between atoms: C_21  and  O_22
REMARK    9  A    between atoms: O_22  and  C_23
REMARK   10  A    between atoms: C_24  and  O_25
REMARK   11  A    between atoms: O_25  and  C_26
REMARK                            x       y       z     vdW  Elec       q    Type
REMARK                         _______ _______ _______ _____ _____    ______ ____
ROOT
ATOM      1  C   UNL     1       2.772   7.549  18.179  0.00  0.00    +0.000 C 
ATOM      2  C   UNL     1       2.011   8.270  19.017  0.00  0.00    +0.000 C 
ENDROOT
BRANCH   2   3
ATOM      3  C   UNL     1       1.547   9.620  18.620  0.00  0.00    +0.000 C 
ATOM      4  O   UNL     1       1.656   9.990  17.455  0.00  0.00    +0.000 OA
ATOM      5  N   UNL     1       0.936  10.365  19.608  0.00  0.00    +0.000 N 
ATOM      6  C   UNL     1       0.274  11.623  19.265  0.00  0.00    +0.000 C 
ATOM      7  C   UNL     1      -1.120  11.711  19.935  0.00  0.00    +0.000 C 
ATOM      8  N   UNL     1      -1.149  11.440  21.405  0.00  0.00    +0.000 NA
ATOM      9  C   UNL     1      -0.410  10.168  21.657  0.00  0.00    +0.000 C 
ATOM     10  C   UNL     1       0.996  10.087  21.043  0.00  0.00    +0.000 C 
BRANCH   8  11
ATOM     11  C   UNL     1      -0.553  12.599  22.129  0.00  0.00    +0.000 C 
BRANCH  11  12
ATOM     12  C   UNL     1      -1.485  13.107  23.226  0.00  0.00    +0.000 C 
ATOM     13  O   UNL     1      -1.276  14.104  23.900  0.00  0.00    +0.000 OA
BRANCH  12  14
ATOM     14  O   UNL     1      -2.605  12.350  23.347  0.00  0.00    +0.000 OA
ATOM     15  H   UNL     1      -2.883  12.085  22.439  0.00  0.00    +0.000 HD
ENDBRANCH  12  14
ENDBRANCH  11  12
ENDBRANCH   8  11
ENDBRANCH   2   3
BRANCH   1  18
ATOM     16  C   UNL     1       4.917   4.463  18.733  0.00  0.00    +0.000 A 
ATOM     17  C   UNL     1       4.506   5.744  18.317  0.00  0.00    +0.000 A 
ATOM     18  C   UNL     1       3.176   6.153  18.412  0.00  0.00    +0.000 A 
ATOM     19  C   UNL     1       2.236   5.229  18.865  0.00  0.00    +0.000 A 
ATOM     20  C   UNL     1       2.611   3.924  19.225  0.00  0.00    +0.000 A 
ATOM     21  C   UNL     1       3.962   3.517  19.152  0.00  0.00    +0.000 A 
BRANCH  16  23
ATOM     22  C   UNL     1       7.019   4.749  17.680  0.00  0.00    +0.000 C 
ATOM     23  O   UNL     1       6.250   4.131  18.713  0.00  0.00    +0.000 OA
ENDBRANCH  16  23
BRANCH  20  24
ATOM     24  O   UNL     1       1.534   3.154  19.599  0.00  0.00    +0.000 OA
ATOM     25  C   UNL     1       1.217   3.114  20.985  0.00  0.00    +0.000 C 
ENDBRANCH  20  24
BRANCH  21  26
ATOM     26  O   UNL     1       4.199   2.214  19.490  0.00  0.00    +0.000 OA
ATOM     27  C   UNL     1       3.927   1.159  18.583  0.00  0.00    +0.000 C 
ENDBRANCH  21  26
ENDBRANCH   1  18
TORSDOF 8
ENDMDL
MODEL 5
REMARK VINA RESULT:      -6.6      0.839      2.671
REMARK  Name = 
REMARK  11 active torsions:
REMARK  status: ('A' for Active; 'I' for Inactive)
REMARK    1  A    between atoms: C_1  and  O_2
REMARK    2  A    between atoms: O_2  and  C_3
REMARK    3  A    between atoms: C_5  and  C_6
REMARK    4  A    between atoms: C_7  and  C_8
REMARK    5  A    between atoms: N_13  and  C_14
REMARK    6  A    between atoms: C_14  and  C_15
REMARK    7  A    between atoms: C_15  and  O_17
REMARK    8  A    between atoms: C_21  and  O_22
REMARK    9  A    between atoms: O_22  and  C_23
REMARK   10  A    between atoms: C_24  and  O_25
REMARK   11  A    between atoms: O_25  and  C_26
REMARK                            x       y       z     vdW  Elec       q    Type
REMARK                         _______ _______ _______ _____ _____    ______ ____
ROOT
ATOM      1  C   UNL     1       2.927   7.738  17.905  0.00  0.00    +0.000 C 
ATOM      2  C   UNL     1       1.936   8.379  18.544  0.00  0.00    +0.000 C 
ENDROOT
BRANCH   2   3
ATOM      3  C   UNL     1       1.771   9.843  18.376  0.00  0.00    +0.000 C 
ATOM      4  O   UNL     1       2.146  10.388  17.342  0.00  0.00    +0.000 OA
ATOM      5  N   UNL     1       1.117  10.500  19.398  0.00  0.00    +0.000 N 
ATOM      6  C   UNL     1       0.736  11.902  19.232  0.00  0.00    +0.000 C 
ATOM      7  C   UNL     1      -0.725  12.132  19.695  0.00  0.00    +0.000 C 
ATOM      8  N   UNL     1      -1.062  11.611  21.055  0.00  0.00    +0.000 NA
ATOM      9  C   UNL     1      -0.591  10.198  21.141  0.00  0.00    +0.000 C 
ATOM     10  C   UNL     1       0.872   9.962  20.736  0.00  0.00    +0.000 C 
BRANCH   8  11
ATOM     11  C   UNL     1      -0.431  12.486  22.086  0.00  0.00    +0.000 C 
BRANCH  11  12
ATOM     12  C   UNL     1      -1.467  13.020  23.071  0.00  0.00    +0.000 C 
ATOM     13  O   UNL     1      -1.262  13.930  23.860  0.00  0.00    +0.000 OA
BRANCH  12  14
ATOM     14  O   UNL     1      -2.667  12.398  22.948  0.00  0.00    +0.000 OA
ATOM     15  H   UNL     1      -3.336  13.086  22.724  0.00  0.00    +0.000 HD
ENDBRANCH  12  14
ENDBRANCH  11  12
ENDBRANCH   8  11
ENDBRANCH   2   3
BRANCH   1  18
ATOM     16  C   UNL     1       2.164   4.017  17.917  0.00  0.00    +0.000 A 
ATOM     17  C   UNL     1       2.040   5.404  18.125  0.00  0.00    +0.000 A 
ATOM     18  C   UNL     1       3.102   6.277  17.894  0.00  0.00    +0.000 A 
ATOM     19  C   UNL     1       4.329   5.733  17.517  0.00  0.00    +0.000 A 
ATOM     20  C   UNL     1       4.496   4.345  17.365  0.00  0.00    +0.000 A 
ATOM     21  C   UNL     1       3.412   3.463  17.577  0.00  0.00    +0.000 A 
BRANCH  16  23
ATOM     22  C   UNL     1       0.702   2.905  19.413  0.00  0.00    +0.000 C 
ATOM     23  O   UNL     1       1.068   3.201  18.064  0.00  0.00    +0.000 OA
ENDBRANCH  16  23
BRANCH  20  24
ATOM     24  O   UNL     1       5.788   4.007  17.037  0.00  0.00    +0.000 OA
ATOM     25  C   UNL     1       6.117   3.976  15.653  0.00  0.00    +0.000 C 
ENDBRANCH  20  24
BRANCH  21  26
ATOM     26  O   UNL     1       3.705   2.135  17.438  0.00  0.00    +0.000 OA
ATOM     27  C   UNL     1       3.849   1.293  18.569  0.00  0.00    +0.000 C 
ENDBRANCH  21  26
ENDBRANCH   1  18
TORSDOF 8
ENDMDL
MODEL 6
REMARK VINA RESULT:      -6.6      1.590      3.069
REMARK  Name = 
REMARK  11 active torsions:
REMARK  status: ('A' for Active; 'I' for Inactive)
REMARK    1  A    between atoms: C_1  and  O_2
REMARK    2  A    between atoms: O_2  and  C_3
REMARK    3  A    between atoms: C_5  and  C_6
REMARK    4  A    between atoms: C_7  and  C_8
REMARK    5  A    between atoms: N_13  and  C_14
REMARK    6  A    between atoms: C_14  and  C_15
REMARK    7  A    between atoms: C_15  and  O_17
REMARK    8  A    between atoms: C_21  and  O_22
REMARK    9  A    between atoms: O_22  and  C_23
REMARK   10  A    between atoms: C_24  and  O_25
REMARK   11  A    between atoms: O_25  and  C_26
REMARK                            x       y       z     vdW  Elec       q    Type
REMARK                         _______ _______ _______ _____ _____    ______ ____
ROOT
ATOM      1  C   UNL     1       2.527   7.849  18.652  0.00  0.00    +0.000 C 
ATOM      2  C   UNL     1       1.680   8.616  17.948  0.00  0.00    +0.000 C 
ENDROOT
BRANCH   2   3
ATOM      3  C   UNL     1       1.736  10.092  18.076  0.00  0.00    +0.000 C 
ATOM      4  O   UNL     1       2.710  10.709  17.656  0.00  0.00    +0.000 OA
ATOM      5  N   UNL     1       0.617  10.696  18.612  0.00  0.00    +0.000 N 
ATOM      6  C   UNL     1       0.500  12.153  18.595  0.00  0.00    +0.000 C 
ATOM      7  C   UNL     1      -0.906  12.587  18.113  0.00  0.00    +0.000 C 
ATOM      8  N   UNL     1      -2.058  11.937  18.810  0.00  0.00    +0.000 NA
ATOM      9  C   UNL     1      -1.823  10.463  18.817  0.00  0.00    +0.000 C 
ATOM     10  C   UNL     1      -0.451  10.014  19.343  0.00  0.00    +0.000 C 
BRANCH   8  11
ATOM     11  C   UNL     1      -2.182  12.500  20.185  0.00  0.00    +0.000 C 
BRANCH  11  12
ATOM     12  C   UNL     1      -3.640  12.774  20.544  0.00  0.00    +0.000 C 
ATOM     13  O   UNL     1      -4.081  12.776  21.683  0.00  0.00    +0.000 OA
BRANCH  12  14
ATOM     14  O   UNL     1      -4.397  13.060  19.454  0.00  0.00    +0.000 OA
ATOM     15  H   UNL     1      -5.315  12.758  19.642  0.00  0.00    +0.000 HD
ENDBRANCH  12  14
ENDBRANCH  11  12
ENDBRANCH   8  11
ENDBRANCH   2   3
BRANCH   1  18
ATOM     16  C   UNL     1       1.806   4.128  18.909  0.00  0.00    +0.000 A 
ATOM     17  C   UNL     1       1.825   5.505  19.199  0.00  0.00    +0.000 A 
ATOM     18  C   UNL     1       2.649   6.390  18.504  0.00  0.00    +0.000 A 
ATOM     19  C   UNL     1       3.520   5.864  17.551  0.00  0.00    +0.000 A 
ATOM     20  C   UNL     1       3.566   4.484  17.288  0.00  0.00    +0.000 A 
ATOM     21  C   UNL     1       2.714   3.592  17.976  0.00  0.00    +0.000 A 
BRANCH  16  23
ATOM     22  C   UNL     1       1.214   3.021  20.917  0.00  0.00    +0.000 C 
ATOM     23  O   UNL     1       0.912   3.305  19.549  0.00  0.00    +0.000 OA
ENDBRANCH  16  23
BRANCH  20  24
ATOM     24  O   UNL     1       4.522   4.162  16.352  0.00  0.00    +0.000 OA
ATOM     25  C   UNL     1       5.881   4.359  16.721  0.00  0.00    +0.000 C 
ENDBRANCH  20  24
BRANCH  21  26
ATOM     26  O   UNL     1       2.878   2.270  17.664  0.00  0.00    +0.000 OA
ATOM     27  C   UNL     1       3.657   1.415  18.481  0.00  0.00    +0.000 C 
ENDBRANCH  21  26
ENDBRANCH   1  18
TORSDOF 8
ENDMDL
MODEL 7
REMARK VINA RESULT:      -6.6      1.650      1.903
REMARK  Name = 
REMARK  11 active torsions:
REMARK  status: ('A' for Active; 'I' for Inactive)
REMARK    1  A    between atoms: C_1  and  O_2
REMARK    2  A    between atoms: O_2  and  C_3
REMARK    3  A    between atoms: C_5  and  C_6
REMARK    4  A    between atoms: C_7  and  C_8
REMARK    5  A    between atoms: N_13  and  C_14
REMARK    6  A    between atoms: C_14  and  C_15
REMARK    7  A    between atoms: C_15  and  O_17
REMARK    8  A    between atoms: C_21  and  O_22
REMARK    9  A    between atoms: O_22  and  C_23
REMARK   10  A    between atoms: C_24  and  O_25
REMARK   11  A    between atoms: O_25  and  C_26
REMARK                            x       y       z     vdW  Elec       q    Type
REMARK                         _______ _______ _______ _____ _____    ______ ____
ROOT
ATOM      1  C   UNL     1       2.583   8.076  18.406  0.00  0.00    +0.000 C 
ATOM      2  C   UNL     1       1.752   8.907  17.757  0.00  0.00    +0.000 C 
ENDROOT
BRANCH   2   3
ATOM      3  C   UNL     1       1.731  10.349  18.096  0.00  0.00    +0.000 C 
ATOM      4  O   UNL     1       2.715  11.047  17.873  0.00  0.00    +0.000 OA
ATOM      5  N   UNL     1       0.538  10.838  18.589  0.00  0.00    +0.000 N 
ATOM      6  C   UNL     1       0.362  12.279  18.765  0.00  0.00    +0.000 C 
ATOM      7  C   UNL     1      -1.007  12.738  18.202  0.00  0.00    +0.000 C 
ATOM      8  N   UNL     1      -2.194  11.961  18.675  0.00  0.00    +0.000 NA
ATOM      9  C   UNL     1      -1.897  10.509  18.500  0.00  0.00    +0.000 C 
ATOM     10  C   UNL     1      -0.567  10.028  19.100  0.00  0.00    +0.000 C 
BRANCH   8  11
ATOM     11  C   UNL     1      -2.480  12.317  20.094  0.00  0.00    +0.000 C 
BRANCH  11  12
ATOM     12  C   UNL     1      -3.952  12.672  20.292  0.00  0.00    +0.000 C 
ATOM     13  O   UNL     1      -4.505  12.733  21.379  0.00  0.00    +0.000 OA
BRANCH  12  14
ATOM     14  O   UNL     1      -4.578  12.955  19.122  0.00  0.00    +0.000 OA
ATOM     15  H   UNL     1      -4.819  12.099  18.699  0.00  0.00    +0.000 HD
ENDBRANCH  12  14
ENDBRANCH  11  12
ENDBRANCH   8  11
ENDBRANCH   2   3
BRANCH   1  18
ATOM     16  C   UNL     1       4.217   4.836  17.284  0.00  0.00    +0.000 A 
ATOM     17  C   UNL     1       3.941   6.209  17.431  0.00  0.00    +0.000 A 
ATOM     18  C   UNL     1       2.782   6.659  18.063  0.00  0.00    +0.000 A 
ATOM     19  C   UNL     1       1.855   5.710  18.488  0.00  0.00    +0.000 A 
ATOM     20  C   UNL     1       2.077   4.336  18.295  0.00  0.00    +0.000 A 
ATOM     21  C   UNL     1       3.262   3.879  17.676  0.00  0.00    +0.000 A 
BRANCH  16  23
ATOM     22  C   UNL     1       5.444   4.358  15.316  0.00  0.00    +0.000 C 
ATOM     23  O   UNL     1       5.413   4.432  16.742  0.00  0.00    +0.000 OA
ENDBRANCH  16  23
BRANCH  20  24
ATOM     24  O   UNL     1       1.026   3.568  18.739  0.00  0.00    +0.000 OA
ATOM     25  C   UNL     1       0.873   3.432  20.147  0.00  0.00    +0.000 C 
ENDBRANCH  20  24
BRANCH  21  26
ATOM     26  O   UNL     1       3.349   2.524  17.509  0.00  0.00    +0.000 OA
ATOM     27  C   UNL     1       3.751   1.678  18.572  0.00  0.00    +0.000 C 
ENDBRANCH  21  26
ENDBRANCH   1  18
TORSDOF 8
ENDMDL
MODEL 8
REMARK VINA RESULT:      -6.6      2.814      9.129
REMARK  Name = 
REMARK  11 active torsions:
REMARK  status: ('A' for Active; 'I' for Inactive)
REMARK    1  A    between atoms: C_1  and  O_2
REMARK    2  A    between atoms: O_2  and  C_3
REMARK    3  A    between atoms: C_5  and  C_6
REMARK    4  A    between atoms: C_7  and  C_8
REMARK    5  A    between atoms: N_13  and  C_14
REMARK    6  A    between atoms: C_14  and  C_15
REMARK    7  A    between atoms: C_15  and  O_17
REMARK    8  A    between atoms: C_21  and  O_22
REMARK    9  A    between atoms: O_22  and  C_23
REMARK   10  A    between atoms: C_24  and  O_25
REMARK   11  A    between atoms: O_25  and  C_26
REMARK                            x       y       z     vdW  Elec       q    Type
REMARK                         _______ _______ _______ _____ _____    ______ ____
ROOT
ATOM      1  C   UNL     1       1.667   7.746  20.863  0.00  0.00    +0.000 C 
ATOM      2  C   UNL     1       1.741   6.766  19.948  0.00  0.00    +0.000 C 
ENDROOT
BRANCH   2   3
ATOM      3  C   UNL     1       2.532   5.546  20.232  0.00  0.00    +0.000 C 
ATOM      4  O   UNL     1       2.209   4.804  21.155  0.00  0.00    +0.000 OA
ATOM      5  N   UNL     1       3.570   5.281  19.361  0.00  0.00    +0.000 N 
ATOM      6  C   UNL     1       4.277   4.004  19.442  0.00  0.00    +0.000 C 
ATOM      7  C   UNL     1       4.459   3.385  18.034  0.00  0.00    +0.000 C 
ATOM      8  N   UNL     1       5.046   4.291  17.000  0.00  0.00    +0.000 NA
ATOM      9  C   UNL     1       4.290   5.578  17.029  0.00  0.00    +0.000 C 
ATOM     10  C   UNL     1       4.148   6.232  18.412  0.00  0.00    +0.000 C 
BRANCH   8  11
ATOM     11  C   UNL     1       6.499   4.478  17.279  0.00  0.00    +0.000 C 
BRANCH  11  12
ATOM     12  C   UNL     1       7.188   5.236  16.148  0.00  0.00    +0.000 C 
ATOM     13  O   UNL     1       7.404   4.773  15.039  0.00  0.00    +0.000 OA
BRANCH  12  14
ATOM     14  O   UNL     1       7.504   6.510  16.495  0.00  0.00    +0.000 OA
ATOM     15  H   UNL     1       8.412   6.498  16.875  0.00  0.00    +0.000 HD
ENDBRANCH  12  14
ENDBRANCH  11  12
ENDBRANCH   8  11
ENDBRANCH   2   3
BRANCH   1  18
ATOM     16  C   UNL     1      -0.211  10.934  21.720  0.00  0.00    +0.000 A 
ATOM     17  C   UNL     1       0.438   9.693  21.855  0.00  0.00    +0.000 A 
ATOM     18  C   UNL     1       0.809   8.935  20.744  0.00  0.00    +0.000 A 
ATOM     19  C   UNL     1       0.453   9.405  19.481  0.00  0.00    +0.000 A 
ATOM     20  C   UNL     1      -0.252  10.610  19.323  0.00  0.00    +0.000 A 
ATOM     21  C   UNL     1      -0.607  11.389  20.448  0.00  0.00    +0.000 A 
BRANCH  16  23
ATOM     22  C   UNL     1      -1.790  11.555  23.372  0.00  0.00    +0.000 C 
ATOM     23  O   UNL     1      -0.474  11.695  22.833  0.00  0.00    +0.000 OA
ENDBRANCH  16  23
BRANCH  20  24
ATOM     24  O   UNL     1      -0.549  10.874  18.006  0.00  0.00    +0.000 OA
ATOM     25  C   UNL     1      -1.596  10.115  17.414  0.00  0.00    +0.000 C 
ENDBRANCH  20  24
BRANCH  21  26
ATOM     26  O   UNL     1      -1.324  12.520  20.172  0.00  0.00    +0.000 OA
ATOM     27  C   UNL     1      -2.738  12.487  20.079  0.00  0.00    +0.000 C 
ENDBRANCH  21  26
ENDBRANCH   1  18
TORSDOF 8
ENDMDL
MODEL 9
REMARK VINA RESULT:      -6.6      2.271      4.159
REMARK  Name = 
REMARK  11 active torsions:
REMARK  status: ('A' for Active; 'I' for Inactive)
REMARK    1  A    between atoms: C_1  and  O_2
REMARK    2  A    between atoms: O_2  and  C_3
REMARK    3  A    between atoms: C_5  and  C_6
REMARK    4  A    between atoms: C_7  and  C_8
REMARK    5  A    between atoms: N_13  and  C_14
REMARK    6  A    between atoms: C_14  and  C_15
REMARK    7  A    between atoms: C_15  and  O_17
REMARK    8  A    between atoms: C_21  and  O_22
REMARK    9  A    between atoms: O_22  and  C_23
REMARK   10  A    between atoms: C_24  and  O_25
REMARK   11  A    between atoms: O_25  and  C_26
REMARK                            x       y       z     vdW  Elec       q    Type
REMARK                         _______ _______ _______ _____ _____    ______ ____
ROOT
ATOM      1  C   UNL     1       1.765   8.036  20.961  0.00  0.00    +0.000 C 
ATOM      2  C   UNL     1       0.544   8.457  21.326  0.00  0.00    +0.000 C 
ENDROOT
BRANCH   2   3
ATOM      3  C   UNL     1       0.361   9.828  21.858  0.00  0.00    +0.000 C 
ATOM      4  O   UNL     1       0.394  10.028  23.068  0.00  0.00    +0.000 OA
ATOM      5  N   UNL     1       0.235  10.830  20.918  0.00  0.00    +0.000 N 
ATOM      6  C   UNL     1       0.249  12.230  21.342  0.00  0.00    +0.000 C 
ATOM      7  C   UNL     1       1.181  13.070  20.434  0.00  0.00    +0.000 C 
ATOM      8  N   UNL     1       0.952  12.928  18.964  0.00  0.00    +0.000 NA
ATOM      9  C   UNL     1       0.906  11.472  18.640  0.00  0.00    +0.000 C 
ATOM     10  C   UNL     1      -0.055  10.633  19.497  0.00  0.00    +0.000 C 
BRANCH   8  11
ATOM     11  C   UNL     1      -0.308  13.634  18.592  0.00  0.00    +0.000 C 
BRANCH  11  12
ATOM     12  C   UNL     1      -0.211  15.130  18.880  0.00  0.00    +0.000 C 
ATOM     13  O   UNL     1       0.734  15.834  18.560  0.00  0.00    +0.000 OA
BRANCH  12  14
ATOM     14  O   UNL     1      -1.319  15.610  19.501  0.00  0.00    +0.000 OA
ATOM     15  H   UNL     1      -2.083  15.061  19.211  0.00  0.00    +0.000 HD
ENDBRANCH  12  14
ENDBRANCH  11  12
ENDBRANCH   8  11
ENDBRANCH   2   3
BRANCH   1  18
ATOM     16  C   UNL     1       1.574   4.367  19.997  0.00  0.00    +0.000 A 
ATOM     17  C   UNL     1       1.472   5.556  20.743  0.00  0.00    +0.000 A 
ATOM     18  C   UNL     1       2.041   6.751  20.300  0.00  0.00    +0.000 A 
ATOM     19  C   UNL     1       2.785   6.726  19.123  0.00  0.00    +0.000 A 
ATOM     20  C   UNL     1       2.956   5.537  18.392  0.00  0.00    +0.000 A 
ATOM     21  C   UNL     1       2.360   4.333  18.829  0.00  0.00    +0.000 A 
BRANCH  16  23
ATOM     22  C   UNL     1       1.496   2.583  21.552  0.00  0.00    +0.000 C 
ATOM     23  O   UNL     1       0.920   3.235  20.418  0.00  0.00    +0.000 OA
ENDBRANCH  16  23
BRANCH  20  24
ATOM     24  O   UNL     1       3.761   5.711  17.290  0.00  0.00    +0.000 OA
ATOM     25  C   UNL     1       4.324   7.003  17.098  0.00  0.00    +0.000 C 
ENDBRANCH  20  24
BRANCH  21  26
ATOM     26  O   UNL     1       2.629   3.235  18.059  0.00  0.00    +0.000 OA
ATOM     27  C   UNL     1       3.599   2.281  18.455  0.00  0.00    +0.000 C 
ENDBRANCH  21  26
ENDBRANCH   1  18
TORSDOF 8
ENDMDL
