MODEL 1
REMARK VINA RESULT:      -8.6      0.000      0.000
REMARK  Name = 
REMARK  7 active torsions:
REMARK  status: ('A' for Active; 'I' for Inactive)
REMARK    1  A    between atoms: C_1  and  N_2
REMARK    2  A    between atoms: C_3  and  C_4
REMARK    3  A    between atoms: N_6  and  C_7
REMARK    4  A    between atoms: C_7  and  C_8
REMARK    5  A    between atoms: C_8  and  C_9
REMARK    6  A    between atoms: C_9  and  N_10
REMARK    7  A    between atoms: N_24  and  C_25
REMARK                            x       y       z     vdW  Elec       q    Type
REMARK                         _______ _______ _______ _____ _____    ______ ____
ROOT
ATOM      1  C   UNL     1       1.274  10.351  18.655  0.00  0.00    +0.000 C 
ATOM      2  O   UNL     1       1.887  11.402  18.884  0.00  0.00    +0.000 OA
ATOM      3  N   UNL     1      -0.102  10.424  18.402  0.00  0.00    +0.000 N 
ATOM      4  H   UNL     1      -0.600   9.582  18.153  0.00  0.00    +0.000 HD
ENDROOT
BRANCH   1   7
ATOM      5  C   UNL     1       0.916   8.069  20.769  0.00  0.00    +0.000 C 
ATOM      6  N   UNL     1       1.739   7.992  19.577  0.00  0.00    +0.000 N 
ATOM      7  C   UNL     1       1.918   9.032  18.639  0.00  0.00    +0.000 A 
ATOM      8  C   UNL     1       2.832   8.526  17.715  0.00  0.00    +0.000 A 
ATOM      9  C   UNL     1       3.147   7.185  18.056  0.00  0.00    +0.000 A 
ATOM     10  C   UNL     1       4.017   6.245  17.360  0.00  0.00    +0.000 A 
ATOM     11  O   UNL     1       4.608   6.596  16.337  0.00  0.00    +0.000 OA
ATOM     12  N   UNL     1       4.120   4.965  17.913  0.00  0.00    +0.000 N 
ATOM     13  C   UNL     1       4.967   3.996  17.234  0.00  0.00    +0.000 C 
ATOM     14  C   UNL     1       3.429   4.576  19.124  0.00  0.00    +0.000 A 
ATOM     15  C   UNL     1       3.584   3.273  19.640  0.00  0.00    +0.000 A 
ATOM     16  C   UNL     1       2.930   2.870  20.805  0.00  0.00    +0.000 A 
ATOM     17  C   UNL     1       2.121   3.781  21.474  0.00  0.00    +0.000 A 
ATOM     18  C   UNL     1       1.955   5.077  20.982  0.00  0.00    +0.000 A 
ATOM     19  C   UNL     1       2.589   5.504  19.811  0.00  0.00    +0.000 A 
ATOM     20  C   UNL     1       2.466   6.857  19.210  0.00  0.00    +0.000 A 
ENDBRANCH   1   7
BRANCH   3  21
ATOM     21  C   UNL     1      -0.785  11.716  18.391  0.00  0.00    +0.000 C 
BRANCH  21  22
ATOM     22  C   UNL     1      -1.972  11.854  19.367  0.00  0.00    +0.000 C 
BRANCH  22  23
ATOM     23  C   UNL     1      -1.488  12.023  20.836  0.00  0.00    +0.000 C 
BRANCH  23  24
ATOM     24  N   UNL     1      -2.438  12.727  21.717  0.00  0.00    +0.000 NA
ATOM     25  C   UNL     1      -2.744  11.986  22.957  0.00  0.00    +0.000 C 
ATOM     26  C   UNL     1      -3.611  12.872  23.897  0.00  0.00    +0.000 C 
ATOM     27  C   UNL     1      -4.940  13.107  23.217  0.00  0.00    +0.000 A 
ATOM     28  C   UNL     1      -6.125  13.211  23.947  0.00  0.00    +0.000 A 
ATOM     29  C   UNL     1      -7.302  12.756  23.364  0.00  0.00    +0.000 A 
ATOM     30  C   UNL     1      -7.271  12.220  22.074  0.00  0.00    +0.000 A 
ATOM     31  C   UNL     1      -6.119  12.335  21.286  0.00  0.00    +0.000 A 
ATOM     32  C   UNL     1      -4.959  12.879  21.833  0.00  0.00    +0.000 A 
ATOM     33  C   UNL     1      -3.687  13.145  21.042  0.00  0.00    +0.000 C 
ENDBRANCH  23  24
ENDBRANCH  22  23
ENDBRANCH  21  22
ENDBRANCH   3  21
TORSDOF 5
ENDMDL
MODEL 2
REMARK VINA RESULT:      -8.5      2.640      9.377
REMARK  Name = 
REMARK  7 active torsions:
REMARK  status: ('A' for Active; 'I' for Inactive)
REMARK    1  A    between atoms: C_1  and  N_2
REMARK    2  A    between atoms: C_3  and  C_4
REMARK    3  A    between atoms: N_6  and  C_7
REMARK    4  A    between atoms: C_7  and  C_8
REMARK    5  A    between atoms: C_8  and  C_9
REMARK    6  A    between atoms: C_9  and  N_10
REMARK    7  A    between atoms: N_24  and  C_25
REMARK                            x       y       z     vdW  Elec       q    Type
REMARK                         _______ _______ _______ _____ _____    ______ ____
ROOT
ATOM      1  C   UNL     1       2.703   7.730  17.965  0.00  0.00    +0.000 C 
ATOM      2  O   UNL     1       2.190   6.605  17.906  0.00  0.00    +0.000 OA
ATOM      3  N   UNL     1       4.005   7.896  17.476  0.00  0.00    +0.000 N 
ATOM      4  H   UNL     1       4.411   8.820  17.462  0.00  0.00    +0.000 HD
ENDROOT
BRANCH   1   7
ATOM      5  C   UNL     1       1.017   7.819  20.602  0.00  0.00    +0.000 C 
ATOM      6  N   UNL     1       1.275   8.947  19.729  0.00  0.00    +0.000 N 
ATOM      7  C   UNL     1       2.015   8.899  18.527  0.00  0.00    +0.000 A 
ATOM      8  C   UNL     1       1.938  10.191  18.007  0.00  0.00    +0.000 A 
ATOM      9  C   UNL     1       1.221  11.016  18.912  0.00  0.00    +0.000 A 
ATOM     10  C   UNL     1       0.930  12.441  18.815  0.00  0.00    +0.000 A 
ATOM     11  O   UNL     1       1.312  13.081  17.834  0.00  0.00    +0.000 OA
ATOM     12  N   UNL     1       0.219  13.005  19.879  0.00  0.00    +0.000 N 
ATOM     13  C   UNL     1      -0.073  14.430  19.824  0.00  0.00    +0.000 C 
ATOM     14  C   UNL     1      -0.234  12.233  21.017  0.00  0.00    +0.000 A 
ATOM     15  C   UNL     1      -0.957  12.858  22.054  0.00  0.00    +0.000 A 
ATOM     16  C   UNL     1      -1.406  12.139  23.162  0.00  0.00    +0.000 A 
ATOM     17  C   UNL     1      -1.143  10.776  23.234  0.00  0.00    +0.000 A 
ATOM     18  C   UNL     1      -0.431  10.137  22.217  0.00  0.00    +0.000 A 
ATOM     19  C   UNL     1       0.041  10.835  21.101  0.00  0.00    +0.000 A 
ATOM     20  C   UNL     1       0.812  10.242  19.978  0.00  0.00    +0.000 A 
ENDBRANCH   1   7
BRANCH   3  21
ATOM     21  C   UNL     1       4.726   6.766  16.892  0.00  0.00    +0.000 C 
BRANCH  21  22
ATOM     22  C   UNL     1       5.838   6.155  17.770  0.00  0.00    +0.000 C 
BRANCH  22  23
ATOM     23  C   UNL     1       6.173   4.698  17.337  0.00  0.00    +0.000 C 
BRANCH  23  24
ATOM     24  N   UNL     1       5.291   3.669  17.918  0.00  0.00    +0.000 NA
ATOM     25  C   UNL     1       4.073   3.424  17.119  0.00  0.00    +0.000 C 
ATOM     26  C   UNL     1       3.295   2.213  17.708  0.00  0.00    +0.000 C 
ATOM     27  C   UNL     1       2.814   2.597  19.087  0.00  0.00    +0.000 A 
ATOM     28  C   UNL     1       1.598   2.133  19.592  0.00  0.00    +0.000 A 
ATOM     29  C   UNL     1       0.886   2.955  20.458  0.00  0.00    +0.000 A 
ATOM     30  C   UNL     1       1.403   4.206  20.804  0.00  0.00    +0.000 A 
ATOM     31  C   UNL     1       2.718   4.548  20.466  0.00  0.00    +0.000 A 
ATOM     32  C   UNL     1       3.475   3.685  19.676  0.00  0.00    +0.000 A 
ATOM     33  C   UNL     1       4.941   3.907  19.336  0.00  0.00    +0.000 C 
ENDBRANCH  23  24
ENDBRANCH  22  23
ENDBRANCH  21  22
ENDBRANCH   3  21
TORSDOF 5
ENDMDL
MODEL 3
REMARK VINA RESULT:      -8.5      2.514      4.238
REMARK  Name = 
REMARK  7 active torsions:
REMARK  status: ('A' for Active; 'I' for Inactive)
REMARK    1  A    between atoms: C_1  and  N_2
REMARK    2  A    between atoms: C_3  and  C_4
REMARK    3  A    between atoms: N_6  and  C_7
REMARK    4  A    between atoms: C_7  and  C_8
REMARK    5  A    between atoms: C_8  and  C_9
REMARK    6  A    between atoms: C_9  and  N_10
REMARK    7  A    between atoms: N_24  and  C_25
REMARK                            x       y       z     vdW  Elec       q    Type
REMARK                         _______ _______ _______ _____ _____    ______ ____
ROOT
ATOM      1  C   UNL     1       0.562   9.259  20.642  0.00  0.00    +0.000 C 
ATOM      2  O   UNL     1      -0.666   9.348  20.507  0.00  0.00    +0.000 OA
ATOM      3  N   UNL     1       1.244  10.320  21.251  0.00  0.00    +0.000 N 
ATOM      4  H   UNL     1       2.235  10.232  21.422  0.00  0.00    +0.000 HD
ENDROOT
BRANCH   1   7
ATOM      5  C   UNL     1       2.293   9.065  18.040  0.00  0.00    +0.000 C 
ATOM      6  N   UNL     1       2.140   8.017  19.030  0.00  0.00    +0.000 N 
ATOM      7  C   UNL     1       1.338   8.098  20.189  0.00  0.00    +0.000 A 
ATOM      8  C   UNL     1       1.450   6.845  20.790  0.00  0.00    +0.000 A 
ATOM      9  C   UNL     1       2.353   6.047  20.040  0.00  0.00    +0.000 A 
ATOM     10  C   UNL     1       2.813   4.690  20.308  0.00  0.00    +0.000 A 
ATOM     11  O   UNL     1       2.390   4.080  21.293  0.00  0.00    +0.000 OA
ATOM     12  N   UNL     1       3.736   4.155  19.405  0.00  0.00    +0.000 N 
ATOM     13  C   UNL     1       4.230   2.809  19.652  0.00  0.00    +0.000 C 
ATOM     14  C   UNL     1       4.210   4.882  18.245  0.00  0.00    +0.000 A 
ATOM     15  C   UNL     1       5.133   4.283  17.364  0.00  0.00    +0.000 A 
ATOM     16  C   UNL     1       5.606   4.959  16.238  0.00  0.00    +0.000 A 
ATOM     17  C   UNL     1       5.144   6.244  15.979  0.00  0.00    +0.000 A 
ATOM     18  C   UNL     1       4.228   6.854  16.838  0.00  0.00    +0.000 A 
ATOM     19  C   UNL     1       3.746   6.205  17.979  0.00  0.00    +0.000 A 
ATOM     20  C   UNL     1       2.779   6.777  18.951  0.00  0.00    +0.000 A 
ENDBRANCH   1   7
BRANCH   3  21
ATOM     21  C   UNL     1       0.513  11.490  21.733  0.00  0.00    +0.000 C 
BRANCH  21  22
ATOM     22  C   UNL     1       0.715  12.787  20.921  0.00  0.00    +0.000 C 
BRANCH  22  23
ATOM     23  C   UNL     1      -0.517  13.731  21.035  0.00  0.00    +0.000 C 
BRANCH  23  24
ATOM     24  N   UNL     1      -1.598  13.445  20.073  0.00  0.00    +0.000 NA
ATOM     25  C   UNL     1      -2.628  12.531  20.606  0.00  0.00    +0.000 C 
ATOM     26  C   UNL     1      -3.807  12.424  19.596  0.00  0.00    +0.000 C 
ATOM     27  C   UNL     1      -3.283  11.769  18.339  0.00  0.00    +0.000 A 
ATOM     28  C   UNL     1      -4.081  10.919  17.572  0.00  0.00    +0.000 A 
ATOM     29  C   UNL     1      -3.469   9.866  16.902  0.00  0.00    +0.000 A 
ATOM     30  C   UNL     1      -2.086   9.693  17.004  0.00  0.00    +0.000 A 
ATOM     31  C   UNL     1      -1.290  10.684  17.590  0.00  0.00    +0.000 A 
ATOM     32  C   UNL     1      -1.889  11.793  18.182  0.00  0.00    +0.000 A 
ATOM     33  C   UNL     1      -1.120  12.974  18.754  0.00  0.00    +0.000 C 
ENDBRANCH  23  24
ENDBRANCH  22  23
ENDBRANCH  21  22
ENDBRANCH   3  21
TORSDOF 5
ENDMDL
MODEL 4
REMARK VINA RESULT:      -8.4      1.486      2.117
REMARK  Name = 
REMARK  7 active torsions:
REMARK  status: ('A' for Active; 'I' for Inactive)
REMARK    1  A    between atoms: C_1  and  N_2
REMARK    2  A    between atoms: C_3  and  C_4
REMARK    3  A    between atoms: N_6  and  C_7
REMARK    4  A    between atoms: C_7  and  C_8
REMARK    5  A    between atoms: C_8  and  C_9
REMARK    6  A    between atoms: C_9  and  N_10
REMARK    7  A    between atoms: N_24  and  C_25
REMARK                            x       y       z     vdW  Elec       q    Type
REMARK                         _______ _______ _______ _____ _____    ______ ____
ROOT
ATOM      1  C   UNL     1       1.162  10.128  18.401  0.00  0.00    +0.000 C 
ATOM      2  O   UNL     1      -0.072  10.223  18.402  0.00  0.00    +0.000 OA
ATOM      3  N   UNL     1       1.921  11.303  18.332  0.00  0.00    +0.000 N 
ATOM      4  H   UNL     1       2.927  11.242  18.393  0.00  0.00    +0.000 HD
ENDROOT
BRANCH   1   7
ATOM      5  C   UNL     1       0.866   7.934  20.616  0.00  0.00    +0.000 C 
ATOM      6  N   UNL     1       1.719   7.842  19.448  0.00  0.00    +0.000 N 
ATOM      7  C   UNL     1       1.870   8.843  18.463  0.00  0.00    +0.000 A 
ATOM      8  C   UNL     1       2.829   8.340  17.585  0.00  0.00    +0.000 A 
ATOM      9  C   UNL     1       3.200   7.034  17.998  0.00  0.00    +0.000 A 
ATOM     10  C   UNL     1       4.131   6.106  17.368  0.00  0.00    +0.000 A 
ATOM     11  O   UNL     1       4.729   6.436  16.342  0.00  0.00    +0.000 OA
ATOM     12  N   UNL     1       4.283   4.860  17.985  0.00  0.00    +0.000 N 
ATOM     13  C   UNL     1       5.191   3.902  17.372  0.00  0.00    +0.000 C 
ATOM     14  C   UNL     1       3.583   4.496  19.199  0.00  0.00    +0.000 A 
ATOM     15  C   UNL     1       3.788   3.228  19.781  0.00  0.00    +0.000 A 
ATOM     16  C   UNL     1       3.127   2.849  20.950  0.00  0.00    +0.000 A 
ATOM     17  C   UNL     1       2.259   3.750  21.556  0.00  0.00    +0.000 A 
ATOM     18  C   UNL     1       2.043   5.011  20.998  0.00  0.00    +0.000 A 
ATOM     19  C   UNL     1       2.683   5.412  19.821  0.00  0.00    +0.000 A 
ATOM     20  C   UNL     1       2.509   6.728  19.152  0.00  0.00    +0.000 A 
ENDBRANCH   1   7
BRANCH   3  21
ATOM     21  C   UNL     1       1.263  12.607  18.285  0.00  0.00    +0.000 C 
BRANCH  21  22
ATOM     22  C   UNL     1       1.206  13.377  19.621  0.00  0.00    +0.000 C 
BRANCH  22  23
ATOM     23  C   UNL     1       1.601  12.469  20.822  0.00  0.00    +0.000 C 
BRANCH  23  24
ATOM     24  N   UNL     1       0.593  12.403  21.896  0.00  0.00    +0.000 NA
ATOM     25  C   UNL     1      -0.282  11.217  21.804  0.00  0.00    +0.000 C 
ATOM     26  C   UNL     1      -1.193  11.138  23.063  0.00  0.00    +0.000 C 
ATOM     27  C   UNL     1      -2.115  12.335  23.044  0.00  0.00    +0.000 A 
ATOM     28  C   UNL     1      -3.421  12.258  23.529  0.00  0.00    +0.000 A 
ATOM     29  C   UNL     1      -4.396  13.046  22.929  0.00  0.00    +0.000 A 
ATOM     30  C   UNL     1      -4.046  13.892  21.873  0.00  0.00    +0.000 A 
ATOM     31  C   UNL     1      -2.699  14.115  21.560  0.00  0.00    +0.000 A 
ATOM     32  C   UNL     1      -1.708  13.398  22.225  0.00  0.00    +0.000 A 
ATOM     33  C   UNL     1      -0.216  13.634  22.039  0.00  0.00    +0.000 C 
ENDBRANCH  23  24
ENDBRANCH  22  23
ENDBRANCH  21  22
ENDBRANCH   3  21
TORSDOF 5
ENDMDL
MODEL 5
REMARK VINA RESULT:      -8.4      1.689      2.861
REMARK  Name = 
REMARK  7 active torsions:
REMARK  status: ('A' for Active; 'I' for Inactive)
REMARK    1  A    between atoms: C_1  and  N_2
REMARK    2  A    between atoms: C_3  and  C_4
REMARK    3  A    between atoms: N_6  and  C_7
REMARK    4  A    between atoms: C_7  and  C_8
REMARK    5  A    between atoms: C_8  and  C_9
REMARK    6  A    between atoms: C_9  and  N_10
REMARK    7  A    between atoms: N_24  and  C_25
REMARK                            x       y       z     vdW  Elec       q    Type
REMARK                         _______ _______ _______ _____ _____    ______ ____
ROOT
ATOM      1  C   UNL     1       0.832   9.697  20.218  0.00  0.00    +0.000 C 
ATOM      2  O   UNL     1       1.258  10.785  19.807  0.00  0.00    +0.000 OA
ATOM      3  N   UNL     1      -0.322   9.690  21.011  0.00  0.00    +0.000 N 
ATOM      4  H   UNL     1      -0.713   8.805  21.300  0.00  0.00    +0.000 HD
ENDROOT
BRANCH   1   7
ATOM      5  C   UNL     1       2.559   9.020  17.695  0.00  0.00    +0.000 C 
ATOM      6  N   UNL     1       2.281   8.115  18.793  0.00  0.00    +0.000 N 
ATOM      7  C   UNL     1       1.481   8.415  19.917  0.00  0.00    +0.000 A 
ATOM      8  C   UNL     1       1.448   7.234  20.658  0.00  0.00    +0.000 A 
ATOM      9  C   UNL     1       2.266   6.262  20.024  0.00  0.00    +0.000 A 
ATOM     10  C   UNL     1       2.571   4.904  20.454  0.00  0.00    +0.000 A 
ATOM     11  O   UNL     1       2.074   4.460  21.491  0.00  0.00    +0.000 OA
ATOM     12  N   UNL     1       3.439   4.172  19.638  0.00  0.00    +0.000 N 
ATOM     13  C   UNL     1       3.779   2.817  20.046  0.00  0.00    +0.000 C 
ATOM     14  C   UNL     1       4.002   4.706  18.415  0.00  0.00    +0.000 A 
ATOM     15  C   UNL     1       4.863   3.913  17.628  0.00  0.00    +0.000 A 
ATOM     16  C   UNL     1       5.419   4.401  16.444  0.00  0.00    +0.000 A 
ATOM     17  C   UNL     1       5.104   5.690  16.031  0.00  0.00    +0.000 A 
ATOM     18  C   UNL     1       4.252   6.490  16.795  0.00  0.00    +0.000 A 
ATOM     19  C   UNL     1       3.690   6.031  17.990  0.00  0.00    +0.000 A 
ATOM     20  C   UNL     1       2.781   6.813  18.869  0.00  0.00    +0.000 A 
ENDBRANCH   1   7
BRANCH   3  21
ATOM     21  C   UNL     1      -1.013  10.939  21.324  0.00  0.00    +0.000 C 
BRANCH  21  22
ATOM     22  C   UNL     1      -1.218  11.233  22.825  0.00  0.00    +0.000 C 
BRANCH  22  23
ATOM     23  C   UNL     1      -1.428  12.753  23.087  0.00  0.00    +0.000 C 
BRANCH  23  24
ATOM     24  N   UNL     1      -2.825  13.141  23.352  0.00  0.00    +0.000 NA
ATOM     25  C   UNL     1      -3.578  12.126  24.117  0.00  0.00    +0.000 C 
ATOM     26  C   UNL     1      -4.978  12.688  24.497  0.00  0.00    +0.000 C 
ATOM     27  C   UNL     1      -5.755  12.903  23.219  0.00  0.00    +0.000 A 
ATOM     28  C   UNL     1      -7.136  12.713  23.163  0.00  0.00    +0.000 A 
ATOM     29  C   UNL     1      -7.693  12.256  21.975  0.00  0.00    +0.000 A 
ATOM     30  C   UNL     1      -6.866  12.009  20.875  0.00  0.00    +0.000 A 
ATOM     31  C   UNL     1      -5.527  12.420  20.889  0.00  0.00    +0.000 A 
ATOM     32  C   UNL     1      -4.985  12.969  22.048  0.00  0.00    +0.000 A 
ATOM     33  C   UNL     1      -3.578  13.542  22.143  0.00  0.00    +0.000 C 
ENDBRANCH  23  24
ENDBRANCH  22  23
ENDBRANCH  21  22
ENDBRANCH   3  21
TORSDOF 5
ENDMDL
MODEL 6
REMARK VINA RESULT:      -8.3      3.205      5.971
REMARK  Name = 
REMARK  7 active torsions:
REMARK  status: ('A' for Active; 'I' for Inactive)
REMARK    1  A    between atoms: C_1  and  N_2
REMARK    2  A    between atoms: C_3  and  C_4
REMARK    3  A    between atoms: N_6  and  C_7
REMARK    4  A    between atoms: C_7  and  C_8
REMARK    5  A    between atoms: C_8  and  C_9
REMARK    6  A    between atoms: C_9  and  N_10
REMARK    7  A    between atoms: N_24  and  C_25
REMARK                            x       y       z     vdW  Elec       q    Type
REMARK                         _______ _______ _______ _____ _____    ______ ____
ROOT
ATOM      1  C   UNL     1       0.808   9.387  20.823  0.00  0.00    +0.000 C 
ATOM      2  O   UNL     1       1.230  10.055  21.776  0.00  0.00    +0.000 OA
ATOM      3  N   UNL     1      -0.368   9.803  20.186  0.00  0.00    +0.000 N 
ATOM      4  H   UNL     1      -0.687   9.303  19.369  0.00  0.00    +0.000 HD
ENDROOT
BRANCH   1   7
ATOM      5  C   UNL     1       2.475   9.113  18.186  0.00  0.00    +0.000 C 
ATOM      6  N   UNL     1       2.251   8.058  19.154  0.00  0.00    +0.000 N 
ATOM      7  C   UNL     1       1.478   8.177  20.330  0.00  0.00    +0.000 A 
ATOM      8  C   UNL     1       1.496   6.905  20.900  0.00  0.00    +0.000 A 
ATOM      9  C   UNL     1       2.317   6.053  20.116  0.00  0.00    +0.000 A 
ATOM     10  C   UNL     1       2.667   4.657  20.345  0.00  0.00    +0.000 A 
ATOM     11  O   UNL     1       2.212   4.061  21.324  0.00  0.00    +0.000 OA
ATOM     12  N   UNL     1       3.528   4.070  19.413  0.00  0.00    +0.000 N 
ATOM     13  C   UNL     1       3.913   2.682  19.620  0.00  0.00    +0.000 C 
ATOM     14  C   UNL     1       4.041   4.782  18.262  0.00  0.00    +0.000 A 
ATOM     15  C   UNL     1       4.897   4.131  17.350  0.00  0.00    +0.000 A 
ATOM     16  C   UNL     1       5.406   4.792  16.232  0.00  0.00    +0.000 A 
ATOM     17  C   UNL     1       5.048   6.117  16.010  0.00  0.00    +0.000 A 
ATOM     18  C   UNL     1       4.200   6.780  16.899  0.00  0.00    +0.000 A 
ATOM     19  C   UNL     1       3.685   6.145  18.034  0.00  0.00    +0.000 A 
ATOM     20  C   UNL     1       2.785   6.772  19.036  0.00  0.00    +0.000 A 
ENDBRANCH   1   7
BRANCH   3  21
ATOM     21  C   UNL     1      -1.062  11.011  20.629  0.00  0.00    +0.000 C 
BRANCH  21  22
ATOM     22  C   UNL     1      -1.422  12.021  19.520  0.00  0.00    +0.000 C 
BRANCH  22  23
ATOM     23  C   UNL     1      -0.747  13.402  19.763  0.00  0.00    +0.000 C 
BRANCH  23  24
ATOM     24  N   UNL     1       0.387  13.695  18.867  0.00  0.00    +0.000 NA
ATOM     25  C   UNL     1       1.605  12.928  19.197  0.00  0.00    +0.000 C 
ATOM     26  C   UNL     1       2.688  13.169  18.106  0.00  0.00    +0.000 C 
ATOM     27  C   UNL     1       3.088  14.624  18.163  0.00  0.00    +0.000 A 
ATOM     28  C   UNL     1       4.395  15.033  17.895  0.00  0.00    +0.000 A 
ATOM     29  C   UNL     1       4.892  16.143  18.569  0.00  0.00    +0.000 A 
ATOM     30  C   UNL     1       4.075  16.820  19.480  0.00  0.00    +0.000 A 
ATOM     31  C   UNL     1       2.709  16.527  19.559  0.00  0.00    +0.000 A 
ATOM     32  C   UNL     1       2.182  15.475  18.814  0.00  0.00    +0.000 A 
ATOM     33  C   UNL     1       0.701  15.137  18.746  0.00  0.00    +0.000 C 
ENDBRANCH  23  24
ENDBRANCH  22  23
ENDBRANCH  21  22
ENDBRANCH   3  21
TORSDOF 5
ENDMDL
MODEL 7
REMARK VINA RESULT:      -8.3      2.205     10.472
REMARK  Name = 
REMARK  7 active torsions:
REMARK  status: ('A' for Active; 'I' for Inactive)
REMARK    1  A    between atoms: C_1  and  N_2
REMARK    2  A    between atoms: C_3  and  C_4
REMARK    3  A    between atoms: N_6  and  C_7
REMARK    4  A    between atoms: C_7  and  C_8
REMARK    5  A    between atoms: C_8  and  C_9
REMARK    6  A    between atoms: C_9  and  N_10
REMARK    7  A    between atoms: N_24  and  C_25
REMARK                            x       y       z     vdW  Elec       q    Type
REMARK                         _______ _______ _______ _____ _____    ______ ____
ROOT
ATOM      1  C   UNL     1       0.211  10.947  18.681  0.00  0.00    +0.000 C 
ATOM      2  O   UNL     1       1.097  11.586  19.263  0.00  0.00    +0.000 OA
ATOM      3  N   UNL     1       0.586   9.839  17.911  0.00  0.00    +0.000 N 
ATOM      4  H   UNL     1      -0.132   9.274  17.481  0.00  0.00    +0.000 HD
ENDROOT
BRANCH   1   7
ATOM      5  C   UNL     1      -1.288  12.185  21.135  0.00  0.00    +0.000 C 
ATOM      6  N   UNL     1      -1.886  11.878  19.851  0.00  0.00    +0.000 N 
ATOM      7  C   UNL     1      -1.214  11.297  18.754  0.00  0.00    +0.000 A 
ATOM      8  C   UNL     1      -2.196  11.132  17.778  0.00  0.00    +0.000 A 
ATOM      9  C   UNL     1      -3.422  11.664  18.256  0.00  0.00    +0.000 A 
ATOM     10  C   UNL     1      -4.706  11.755  17.573  0.00  0.00    +0.000 A 
ATOM     11  O   UNL     1      -4.827  11.316  16.428  0.00  0.00    +0.000 OA
ATOM     12  N   UNL     1      -5.748  12.360  18.284  0.00  0.00    +0.000 N 
ATOM     13  C   UNL     1      -7.040  12.484  17.626  0.00  0.00    +0.000 C 
ATOM     14  C   UNL     1      -5.590  12.857  19.635  0.00  0.00    +0.000 A 
ATOM     15  C   UNL     1      -6.683  13.447  20.303  0.00  0.00    +0.000 A 
ATOM     16  C   UNL     1      -6.561  13.934  21.605  0.00  0.00    +0.000 A 
ATOM     17  C   UNL     1      -5.338  13.821  22.256  0.00  0.00    +0.000 A 
ATOM     18  C   UNL     1      -4.244  13.239  21.613  0.00  0.00    +0.000 A 
ATOM     19  C   UNL     1      -4.335  12.753  20.305  0.00  0.00    +0.000 A 
ATOM     20  C   UNL     1      -3.225  12.127  19.541  0.00  0.00    +0.000 A 
ENDBRANCH   1   7
BRANCH   3  21
ATOM     21  C   UNL     1       1.989   9.441  17.820  0.00  0.00    +0.000 C 
BRANCH  21  22
ATOM     22  C   UNL     1       2.255   7.921  17.813  0.00  0.00    +0.000 C 
BRANCH  22  23
ATOM     23  C   UNL     1       3.779   7.607  17.843  0.00  0.00    +0.000 C 
BRANCH  23  24
ATOM     24  N   UNL     1       4.110   6.212  18.190  0.00  0.00    +0.000 NA
ATOM     25  C   UNL     1       4.170   5.317  17.017  0.00  0.00    +0.000 C 
ATOM     26  C   UNL     1       4.690   3.917  17.452  0.00  0.00    +0.000 C 
ATOM     27  C   UNL     1       3.666   3.311  18.383  0.00  0.00    +0.000 A 
ATOM     28  C   UNL     1       3.422   1.937  18.405  0.00  0.00    +0.000 A 
ATOM     29  C   UNL     1       2.135   1.499  18.694  0.00  0.00    +0.000 A 
ATOM     30  C   UNL     1       1.132   2.435  18.963  0.00  0.00    +0.000 A 
ATOM     31  C   UNL     1       1.454   3.783  19.155  0.00  0.00    +0.000 A 
ATOM     32  C   UNL     1       2.763   4.216  18.960  0.00  0.00    +0.000 A 
ATOM     33  C   UNL     1       3.243   5.632  19.240  0.00  0.00    +0.000 C 
ENDBRANCH  23  24
ENDBRANCH  22  23
ENDBRANCH  21  22
ENDBRANCH   3  21
TORSDOF 5
ENDMDL
MODEL 8
REMARK VINA RESULT:      -8.3      1.158      1.327
REMARK  Name = 
REMARK  7 active torsions:
REMARK  status: ('A' for Active; 'I' for Inactive)
REMARK    1  A    between atoms: C_1  and  N_2
REMARK    2  A    between atoms: C_3  and  C_4
REMARK    3  A    between atoms: N_6  and  C_7
REMARK    4  A    between atoms: C_7  and  C_8
REMARK    5  A    between atoms: C_8  and  C_9
REMARK    6  A    between atoms: C_9  and  N_10
REMARK    7  A    between atoms: N_24  and  C_25
REMARK                            x       y       z     vdW  Elec       q    Type
REMARK                         _______ _______ _______ _____ _____    ______ ____
ROOT
ATOM      1  C   UNL     1       0.894   9.980  19.407  0.00  0.00    +0.000 C 
ATOM      2  O   UNL     1       0.004  10.362  18.635  0.00  0.00    +0.000 OA
ATOM      3  N   UNL     1       1.179  10.760  20.535  0.00  0.00    +0.000 N 
ATOM      4  H   UNL     1       1.859  10.428  21.203  0.00  0.00    +0.000 HD
ENDROOT
BRANCH   1   7
ATOM      5  C   UNL     1       0.892   7.429  21.222  0.00  0.00    +0.000 C 
ATOM      6  N   UNL     1       1.651   7.590  19.997  0.00  0.00    +0.000 N 
ATOM      7  C   UNL     1       1.670   8.751  19.194  0.00  0.00    +0.000 A 
ATOM      8  C   UNL     1       2.578   8.467  18.175  0.00  0.00    +0.000 A 
ATOM      9  C   UNL     1       3.049   7.137  18.327  0.00  0.00    +0.000 A 
ATOM     10  C   UNL     1       3.971   6.392  17.480  0.00  0.00    +0.000 A 
ATOM     11  O   UNL     1       4.466   6.929  16.487  0.00  0.00    +0.000 OA
ATOM     12  N   UNL     1       4.237   5.072  17.859  0.00  0.00    +0.000 N 
ATOM     13  C   UNL     1       5.141   4.292  17.026  0.00  0.00    +0.000 C 
ATOM     14  C   UNL     1       3.658   4.463  19.038  0.00  0.00    +0.000 A 
ATOM     15  C   UNL     1       3.975   3.130  19.374  0.00  0.00    +0.000 A 
ATOM     16  C   UNL     1       3.432   2.518  20.504  0.00  0.00    +0.000 A 
ATOM     17  C   UNL     1       2.571   3.245  21.318  0.00  0.00    +0.000 A 
ATOM     18  C   UNL     1       2.246   4.566  21.005  0.00  0.00    +0.000 A 
ATOM     19  C   UNL     1       2.766   5.201  19.872  0.00  0.00    +0.000 A 
ATOM     20  C   UNL     1       2.471   6.596  19.457  0.00  0.00    +0.000 A 
ENDBRANCH   1   7
BRANCH   3  21
ATOM     21  C   UNL     1       0.423  11.983  20.799  0.00  0.00    +0.000 C 
BRANCH  21  22
ATOM     22  C   UNL     1      -0.593  11.905  21.957  0.00  0.00    +0.000 C 
BRANCH  22  23
ATOM     23  C   UNL     1      -0.921  13.317  22.526  0.00  0.00    +0.000 C 
BRANCH  23  24
ATOM     24  N   UNL     1      -2.355  13.562  22.765  0.00  0.00    +0.000 NA
ATOM     25  C   UNL     1      -3.016  12.475  23.516  0.00  0.00    +0.000 C 
ATOM     26  C   UNL     1      -4.472  12.893  23.871  0.00  0.00    +0.000 C 
ATOM     27  C   UNL     1      -5.243  13.031  22.578  0.00  0.00    +0.000 A 
ATOM     28  C   UNL     1      -6.597  12.704  22.497  0.00  0.00    +0.000 A 
ATOM     29  C   UNL     1      -7.083  12.195  21.299  0.00  0.00    +0.000 A 
ATOM     30  C   UNL     1      -6.215  12.034  20.215  0.00  0.00    +0.000 A 
ATOM     31  C   UNL     1      -4.926  12.577  20.253  0.00  0.00    +0.000 A 
ATOM     32  C   UNL     1      -4.462  13.176  21.422  0.00  0.00    +0.000 A 
ATOM     33  C   UNL     1      -3.122  13.887  21.542  0.00  0.00    +0.000 C 
ENDBRANCH  23  24
ENDBRANCH  22  23
ENDBRANCH  21  22
ENDBRANCH   3  21
TORSDOF 5
ENDMDL
MODEL 9
REMARK VINA RESULT:      -8.2      1.900     10.430
REMARK  Name = 
REMARK  7 active torsions:
REMARK  status: ('A' for Active; 'I' for Inactive)
REMARK    1  A    between atoms: C_1  and  N_2
REMARK    2  A    between atoms: C_3  and  C_4
REMARK    3  A    between atoms: N_6  and  C_7
REMARK    4  A    between atoms: C_7  and  C_8
REMARK    5  A    between atoms: C_8  and  C_9
REMARK    6  A    between atoms: C_9  and  N_10
REMARK    7  A    between atoms: N_24  and  C_25
REMARK                            x       y       z     vdW  Elec       q    Type
REMARK                         _______ _______ _______ _____ _____    ______ ____
ROOT
ATOM      1  C   UNL     1       0.559  11.389  18.904  0.00  0.00    +0.000 C 
ATOM      2  O   UNL     1       1.438  12.201  18.584  0.00  0.00    +0.000 OA
ATOM      3  N   UNL     1       0.759  10.036  18.600  0.00  0.00    +0.000 N 
ATOM      4  H   UNL     1       0.079   9.358  18.911  0.00  0.00    +0.000 HD
ENDROOT
BRANCH   1   7
ATOM      5  C   UNL     1      -2.285  11.610  17.613  0.00  0.00    +0.000 C 
ATOM      6  N   UNL     1      -1.972  11.852  19.008  0.00  0.00    +0.000 N 
ATOM      7  C   UNL     1      -0.684  11.776  19.582  0.00  0.00    +0.000 A 
ATOM      8  C   UNL     1      -0.863  12.149  20.914  0.00  0.00    +0.000 A 
ATOM      9  C   UNL     1      -2.242  12.382  21.152  0.00  0.00    +0.000 A 
ATOM     10  C   UNL     1      -2.906  12.747  22.397  0.00  0.00    +0.000 A 
ATOM     11  O   UNL     1      -2.243  12.910  23.423  0.00  0.00    +0.000 OA
ATOM     12  N   UNL     1      -4.297  12.886  22.344  0.00  0.00    +0.000 N 
ATOM     13  C   UNL     1      -4.994  13.232  23.573  0.00  0.00    +0.000 C 
ATOM     14  C   UNL     1      -5.057  12.704  21.125  0.00  0.00    +0.000 A 
ATOM     15  C   UNL     1      -6.458  12.870  21.134  0.00  0.00    +0.000 A 
ATOM     16  C   UNL     1      -7.216  12.702  19.975  0.00  0.00    +0.000 A 
ATOM     17  C   UNL     1      -6.571  12.377  18.787  0.00  0.00    +0.000 A 
ATOM     18  C   UNL     1      -5.185  12.210  18.756  0.00  0.00    +0.000 A 
ATOM     19  C   UNL     1      -4.402  12.361  19.905  0.00  0.00    +0.000 A 
ATOM     20  C   UNL     1      -2.927  12.195  19.968  0.00  0.00    +0.000 A 
ENDBRANCH   1   7
BRANCH   3  21
ATOM     21  C   UNL     1       1.988   9.600  17.940  0.00  0.00    +0.000 C 
BRANCH  21  22
ATOM     22  C   UNL     1       2.147   8.075  17.761  0.00  0.00    +0.000 C 
BRANCH  22  23
ATOM     23  C   UNL     1       3.643   7.668  17.621  0.00  0.00    +0.000 C 
BRANCH  23  24
ATOM     24  N   UNL     1       3.961   6.322  18.132  0.00  0.00    +0.000 NA
ATOM     25  C   UNL     1       4.168   5.326  17.062  0.00  0.00    +0.000 C 
ATOM     26  C   UNL     1       4.665   3.987  17.680  0.00  0.00    +0.000 C 
ATOM     27  C   UNL     1       3.556   3.438  18.548  0.00  0.00    +0.000 A 
ATOM     28  C   UNL     1       3.339   2.065  18.672  0.00  0.00    +0.000 A 
ATOM     29  C   UNL     1       2.037   1.617  18.860  0.00  0.00    +0.000 A 
ATOM     30  C   UNL     1       0.991   2.542  18.929  0.00  0.00    +0.000 A 
ATOM     31  C   UNL     1       1.263   3.912  19.027  0.00  0.00    +0.000 A 
ATOM     32  C   UNL     1       2.577   4.364  18.936  0.00  0.00    +0.000 A 
ATOM     33  C   UNL     1       2.995   5.814  19.132  0.00  0.00    +0.000 C 
ENDBRANCH  23  24
ENDBRANCH  22  23
ENDBRANCH  21  22
ENDBRANCH   3  21
TORSDOF 5
ENDMDL
