MODEL 1
REMARK VINA RESULT:      -8.0      0.000      0.000
REMARK  Name = 
REMARK  4 active torsions:
REMARK  status: ('A' for Active; 'I' for Inactive)
REMARK    1  A    between atoms: C_2  and  O_3
REMARK    2  A    between atoms: C_2  and  C_4
REMARK    3  A    between atoms: C_8  and  S_9
REMARK    4  A    between atoms: C_19  and  C_20
REMARK                            x       y       z     vdW  Elec       q    Type
REMARK                         _______ _______ _______ _____ _____    ______ ____
ROOT
ATOM      1  C   UNL     1       4.218   5.349  18.614  0.00  0.00    +0.000 C 
ATOM      2  C   UNL     1       3.454   5.881  19.595  0.00  0.00    +0.000 C 
ATOM      3  C   UNL     1       2.624   7.061  19.368  0.00  0.00    +0.000 A 
ATOM      4  C   UNL     1       1.842   7.594  20.402  0.00  0.00    +0.000 A 
ATOM      5  C   UNL     1       1.129   8.790  20.205  0.00  0.00    +0.000 A 
ATOM      6  C   UNL     1       1.218   9.424  18.947  0.00  0.00    +0.000 A 
ATOM      7  C   UNL     1       1.980   8.870  17.916  0.00  0.00    +0.000 A 
ATOM      8  C   UNL     1       2.672   7.680  18.123  0.00  0.00    +0.000 A 
ATOM      9  O   UNL     1       3.379   7.125  17.113  0.00  0.00    +0.000 OA
ATOM     10  C   UNL     1       4.097   5.934  17.179  0.00  0.00    +0.000 C 
ENDROOT
BRANCH   5  11
ATOM     11  S   UNL     1       0.148   9.551  21.546  0.00  0.00    +0.000 S 
ATOM     12  F   UNL     1       1.234   8.963  22.726  0.00  0.00    +0.000 F 
ATOM     13  F   UNL     1      -0.985  10.170  20.413  0.00  0.00    +0.000 F 
ATOM     14  F   UNL     1      -0.769  10.252  22.807  0.00  0.00    +0.000 F 
ATOM     15  F   UNL     1       1.045  11.003  21.397  0.00  0.00    +0.000 F 
ATOM     16  F   UNL     1      -0.759   8.110  21.693  0.00  0.00    +0.000 F 
ENDBRANCH   5  11
BRANCH  10  17
ATOM     17  C   UNL     1       5.379   6.074  16.302  0.00  0.00    +0.000 C 
ATOM     18  F   UNL     1       5.879   4.870  15.853  0.00  0.00    +0.000 F 
ATOM     19  F   UNL     1       5.084   6.869  15.202  0.00  0.00    +0.000 F 
ATOM     20  F   UNL     1       6.394   6.707  17.001  0.00  0.00    +0.000 F 
ENDBRANCH  10  17
BRANCH   1  22
ATOM     21  O   UNL     1       6.208   4.309  19.346  0.00  0.00    +0.000 OA
ATOM     22  C   UNL     1       5.076   4.149  18.924  0.00  0.00    +0.000 C 
BRANCH  22  23
ATOM     23  O   UNL     1       4.630   2.872  18.791  0.00  0.00    +0.000 OA
ATOM     24  H   UNL     1       3.707   2.591  18.776  0.00  0.00    +0.000 HD
ENDBRANCH  22  23
ENDBRANCH   1  22
TORSDOF 4
ENDMDL
MODEL 2
REMARK VINA RESULT:      -8.0      0.042      1.012
REMARK  Name = 
REMARK  4 active torsions:
REMARK  status: ('A' for Active; 'I' for Inactive)
REMARK    1  A    between atoms: C_2  and  O_3
REMARK    2  A    between atoms: C_2  and  C_4
REMARK    3  A    between atoms: C_8  and  S_9
REMARK    4  A    between atoms: C_19  and  C_20
REMARK                            x       y       z     vdW  Elec       q    Type
REMARK                         _______ _______ _______ _____ _____    ______ ____
ROOT
ATOM      1  C   UNL     1       4.181   5.340  18.613  0.00  0.00    +0.000 C 
ATOM      2  C   UNL     1       3.418   5.870  19.595  0.00  0.00    +0.000 C 
ATOM      3  C   UNL     1       2.602   7.061  19.376  0.00  0.00    +0.000 A 
ATOM      4  C   UNL     1       1.820   7.592  20.412  0.00  0.00    +0.000 A 
ATOM      5  C   UNL     1       1.121   8.798  20.224  0.00  0.00    +0.000 A 
ATOM      6  C   UNL     1       1.224   9.445  18.973  0.00  0.00    +0.000 A 
ATOM      7  C   UNL     1       1.985   8.893  17.941  0.00  0.00    +0.000 A 
ATOM      8  C   UNL     1       2.664   7.693  18.139  0.00  0.00    +0.000 A 
ATOM      9  O   UNL     1       3.370   7.141  17.126  0.00  0.00    +0.000 OA
ATOM     10  C   UNL     1       4.074   5.941  17.183  0.00  0.00    +0.000 C 
ENDROOT
BRANCH   5  11
ATOM     11  S   UNL     1       0.142   9.556  21.568  0.00  0.00    +0.000 S 
ATOM     12  F   UNL     1       1.040  11.005  21.456  0.00  0.00    +0.000 F 
ATOM     13  F   UNL     1      -0.797   8.127  21.735  0.00  0.00    +0.000 F 
ATOM     14  F   UNL     1      -0.764  10.268  22.831  0.00  0.00    +0.000 F 
ATOM     15  F   UNL     1      -0.999  10.136  20.428  0.00  0.00    +0.000 F 
ATOM     16  F   UNL     1       1.269   8.970  22.712  0.00  0.00    +0.000 F 
ENDBRANCH   5  11
BRANCH  10  17
ATOM     17  C   UNL     1       5.363   6.076  16.315  0.00  0.00    +0.000 C 
ATOM     18  F   UNL     1       5.877   4.868  15.894  0.00  0.00    +0.000 F 
ATOM     19  F   UNL     1       5.070   6.847  15.197  0.00  0.00    +0.000 F 
ATOM     20  F   UNL     1       6.366   6.732  17.010  0.00  0.00    +0.000 F 
ENDBRANCH  10  17
BRANCH   1  22
ATOM     21  O   UNL     1       6.144   4.269  19.370  0.00  0.00    +0.000 OA
ATOM     22  C   UNL     1       5.023   4.127  18.915  0.00  0.00    +0.000 C 
BRANCH  22  23
ATOM     23  O   UNL     1       4.574   2.856  18.737  0.00  0.00    +0.000 OA
ATOM     24  H   UNL     1       5.109   2.097  18.474  0.00  0.00    +0.000 HD
ENDBRANCH  22  23
ENDBRANCH   1  22
TORSDOF 4
ENDMDL
MODEL 3
REMARK VINA RESULT:      -8.0      0.075      1.002
REMARK  Name = 
REMARK  4 active torsions:
REMARK  status: ('A' for Active; 'I' for Inactive)
REMARK    1  A    between atoms: C_2  and  O_3
REMARK    2  A    between atoms: C_2  and  C_4
REMARK    3  A    between atoms: C_8  and  S_9
REMARK    4  A    between atoms: C_19  and  C_20
REMARK                            x       y       z     vdW  Elec       q    Type
REMARK                         _______ _______ _______ _____ _____    ______ ____
ROOT
ATOM      1  C   UNL     1       4.163   5.319  18.591  0.00  0.00    +0.000 C 
ATOM      2  C   UNL     1       3.407   5.850  19.578  0.00  0.00    +0.000 C 
ATOM      3  C   UNL     1       2.600   7.049  19.368  0.00  0.00    +0.000 A 
ATOM      4  C   UNL     1       1.826   7.580  20.408  0.00  0.00    +0.000 A 
ATOM      5  C   UNL     1       1.136   8.792  20.229  0.00  0.00    +0.000 A 
ATOM      6  C   UNL     1       1.241   9.445  18.981  0.00  0.00    +0.000 A 
ATOM      7  C   UNL     1       1.994   8.893  17.944  0.00  0.00    +0.000 A 
ATOM      8  C   UNL     1       2.664   7.686  18.133  0.00  0.00    +0.000 A 
ATOM      9  O   UNL     1       3.362   7.134  17.116  0.00  0.00    +0.000 OA
ATOM     10  C   UNL     1       4.057   5.928  17.165  0.00  0.00    +0.000 C 
ENDROOT
BRANCH   5  11
ATOM     11  S   UNL     1       0.167   9.551  21.579  0.00  0.00    +0.000 S 
ATOM     12  F   UNL     1      -0.757   8.126  21.768  0.00  0.00    +0.000 F 
ATOM     13  F   UNL     1       1.054  11.014  21.440  0.00  0.00    +0.000 F 
ATOM     14  F   UNL     1      -0.751  10.257  22.837  0.00  0.00    +0.000 F 
ATOM     15  F   UNL     1       1.312   9.000  22.729  0.00  0.00    +0.000 F 
ATOM     16  F   UNL     1      -0.975  10.113  20.437  0.00  0.00    +0.000 F 
ENDBRANCH   5  11
BRANCH  10  17
ATOM     17  C   UNL     1       5.345   6.058  16.293  0.00  0.00    +0.000 C 
ATOM     18  F   UNL     1       5.801   4.855  15.796  0.00  0.00    +0.000 F 
ATOM     19  F   UNL     1       5.078   6.906  15.226  0.00  0.00    +0.000 F 
ATOM     20  F   UNL     1       6.381   6.626  17.016  0.00  0.00    +0.000 F 
ENDBRANCH  10  17
BRANCH   1  22
ATOM     21  O   UNL     1       6.088   4.224  19.412  0.00  0.00    +0.000 OA
ATOM     22  C   UNL     1       4.997   4.098  18.884  0.00  0.00    +0.000 C 
BRANCH  22  23
ATOM     23  O   UNL     1       4.571   2.834  18.618  0.00  0.00    +0.000 OA
ATOM     24  H   UNL     1       4.751   2.332  17.813  0.00  0.00    +0.000 HD
ENDBRANCH  22  23
ENDBRANCH   1  22
TORSDOF 4
ENDMDL
MODEL 4
REMARK VINA RESULT:      -8.0      0.980      1.578
REMARK  Name = 
REMARK  4 active torsions:
REMARK  status: ('A' for Active; 'I' for Inactive)
REMARK    1  A    between atoms: C_2  and  O_3
REMARK    2  A    between atoms: C_2  and  C_4
REMARK    3  A    between atoms: C_8  and  S_9
REMARK    4  A    between atoms: C_19  and  C_20
REMARK                            x       y       z     vdW  Elec       q    Type
REMARK                         _______ _______ _______ _____ _____    ______ ____
ROOT
ATOM      1  C   UNL     1       3.492   4.478  19.007  0.00  0.00    +0.000 C 
ATOM      2  C   UNL     1       2.816   5.205  19.925  0.00  0.00    +0.000 C 
ATOM      3  C   UNL     1       2.315   6.545  19.627  0.00  0.00    +0.000 A 
ATOM      4  C   UNL     1       1.618   7.279  20.597  0.00  0.00    +0.000 A 
ATOM      5  C   UNL     1       1.232   8.606  20.338  0.00  0.00    +0.000 A 
ATOM      6  C   UNL     1       1.559   9.166  19.084  0.00  0.00    +0.000 A 
ATOM      7  C   UNL     1       2.232   8.418  18.117  0.00  0.00    +0.000 A 
ATOM      8  C   UNL     1       2.598   7.100  18.384  0.00  0.00    +0.000 A 
ATOM      9  O   UNL     1       3.215   6.365  17.433  0.00  0.00    +0.000 OA
ATOM     10  C   UNL     1       3.615   5.037  17.562  0.00  0.00    +0.000 C 
ENDROOT
BRANCH   5  11
ATOM     11  S   UNL     1       0.378   9.617  21.597  0.00  0.00    +0.000 S 
ATOM     12  F   UNL     1       1.353  10.970  21.228  0.00  0.00    +0.000 F 
ATOM     13  F   UNL     1      -0.634   8.296  22.021  0.00  0.00    +0.000 F 
ATOM     14  F   UNL     1      -0.411  10.567  22.780  0.00  0.00    +0.000 F 
ATOM     15  F   UNL     1      -0.788  10.100  20.438  0.00  0.00    +0.000 F 
ATOM     16  F   UNL     1       1.530   9.131  22.762  0.00  0.00    +0.000 F 
ENDBRANCH   5  11
BRANCH  10  17
ATOM     17  C   UNL     1       4.950   4.839  16.779  0.00  0.00    +0.000 C 
ATOM     18  F   UNL     1       5.116   3.565  16.278  0.00  0.00    +0.000 F 
ATOM     19  F   UNL     1       4.986   5.739  15.722  0.00  0.00    +0.000 F 
ATOM     20  F   UNL     1       6.045   5.112  17.583  0.00  0.00    +0.000 F 
ENDBRANCH  10  17
BRANCH   1  22
ATOM     21  O   UNL     1       3.248   2.163  19.403  0.00  0.00    +0.000 OA
ATOM     22  C   UNL     1       4.008   3.115  19.389  0.00  0.00    +0.000 C 
BRANCH  22  23
ATOM     23  O   UNL     1       5.314   2.880  19.688  0.00  0.00    +0.000 OA
ATOM     24  H   UNL     1       6.021   3.536  19.699  0.00  0.00    +0.000 HD
ENDBRANCH  22  23
ENDBRANCH   1  22
TORSDOF 4
ENDMDL
MODEL 5
REMARK VINA RESULT:      -8.0      0.977      1.991
REMARK  Name = 
REMARK  4 active torsions:
REMARK  status: ('A' for Active; 'I' for Inactive)
REMARK    1  A    between atoms: C_2  and  O_3
REMARK    2  A    between atoms: C_2  and  C_4
REMARK    3  A    between atoms: C_8  and  S_9
REMARK    4  A    between atoms: C_19  and  C_20
REMARK                            x       y       z     vdW  Elec       q    Type
REMARK                         _______ _______ _______ _____ _____    ______ ____
ROOT
ATOM      1  C   UNL     1       3.468   4.536  19.058  0.00  0.00    +0.000 C 
ATOM      2  C   UNL     1       2.790   5.262  19.975  0.00  0.00    +0.000 C 
ATOM      3  C   UNL     1       2.275   6.595  19.673  0.00  0.00    +0.000 A 
ATOM      4  C   UNL     1       1.576   7.327  20.642  0.00  0.00    +0.000 A 
ATOM      5  C   UNL     1       1.177   8.650  20.377  0.00  0.00    +0.000 A 
ATOM      6  C   UNL     1       1.492   9.206  19.119  0.00  0.00    +0.000 A 
ATOM      7  C   UNL     1       2.167   8.458  18.152  0.00  0.00    +0.000 A 
ATOM      8  C   UNL     1       2.546   7.146  18.425  0.00  0.00    +0.000 A 
ATOM      9  O   UNL     1       3.166   6.411  17.475  0.00  0.00    +0.000 OA
ATOM     10  C   UNL     1       3.579   5.088  17.609  0.00  0.00    +0.000 C 
ENDROOT
BRANCH   5  11
ATOM     11  S   UNL     1       0.319   9.659  21.635  0.00  0.00    +0.000 S 
ATOM     12  F   UNL     1      -0.812  10.208  20.478  0.00  0.00    +0.000 F 
ATOM     13  F   UNL     1       1.424   9.150  22.847  0.00  0.00    +0.000 F 
ATOM     14  F   UNL     1      -0.484  10.615  22.805  0.00  0.00    +0.000 F 
ATOM     15  F   UNL     1      -0.687   8.331  22.036  0.00  0.00    +0.000 F 
ATOM     16  F   UNL     1       1.325  10.986  21.249  0.00  0.00    +0.000 F 
ENDBRANCH   5  11
BRANCH  10  17
ATOM     17  C   UNL     1       4.912   4.898  16.821  0.00  0.00    +0.000 C 
ATOM     18  F   UNL     1       6.042   5.120  17.580  0.00  0.00    +0.000 F 
ATOM     19  F   UNL     1       4.958   3.601  16.327  0.00  0.00    +0.000 F 
ATOM     20  F   UNL     1       4.973   5.751  15.731  0.00  0.00    +0.000 F 
ENDBRANCH  10  17
BRANCH   1  22
ATOM     21  O   UNL     1       3.235   2.236  19.539  0.00  0.00    +0.000 OA
ATOM     22  C   UNL     1       4.000   3.180  19.445  0.00  0.00    +0.000 C 
BRANCH  22  23
ATOM     23  O   UNL     1       5.321   2.941  19.662  0.00  0.00    +0.000 OA
ATOM     24  H   UNL     1       5.926   3.507  20.157  0.00  0.00    +0.000 HD
ENDBRANCH  22  23
ENDBRANCH   1  22
TORSDOF 4
ENDMDL
MODEL 6
REMARK VINA RESULT:      -7.9      1.009      1.774
REMARK  Name = 
REMARK  4 active torsions:
REMARK  status: ('A' for Active; 'I' for Inactive)
REMARK    1  A    between atoms: C_2  and  O_3
REMARK    2  A    between atoms: C_2  and  C_4
REMARK    3  A    between atoms: C_8  and  S_9
REMARK    4  A    between atoms: C_19  and  C_20
REMARK                            x       y       z     vdW  Elec       q    Type
REMARK                         _______ _______ _______ _____ _____    ______ ____
ROOT
ATOM      1  C   UNL     1       3.468   4.433  19.002  0.00  0.00    +0.000 C 
ATOM      2  C   UNL     1       2.803   5.162  19.925  0.00  0.00    +0.000 C 
ATOM      3  C   UNL     1       2.303   6.503  19.632  0.00  0.00    +0.000 A 
ATOM      4  C   UNL     1       1.618   7.240  20.608  0.00  0.00    +0.000 A 
ATOM      5  C   UNL     1       1.233   8.568  20.352  0.00  0.00    +0.000 A 
ATOM      6  C   UNL     1       1.549   9.126  19.094  0.00  0.00    +0.000 A 
ATOM      7  C   UNL     1       2.210   8.375  18.121  0.00  0.00    +0.000 A 
ATOM      8  C   UNL     1       2.575   7.056  18.385  0.00  0.00    +0.000 A 
ATOM      9  O   UNL     1       3.181   6.318  17.429  0.00  0.00    +0.000 OA
ATOM     10  C   UNL     1       3.578   4.990  17.554  0.00  0.00    +0.000 C 
ENDROOT
BRANCH   5  11
ATOM     11  S   UNL     1       0.394   9.582  21.619  0.00  0.00    +0.000 S 
ATOM     12  F   UNL     1      -0.606   8.270  22.062  0.00  0.00    +0.000 F 
ATOM     13  F   UNL     1       1.364  10.942  21.221  0.00  0.00    +0.000 F 
ATOM     14  F   UNL     1      -0.402  10.528  22.800  0.00  0.00    +0.000 F 
ATOM     15  F   UNL     1       1.566   9.124  22.782  0.00  0.00    +0.000 F 
ATOM     16  F   UNL     1      -0.772  10.053  20.462  0.00  0.00    +0.000 F 
ENDBRANCH   5  11
BRANCH  10  17
ATOM     17  C   UNL     1       4.904   4.788  16.758  0.00  0.00    +0.000 C 
ATOM     18  F   UNL     1       5.013   5.596  15.646  0.00  0.00    +0.000 F 
ATOM     19  F   UNL     1       5.976   5.049  17.602  0.00  0.00    +0.000 F 
ATOM     20  F   UNL     1       5.034   3.477  16.330  0.00  0.00    +0.000 F 
ENDBRANCH  10  17
BRANCH   1  22
ATOM     21  O   UNL     1       3.227   2.114  19.379  0.00  0.00    +0.000 OA
ATOM     22  C   UNL     1       3.985   3.068  19.379  0.00  0.00    +0.000 C 
BRANCH  22  23
ATOM     23  O   UNL     1       5.287   2.835  19.690  0.00  0.00    +0.000 OA
ATOM     24  H   UNL     1       5.900   2.283  19.188  0.00  0.00    +0.000 HD
ENDBRANCH  22  23
ENDBRANCH   1  22
TORSDOF 4
ENDMDL
MODEL 7
REMARK VINA RESULT:      -7.9      1.065      1.322
REMARK  Name = 
REMARK  4 active torsions:
REMARK  status: ('A' for Active; 'I' for Inactive)
REMARK    1  A    between atoms: C_2  and  O_3
REMARK    2  A    between atoms: C_2  and  C_4
REMARK    3  A    between atoms: C_8  and  S_9
REMARK    4  A    between atoms: C_19  and  C_20
REMARK                            x       y       z     vdW  Elec       q    Type
REMARK                         _______ _______ _______ _____ _____    ______ ____
ROOT
ATOM      1  C   UNL     1       3.595   4.205  18.860  0.00  0.00    +0.000 C 
ATOM      2  C   UNL     1       2.858   4.917  19.742  0.00  0.00    +0.000 C 
ATOM      3  C   UNL     1       2.417   6.279  19.452  0.00  0.00    +0.000 A 
ATOM      4  C   UNL     1       1.654   6.996  20.384  0.00  0.00    +0.000 A 
ATOM      5  C   UNL     1       1.323   8.341  20.142  0.00  0.00    +0.000 A 
ATOM      6  C   UNL     1       1.772   8.937  18.943  0.00  0.00    +0.000 A 
ATOM      7  C   UNL     1       2.509   8.205  18.011  0.00  0.00    +0.000 A 
ATOM      8  C   UNL     1       2.820   6.870  18.259  0.00  0.00    +0.000 A 
ATOM      9  O   UNL     1       3.501   6.152  17.339  0.00  0.00    +0.000 OA
ATOM     10  C   UNL     1       3.858   4.811  17.452  0.00  0.00    +0.000 C 
ENDROOT
BRANCH   5  11
ATOM     11  S   UNL     1       0.385   9.329  21.360  0.00  0.00    +0.000 S 
ATOM     12  F   UNL     1       1.453   8.870  22.612  0.00  0.00    +0.000 F 
ATOM     13  F   UNL     1      -0.727   9.827  20.150  0.00  0.00    +0.000 F 
ATOM     14  F   UNL     1      -0.493  10.244  22.506  0.00  0.00    +0.000 F 
ATOM     15  F   UNL     1       1.343  10.704  21.003  0.00  0.00    +0.000 F 
ATOM     16  F   UNL     1      -0.582   7.965  21.713  0.00  0.00    +0.000 F 
ENDBRANCH   5  11
BRANCH  10  17
ATOM     17  C   UNL     1       5.251   4.606  16.781  0.00  0.00    +0.000 C 
ATOM     18  F   UNL     1       5.388   3.388  16.148  0.00  0.00    +0.000 F 
ATOM     19  F   UNL     1       5.451   5.615  15.848  0.00  0.00    +0.000 F 
ATOM     20  F   UNL     1       6.272   4.704  17.713  0.00  0.00    +0.000 F 
ENDBRANCH  10  17
BRANCH   1  22
ATOM     21  O   UNL     1       3.361   1.857  18.926  0.00  0.00    +0.000 OA
ATOM     22  C   UNL     1       4.045   2.816  19.234  0.00  0.00    +0.000 C 
BRANCH  22  23
ATOM     23  O   UNL     1       5.217   2.571  19.877  0.00  0.00    +0.000 OA
ATOM     24  H   UNL     1       5.500   1.721  20.237  0.00  0.00    +0.000 HD
ENDBRANCH  22  23
ENDBRANCH   1  22
TORSDOF 4
ENDMDL
MODEL 8
REMARK VINA RESULT:      -7.9      0.730      1.210
REMARK  Name = 
REMARK  4 active torsions:
REMARK  status: ('A' for Active; 'I' for Inactive)
REMARK    1  A    between atoms: C_2  and  O_3
REMARK    2  A    between atoms: C_2  and  C_4
REMARK    3  A    between atoms: C_8  and  S_9
REMARK    4  A    between atoms: C_19  and  C_20
REMARK                            x       y       z     vdW  Elec       q    Type
REMARK                         _______ _______ _______ _____ _____    ______ ____
ROOT
ATOM      1  C   UNL     1       3.609   4.831  18.917  0.00  0.00    +0.000 C 
ATOM      2  C   UNL     1       2.919   5.506  19.864  0.00  0.00    +0.000 C 
ATOM      3  C   UNL     1       2.331   6.816  19.598  0.00  0.00    +0.000 A 
ATOM      4  C   UNL     1       1.621   7.496  20.598  0.00  0.00    +0.000 A 
ATOM      5  C   UNL     1       1.149   8.801  20.368  0.00  0.00    +0.000 A 
ATOM      6  C   UNL     1       1.403   9.393  19.112  0.00  0.00    +0.000 A 
ATOM      7  C   UNL     1       2.089   8.697  18.115  0.00  0.00    +0.000 A 
ATOM      8  C   UNL     1       2.541   7.401  18.354  0.00  0.00    +0.000 A 
ATOM      9  O   UNL     1       3.172   6.715  17.376  0.00  0.00    +0.000 OA
ATOM     10  C   UNL     1       3.654   5.412  17.475  0.00  0.00    +0.000 C 
ENDROOT
BRANCH   5  11
ATOM     11  S   UNL     1       0.275   9.745  21.665  0.00  0.00    +0.000 S 
ATOM     12  F   UNL     1       1.391   9.225  22.849  0.00  0.00    +0.000 F 
ATOM     13  F   UNL     1      -0.884  10.301  20.527  0.00  0.00    +0.000 F 
ATOM     14  F   UNL     1      -0.544  10.617  22.886  0.00  0.00    +0.000 F 
ATOM     15  F   UNL     1       1.230  11.126  21.323  0.00  0.00    +0.000 F 
ATOM     16  F   UNL     1      -0.690   8.375  22.004  0.00  0.00    +0.000 F 
ENDBRANCH   5  11
BRANCH  10  17
ATOM     17  C   UNL     1       4.974   5.303  16.650  0.00  0.00    +0.000 C 
ATOM     18  F   UNL     1       6.110   5.580  17.382  0.00  0.00    +0.000 F 
ATOM     19  F   UNL     1       5.077   4.015  16.142  0.00  0.00    +0.000 F 
ATOM     20  F   UNL     1       4.958   6.169  15.569  0.00  0.00    +0.000 F 
ENDBRANCH  10  17
BRANCH   1  22
ATOM     21  O   UNL     1       3.496   2.530  19.436  0.00  0.00    +0.000 OA
ATOM     22  C   UNL     1       4.218   3.497  19.265  0.00  0.00    +0.000 C 
BRANCH  22  23
ATOM     23  O   UNL     1       5.560   3.304  19.364  0.00  0.00    +0.000 OA
ATOM     24  H   UNL     1       6.127   3.617  20.080  0.00  0.00    +0.000 HD
ENDBRANCH  22  23
ENDBRANCH   1  22
TORSDOF 4
ENDMDL
MODEL 9
REMARK VINA RESULT:      -7.9      4.213      5.293
REMARK  Name = 
REMARK  4 active torsions:
REMARK  status: ('A' for Active; 'I' for Inactive)
REMARK    1  A    between atoms: C_2  and  O_3
REMARK    2  A    between atoms: C_2  and  C_4
REMARK    3  A    between atoms: C_8  and  S_9
REMARK    4  A    between atoms: C_19  and  C_20
REMARK                            x       y       z     vdW  Elec       q    Type
REMARK                         _______ _______ _______ _____ _____    ______ ____
ROOT
ATOM      1  C   UNL     1       6.471   5.694  17.635  0.00  0.00    +0.000 C 
ATOM      2  C   UNL     1       5.653   5.484  18.691  0.00  0.00    +0.000 C 
ATOM      3  C   UNL     1       4.707   4.372  18.721  0.00  0.00    +0.000 A 
ATOM      4  C   UNL     1       3.868   4.178  19.828  0.00  0.00    +0.000 A 
ATOM      5  C   UNL     1       2.889   3.169  19.805  0.00  0.00    +0.000 A 
ATOM      6  C   UNL     1       2.782   2.365  18.649  0.00  0.00    +0.000 A 
ATOM      7  C   UNL     1       3.639   2.552  17.563  0.00  0.00    +0.000 A 
ATOM      8  C   UNL     1       4.612   3.548  17.605  0.00  0.00    +0.000 A 
ATOM      9  O   UNL     1       5.466   3.702  16.569  0.00  0.00    +0.000 OA
ATOM     10  C   UNL     1       6.491   4.641  16.491  0.00  0.00    +0.000 C 
ENDROOT
BRANCH   5  11
ATOM     11  S   UNL     1       1.735   2.923  21.200  0.00  0.00    +0.000 S 
ATOM     12  F   UNL     1       0.543   3.875  20.432  0.00  0.00    +0.000 F 
ATOM     13  F   UNL     1       2.890   1.960  22.029  0.00  0.00    +0.000 F 
ATOM     14  F   UNL     1       0.654   2.706  22.507  0.00  0.00    +0.000 F 
ATOM     15  F   UNL     1       1.123   1.503  20.463  0.00  0.00    +0.000 F 
ATOM     16  F   UNL     1       2.348   4.333  21.948  0.00  0.00    +0.000 F 
ENDBRANCH   5  11
BRANCH  10  17
ATOM     17  C   UNL     1       6.617   5.123  15.013  0.00  0.00    +0.000 C 
ATOM     18  F   UNL     1       7.877   5.578  14.683  0.00  0.00    +0.000 F 
ATOM     19  F   UNL     1       6.292   4.069  14.170  0.00  0.00    +0.000 F 
ATOM     20  F   UNL     1       5.725   6.149  14.746  0.00  0.00    +0.000 F 
ENDBRANCH  10  17
BRANCH   1  22
ATOM     21  O   UNL     1       7.305   7.737  16.794  0.00  0.00    +0.000 OA
ATOM     22  C   UNL     1       7.402   6.879  17.654  0.00  0.00    +0.000 C 
BRANCH  22  23
ATOM     23  O   UNL     1       8.339   7.063  18.621  0.00  0.00    +0.000 OA
ATOM     24  H   UNL     1       9.264   6.791  18.575  0.00  0.00    +0.000 HD
ENDBRANCH  22  23
ENDBRANCH   1  22
TORSDOF 4
ENDMDL
