MODEL 1
REMARK VINA RESULT:      -6.8      0.000      0.000
REMARK  Name = 
REMARK  6 active torsions:
REMARK  status: ('A' for Active; 'I' for Inactive)
REMARK    1  A    between atoms: C_1  and  N_2
REMARK    2  A    between atoms: C_4  and  C_5
REMARK    3  A    between atoms: C_9  and  C_10
REMARK    4  A    between atoms: C_18  and  S_19
REMARK    5  A    between atoms: S_19  and  C_20
REMARK    6  A    between atoms: C_20  and  C_21
REMARK                            x       y       z     vdW  Elec       q    Type
REMARK                         _______ _______ _______ _____ _____    ______ ____
ROOT
ATOM      1  C   UNL     1       5.212   1.588  20.357  0.00  0.00    +0.000 C 
ATOM      2  N   UNL     1       4.325   2.618  19.868  0.00  0.00    +0.000 N 
ATOM      3  N   UNL     1       3.014   2.287  19.735  0.00  0.00    +0.000 NA
ATOM      4  C   UNL     1       2.440   3.359  19.153  0.00  0.00    +0.000 A 
ATOM      5  C   UNL     1       3.409   4.377  18.940  0.00  0.00    +0.000 A 
ATOM      6  C   UNL     1       4.609   3.892  19.436  0.00  0.00    +0.000 A 
ENDROOT
BRANCH   5   7
ATOM      7  C   UNL     1       3.215   5.662  18.345  0.00  0.00    +0.000 C 
ATOM      8  C   UNL     1       2.617   6.710  18.926  0.00  0.00    +0.000 C 
ATOM      9  S   UNL     1       1.982   6.819  20.528  0.00  0.00    +0.000 S 
ATOM     10  C   UNL     1       1.380   8.444  20.267  0.00  0.00    +0.000 C 
ATOM     11  S   UNL     1       0.527   9.359  21.353  0.00  0.00    +0.000 S 
ATOM     12  N   UNL     1       1.711   8.862  19.024  0.00  0.00    +0.000 N 
ATOM     13  C   UNL     1       2.392   7.996  18.200  0.00  0.00    +0.000 C 
ATOM     14  O   UNL     1       2.751   8.245  17.074  0.00  0.00    +0.000 OA
ATOM     15  H   UNL     1       1.462   9.783  18.685  0.00  0.00    +0.000 HD
ENDBRANCH   5   7
BRANCH   4  16
ATOM     16  C   UNL     1       0.978   3.406  18.789  0.00  0.00    +0.000 C 
ATOM     17  F   UNL     1       0.729   4.111  17.654  0.00  0.00    +0.000 F 
ATOM     18  F   UNL     1       0.454   2.163  18.597  0.00  0.00    +0.000 F 
ATOM     19  F   UNL     1       0.232   3.982  19.773  0.00  0.00    +0.000 F 
ENDBRANCH   4  16
BRANCH   6  20
ATOM     20  S   UNL     1       6.096   4.808  19.588  0.00  0.00    +0.000 S 
BRANCH  20  21
ATOM     21  C   UNL     1       7.222   4.555  18.199  0.00  0.00    +0.000 C 
BRANCH  21  22
ATOM     22  C   UNL     1       6.559   4.823  16.846  0.00  0.00    +0.000 A 
ATOM     23  C   UNL     1       6.409   3.714  15.987  0.00  0.00    +0.000 A 
ATOM     24  C   UNL     1       5.790   3.834  14.738  0.00  0.00    +0.000 A 
ATOM     25  C   UNL     1       5.303   5.045  14.307  0.00  0.00    +0.000 A 
ATOM     26  C   UNL     1       5.439   6.163  15.126  0.00  0.00    +0.000 A 
ATOM     27  C   UNL     1       6.077   6.065  16.376  0.00  0.00    +0.000 A 
ATOM     28 CL   UNL     1       6.213   7.556  17.235  0.00  0.00    +0.000 Cl
ENDBRANCH  21  22
ENDBRANCH  20  21
ENDBRANCH   6  20
TORSDOF 5
ENDMDL
MODEL 2
REMARK VINA RESULT:      -6.5      3.622      5.439
REMARK  Name = 
REMARK  6 active torsions:
REMARK  status: ('A' for Active; 'I' for Inactive)
REMARK    1  A    between atoms: C_1  and  N_2
REMARK    2  A    between atoms: C_4  and  C_5
REMARK    3  A    between atoms: C_9  and  C_10
REMARK    4  A    between atoms: C_18  and  S_19
REMARK    5  A    between atoms: S_19  and  C_20
REMARK    6  A    between atoms: C_20  and  C_21
REMARK                            x       y       z     vdW  Elec       q    Type
REMARK                         _______ _______ _______ _____ _____    ______ ____
ROOT
ATOM      1  C   UNL     1       5.946   3.401  14.492  0.00  0.00    +0.000 C 
ATOM      2  N   UNL     1       5.655   4.268  15.610  0.00  0.00    +0.000 N 
ATOM      3  N   UNL     1       6.579   5.217  15.908  0.00  0.00    +0.000 NA
ATOM      4  C   UNL     1       6.136   5.793  17.044  0.00  0.00    +0.000 A 
ATOM      5  C   UNL     1       4.907   5.202  17.444  0.00  0.00    +0.000 A 
ATOM      6  C   UNL     1       4.598   4.244  16.490  0.00  0.00    +0.000 A 
ENDROOT
BRANCH   5   7
ATOM      7  C   UNL     1       4.115   5.517  18.591  0.00  0.00    +0.000 C 
ATOM      8  C   UNL     1       3.273   6.552  18.698  0.00  0.00    +0.000 C 
ATOM      9  S   UNL     1       2.876   7.730  17.500  0.00  0.00    +0.000 S 
ATOM     10  C   UNL     1       1.847   8.624  18.601  0.00  0.00    +0.000 C 
ATOM     11  S   UNL     1       1.043  10.033  18.264  0.00  0.00    +0.000 S 
ATOM     12  N   UNL     1       1.797   7.995  19.797  0.00  0.00    +0.000 N 
ATOM     13  C   UNL     1       2.538   6.847  19.965  0.00  0.00    +0.000 C 
ATOM     14  O   UNL     1       2.578   6.188  20.977  0.00  0.00    +0.000 OA
ATOM     15  H   UNL     1       1.243   8.350  20.566  0.00  0.00    +0.000 HD
ENDBRANCH   5   7
BRANCH   4  16
ATOM     16  C   UNL     1       6.889   6.891  17.751  0.00  0.00    +0.000 C 
ATOM     17  F   UNL     1       7.278   6.552  19.009  0.00  0.00    +0.000 F 
ATOM     18  F   UNL     1       8.017   7.257  17.081  0.00  0.00    +0.000 F 
ATOM     19  F   UNL     1       6.136   8.021  17.871  0.00  0.00    +0.000 F 
ENDBRANCH   4  16
BRANCH   6  20
ATOM     20  S   UNL     1       3.101   3.338  16.400  0.00  0.00    +0.000 S 
BRANCH  20  21
ATOM     21  C   UNL     1       3.038   1.967  17.574  0.00  0.00    +0.000 C 
BRANCH  21  22
ATOM     22  C   UNL     1       2.514   2.390  18.948  0.00  0.00    +0.000 A 
ATOM     23  C   UNL     1       1.169   2.813  19.006  0.00  0.00    +0.000 A 
ATOM     24  C   UNL     1       0.573   3.194  20.214  0.00  0.00    +0.000 A 
ATOM     25  C   UNL     1       1.285   3.164  21.390  0.00  0.00    +0.000 A 
ATOM     26  C   UNL     1       2.617   2.758  21.368  0.00  0.00    +0.000 A 
ATOM     27  C   UNL     1       3.237   2.391  20.161  0.00  0.00    +0.000 A 
ATOM     28 CL   UNL     1       4.906   1.972  20.306  0.00  0.00    +0.000 Cl
ENDBRANCH  21  22
ENDBRANCH  20  21
ENDBRANCH   6  20
TORSDOF 5
ENDMDL
MODEL 3
REMARK VINA RESULT:      -6.2      3.114      6.350
REMARK  Name = 
REMARK  6 active torsions:
REMARK  status: ('A' for Active; 'I' for Inactive)
REMARK    1  A    between atoms: C_1  and  N_2
REMARK    2  A    between atoms: C_4  and  C_5
REMARK    3  A    between atoms: C_9  and  C_10
REMARK    4  A    between atoms: C_18  and  S_19
REMARK    5  A    between atoms: S_19  and  C_20
REMARK    6  A    between atoms: C_20  and  C_21
REMARK                            x       y       z     vdW  Elec       q    Type
REMARK                         _______ _______ _______ _____ _____    ______ ____
ROOT
ATOM      1  C   UNL     1       0.592   4.789  20.329  0.00  0.00    +0.000 C 
ATOM      2  N   UNL     1       1.856   4.331  19.801  0.00  0.00    +0.000 N 
ATOM      3  N   UNL     1       1.955   3.011  19.500  0.00  0.00    +0.000 NA
ATOM      4  C   UNL     1       3.245   2.825  19.156  0.00  0.00    +0.000 A 
ATOM      5  C   UNL     1       3.952   4.056  19.228  0.00  0.00    +0.000 A 
ATOM      6  C   UNL     1       3.033   5.019  19.615  0.00  0.00    +0.000 A 
ENDROOT
BRANCH   5   7
ATOM      7  C   UNL     1       5.334   4.291  18.952  0.00  0.00    +0.000 C 
ATOM      8  C   UNL     1       5.881   4.398  17.734  0.00  0.00    +0.000 C 
ATOM      9  S   UNL     1       5.086   4.341  16.203  0.00  0.00    +0.000 S 
ATOM     10  C   UNL     1       6.596   4.468  15.322  0.00  0.00    +0.000 C 
ATOM     11  S   UNL     1       6.775   4.437  13.675  0.00  0.00    +0.000 S 
ATOM     12  N   UNL     1       7.625   4.594  16.190  0.00  0.00    +0.000 N 
ATOM     13  C   UNL     1       7.351   4.571  17.539  0.00  0.00    +0.000 C 
ATOM     14  O   UNL     1       8.174   4.679  18.417  0.00  0.00    +0.000 OA
ATOM     15  H   UNL     1       8.582   4.693  15.875  0.00  0.00    +0.000 HD
ENDBRANCH   5   7
BRANCH   4  16
ATOM     16  C   UNL     1       3.803   1.478  18.775  0.00  0.00    +0.000 C 
ATOM     17  F   UNL     1       4.275   1.431  17.500  0.00  0.00    +0.000 F 
ATOM     18  F   UNL     1       4.832   1.099  19.584  0.00  0.00    +0.000 F 
ATOM     19  F   UNL     1       2.863   0.497  18.875  0.00  0.00    +0.000 F 
ENDBRANCH   4  16
BRANCH   6  20
ATOM     20  S   UNL     1       3.332   6.745  19.687  0.00  0.00    +0.000 S 
BRANCH  20  21
ATOM     21  C   UNL     1       2.014   7.718  18.926  0.00  0.00    +0.000 C 
BRANCH  21  22
ATOM     22  C   UNL     1       1.265   8.588  19.937  0.00  0.00    +0.000 A 
ATOM     23  C   UNL     1       1.460   8.281  21.299  0.00  0.00    +0.000 A 
ATOM     24  C   UNL     1       0.850   9.028  22.313  0.00  0.00    +0.000 A 
ATOM     25  C   UNL     1       0.038  10.094  22.010  0.00  0.00    +0.000 A 
ATOM     26  C   UNL     1      -0.182  10.423  20.674  0.00  0.00    +0.000 A 
ATOM     27  C   UNL     1       0.406   9.670  19.642  0.00  0.00    +0.000 A 
ATOM     28 CL   UNL     1      -0.019  10.177  18.048  0.00  0.00    +0.000 Cl
ENDBRANCH  21  22
ENDBRANCH  20  21
ENDBRANCH   6  20
TORSDOF 5
ENDMDL
MODEL 4
REMARK VINA RESULT:      -6.2      3.289      6.229
REMARK  Name = 
REMARK  6 active torsions:
REMARK  status: ('A' for Active; 'I' for Inactive)
REMARK    1  A    between atoms: C_1  and  N_2
REMARK    2  A    between atoms: C_4  and  C_5
REMARK    3  A    between atoms: C_9  and  C_10
REMARK    4  A    between atoms: C_18  and  S_19
REMARK    5  A    between atoms: S_19  and  C_20
REMARK    6  A    between atoms: C_20  and  C_21
REMARK                            x       y       z     vdW  Elec       q    Type
REMARK                         _______ _______ _______ _____ _____    ______ ____
ROOT
ATOM      1  C   UNL     1       0.425   4.382  20.211  0.00  0.00    +0.000 C 
ATOM      2  N   UNL     1       1.740   4.022  19.733  0.00  0.00    +0.000 N 
ATOM      3  N   UNL     1       1.965   2.706  19.486  0.00  0.00    +0.000 NA
ATOM      4  C   UNL     1       3.276   2.626  19.182  0.00  0.00    +0.000 A 
ATOM      5  C   UNL     1       3.867   3.917  19.225  0.00  0.00    +0.000 A 
ATOM      6  C   UNL     1       2.855   4.807  19.551  0.00  0.00    +0.000 A 
ENDROOT
BRANCH   5   7
ATOM      7  C   UNL     1       5.231   4.266  18.975  0.00  0.00    +0.000 C 
ATOM      8  C   UNL     1       5.794   4.400  17.768  0.00  0.00    +0.000 C 
ATOM      9  S   UNL     1       5.044   4.250  16.221  0.00  0.00    +0.000 S 
ATOM     10  C   UNL     1       6.558   4.493  15.371  0.00  0.00    +0.000 C 
ATOM     11  S   UNL     1       6.778   4.450  13.729  0.00  0.00    +0.000 S 
ATOM     12  N   UNL     1       7.551   4.722  16.260  0.00  0.00    +0.000 N 
ATOM     13  C   UNL     1       7.249   4.697  17.602  0.00  0.00    +0.000 C 
ATOM     14  O   UNL     1       8.038   4.890  18.496  0.00  0.00    +0.000 OA
ATOM     15  H   UNL     1       8.503   4.897  15.965  0.00  0.00    +0.000 HD
ENDBRANCH   5   7
BRANCH   4  16
ATOM     16  C   UNL     1       3.964   1.322  18.868  0.00  0.00    +0.000 C 
ATOM     17  F   UNL     1       4.439   1.257  17.596  0.00  0.00    +0.000 F 
ATOM     18  F   UNL     1       5.023   1.086  19.691  0.00  0.00    +0.000 F 
ATOM     19  F   UNL     1       3.123   0.260  19.021  0.00  0.00    +0.000 F 
ENDBRANCH   4  16
BRANCH   6  20
ATOM     20  S   UNL     1       2.996   6.553  19.563  0.00  0.00    +0.000 S 
BRANCH  20  21
ATOM     21  C   UNL     1       1.877   7.339  20.743  0.00  0.00    +0.000 C 
BRANCH  21  22
ATOM     22  C   UNL     1       1.180   8.572  20.164  0.00  0.00    +0.000 A 
ATOM     23  C   UNL     1       1.568   8.963  18.865  0.00  0.00    +0.000 A 
ATOM     24  C   UNL     1       0.977  10.056  18.222  0.00  0.00    +0.000 A 
ATOM     25  C   UNL     1      -0.010  10.787  18.840  0.00  0.00    +0.000 A 
ATOM     26  C   UNL     1      -0.414  10.433  20.125  0.00  0.00    +0.000 A 
ATOM     27  C   UNL     1       0.184   9.350  20.794  0.00  0.00    +0.000 A 
ATOM     28 CL   UNL     1      -0.393   9.088  22.400  0.00  0.00    +0.000 Cl
ENDBRANCH  21  22
ENDBRANCH  20  21
ENDBRANCH   6  20
TORSDOF 5
ENDMDL
MODEL 5
REMARK VINA RESULT:      -6.1      3.209      6.130
REMARK  Name = 
REMARK  6 active torsions:
REMARK  status: ('A' for Active; 'I' for Inactive)
REMARK    1  A    between atoms: C_1  and  N_2
REMARK    2  A    between atoms: C_4  and  C_5
REMARK    3  A    between atoms: C_9  and  C_10
REMARK    4  A    between atoms: C_18  and  S_19
REMARK    5  A    between atoms: S_19  and  C_20
REMARK    6  A    between atoms: C_20  and  C_21
REMARK                            x       y       z     vdW  Elec       q    Type
REMARK                         _______ _______ _______ _____ _____    ______ ____
ROOT
ATOM      1  C   UNL     1       0.524   4.761  20.303  0.00  0.00    +0.000 C 
ATOM      2  N   UNL     1       1.796   4.309  19.790  0.00  0.00    +0.000 N 
ATOM      3  N   UNL     1       1.935   2.975  19.580  0.00  0.00    +0.000 NA
ATOM      4  C   UNL     1       3.226   2.807  19.230  0.00  0.00    +0.000 A 
ATOM      5  C   UNL     1       3.892   4.062  19.206  0.00  0.00    +0.000 A 
ATOM      6  C   UNL     1       2.946   5.020  19.539  0.00  0.00    +0.000 A 
ENDROOT
BRANCH   5   7
ATOM      7  C   UNL     1       5.263   4.323  18.893  0.00  0.00    +0.000 C 
ATOM      8  C   UNL     1       5.783   4.393  17.662  0.00  0.00    +0.000 C 
ATOM      9  S   UNL     1       4.963   4.250  16.150  0.00  0.00    +0.000 S 
ATOM     10  C   UNL     1       6.452   4.379  15.235  0.00  0.00    +0.000 C 
ATOM     11  S   UNL     1       6.602   4.283  13.588  0.00  0.00    +0.000 S 
ATOM     12  N   UNL     1       7.493   4.570  16.078  0.00  0.00    +0.000 N 
ATOM     13  C   UNL     1       7.245   4.597  17.431  0.00  0.00    +0.000 C 
ATOM     14  O   UNL     1       8.080   4.764  18.288  0.00  0.00    +0.000 OA
ATOM     15  H   UNL     1       8.441   4.681  15.741  0.00  0.00    +0.000 HD
ENDBRANCH   5   7
BRANCH   4  16
ATOM     16  C   UNL     1       3.825   1.456  18.936  0.00  0.00    +0.000 C 
ATOM     17  F   UNL     1       2.958   0.428  19.135  0.00  0.00    +0.000 F 
ATOM     18  F   UNL     1       4.260   1.354  17.648  0.00  0.00    +0.000 F 
ATOM     19  F   UNL     1       4.910   1.204  19.721  0.00  0.00    +0.000 F 
ENDBRANCH   4  16
BRANCH   6  20
ATOM     20  S   UNL     1       3.188   6.755  19.485  0.00  0.00    +0.000 S 
BRANCH  20  21
ATOM     21  C   UNL     1       2.022   7.593  18.389  0.00  0.00    +0.000 C 
BRANCH  21  22
ATOM     22  C   UNL     1       1.683   9.009  18.860  0.00  0.00    +0.000 A 
ATOM     23  C   UNL     1       2.070  10.065  18.008  0.00  0.00    +0.000 A 
ATOM     24  C   UNL     1       1.785  11.399  18.321  0.00  0.00    +0.000 A 
ATOM     25  C   UNL     1       1.113  11.723  19.475  0.00  0.00    +0.000 A 
ATOM     26  C   UNL     1       0.722  10.706  20.342  0.00  0.00    +0.000 A 
ATOM     27  C   UNL     1       1.017   9.362  20.054  0.00  0.00    +0.000 A 
ATOM     28 CL   UNL     1       0.513   8.237  21.263  0.00  0.00    +0.000 Cl
ENDBRANCH  21  22
ENDBRANCH  20  21
ENDBRANCH   6  20
TORSDOF 5
ENDMDL
MODEL 6
REMARK VINA RESULT:      -6.0      3.964      5.496
REMARK  Name = 
REMARK  6 active torsions:
REMARK  status: ('A' for Active; 'I' for Inactive)
REMARK    1  A    between atoms: C_1  and  N_2
REMARK    2  A    between atoms: C_4  and  C_5
REMARK    3  A    between atoms: C_9  and  C_10
REMARK    4  A    between atoms: C_18  and  S_19
REMARK    5  A    between atoms: S_19  and  C_20
REMARK    6  A    between atoms: C_20  and  C_21
REMARK                            x       y       z     vdW  Elec       q    Type
REMARK                         _______ _______ _______ _____ _____    ______ ____
ROOT
ATOM      1  C   UNL     1       2.005   5.740  20.444  0.00  0.00    +0.000 C 
ATOM      2  N   UNL     1       1.681   7.145  20.529  0.00  0.00    +0.000 N 
ATOM      3  N   UNL     1       1.112   7.577  21.684  0.00  0.00    +0.000 NA
ATOM      4  C   UNL     1       0.799   8.869  21.459  0.00  0.00    +0.000 A 
ATOM      5  C   UNL     1       1.200   9.248  20.149  0.00  0.00    +0.000 A 
ATOM      6  C   UNL     1       1.794   8.133  19.578  0.00  0.00    +0.000 A 
ENDROOT
BRANCH   5   7
ATOM      7  C   UNL     1       1.045  10.521  19.519  0.00  0.00    +0.000 C 
ATOM      8  C   UNL     1      -0.046  10.944  18.870  0.00  0.00    +0.000 C 
ATOM      9  S   UNL     1      -1.550  10.120  18.667  0.00  0.00    +0.000 S 
ATOM     10  C   UNL     1      -2.208  11.397  17.663  0.00  0.00    +0.000 C 
ATOM     11  S   UNL     1      -3.698  11.403  16.936  0.00  0.00    +0.000 S 
ATOM     12  N   UNL     1      -1.312  12.404  17.554  0.00  0.00    +0.000 N 
ATOM     13  C   UNL     1      -0.092  12.267  18.176  0.00  0.00    +0.000 C 
ATOM     14  O   UNL     1       0.792  13.090  18.162  0.00  0.00    +0.000 OA
ATOM     15  H   UNL     1      -1.510  13.242  17.022  0.00  0.00    +0.000 HD
ENDBRANCH   5   7
BRANCH   4  16
ATOM     16  C   UNL     1       0.109   9.733  22.483  0.00  0.00    +0.000 C 
ATOM     17  F   UNL     1       0.546   9.518  23.752  0.00  0.00    +0.000 F 
ATOM     18  F   UNL     1       0.277  11.062  22.234  0.00  0.00    +0.000 F 
ATOM     19  F   UNL     1      -1.237   9.519  22.497  0.00  0.00    +0.000 F 
ENDBRANCH   4  16
BRANCH   6  20
ATOM     20  S   UNL     1       2.624   8.096  18.035  0.00  0.00    +0.000 S 
BRANCH  20  21
ATOM     21  C   UNL     1       3.249   6.455  17.612  0.00  0.00    +0.000 C 
BRANCH  21  22
ATOM     22  C   UNL     1       4.762   6.332  17.807  0.00  0.00    +0.000 A 
ATOM     23  C   UNL     1       5.558   7.330  17.206  0.00  0.00    +0.000 A 
ATOM     24  C   UNL     1       6.950   7.337  17.343  0.00  0.00    +0.000 A 
ATOM     25  C   UNL     1       7.590   6.365  18.075  0.00  0.00    +0.000 A 
ATOM     26  C   UNL     1       6.836   5.361  18.678  0.00  0.00    +0.000 A 
ATOM     27  C   UNL     1       5.438   5.328  18.534  0.00  0.00    +0.000 A 
ATOM     28 CL   UNL     1       4.667   3.983  19.295  0.00  0.00    +0.000 Cl
ENDBRANCH  21  22
ENDBRANCH  20  21
ENDBRANCH   6  20
TORSDOF 5
ENDMDL
MODEL 7
REMARK VINA RESULT:      -5.9      3.270      4.717
REMARK  Name = 
REMARK  6 active torsions:
REMARK  status: ('A' for Active; 'I' for Inactive)
REMARK    1  A    between atoms: C_1  and  N_2
REMARK    2  A    between atoms: C_4  and  C_5
REMARK    3  A    between atoms: C_9  and  C_10
REMARK    4  A    between atoms: C_18  and  S_19
REMARK    5  A    between atoms: S_19  and  C_20
REMARK    6  A    between atoms: C_20  and  C_21
REMARK                            x       y       z     vdW  Elec       q    Type
REMARK                         _______ _______ _______ _____ _____    ______ ____
ROOT
ATOM      1  C   UNL     1       7.480   7.529  17.460  0.00  0.00    +0.000 C 
ATOM      2  N   UNL     1       6.150   6.969  17.397  0.00  0.00    +0.000 N 
ATOM      3  N   UNL     1       5.115   7.810  17.655  0.00  0.00    +0.000 NA
ATOM      4  C   UNL     1       4.018   7.026  17.657  0.00  0.00    +0.000 A 
ATOM      5  C   UNL     1       4.379   5.681  17.377  0.00  0.00    +0.000 A 
ATOM      6  C   UNL     1       5.752   5.670  17.181  0.00  0.00    +0.000 A 
ENDROOT
BRANCH   5   7
ATOM      7  C   UNL     1       3.520   4.541  17.294  0.00  0.00    +0.000 C 
ATOM      8  C   UNL     1       2.930   3.931  18.330  0.00  0.00    +0.000 C 
ATOM      9  S   UNL     1       2.993   4.368  19.999  0.00  0.00    +0.000 S 
ATOM     10  C   UNL     1       2.044   2.976  20.484  0.00  0.00    +0.000 C 
ATOM     11  S   UNL     1       1.641   2.558  22.035  0.00  0.00    +0.000 S 
ATOM     12  N   UNL     1       1.678   2.267  19.392  0.00  0.00    +0.000 N 
ATOM     13  C   UNL     1       2.105   2.698  18.157  0.00  0.00    +0.000 C 
ATOM     14  O   UNL     1       1.846   2.162  17.105  0.00  0.00    +0.000 OA
ATOM     15  H   UNL     1       1.114   1.430  19.462  0.00  0.00    +0.000 HD
ENDBRANCH   5   7
BRANCH   4  16
ATOM     16  C   UNL     1       2.636   7.556  17.939  0.00  0.00    +0.000 C 
ATOM     17  F   UNL     1       2.385   8.751  17.342  0.00  0.00    +0.000 F 
ATOM     18  F   UNL     1       1.661   6.700  17.522  0.00  0.00    +0.000 F 
ATOM     19  F   UNL     1       2.430   7.740  19.274  0.00  0.00    +0.000 F 
ENDBRANCH   4  16
BRANCH   6  20
ATOM     20  S   UNL     1       6.694   4.298  16.633  0.00  0.00    +0.000 S 
BRANCH  20  21
ATOM     21  C   UNL     1       6.031   3.546  15.131  0.00  0.00    +0.000 C 
BRANCH  21  22
ATOM     22  C   UNL     1       6.635   4.140  13.857  0.00  0.00    +0.000 A 
ATOM     23  C   UNL     1       7.530   5.217  14.027  0.00  0.00    +0.000 A 
ATOM     24  C   UNL     1       8.166   5.820  12.936  0.00  0.00    +0.000 A 
ATOM     25  C   UNL     1       7.938   5.376  11.656  0.00  0.00    +0.000 A 
ATOM     26  C   UNL     1       7.055   4.318  11.450  0.00  0.00    +0.000 A 
ATOM     27  C   UNL     1       6.392   3.714  12.532  0.00  0.00    +0.000 A 
ATOM     28 CL   UNL     1       5.289   2.460  12.094  0.00  0.00    +0.000 Cl
ENDBRANCH  21  22
ENDBRANCH  20  21
ENDBRANCH   6  20
TORSDOF 5
ENDMDL
MODEL 8
REMARK VINA RESULT:      -5.9      3.479      6.471
REMARK  Name = 
REMARK  6 active torsions:
REMARK  status: ('A' for Active; 'I' for Inactive)
REMARK    1  A    between atoms: C_1  and  N_2
REMARK    2  A    between atoms: C_4  and  C_5
REMARK    3  A    between atoms: C_9  and  C_10
REMARK    4  A    between atoms: C_18  and  S_19
REMARK    5  A    between atoms: S_19  and  C_20
REMARK    6  A    between atoms: C_20  and  C_21
REMARK                            x       y       z     vdW  Elec       q    Type
REMARK                         _______ _______ _______ _____ _____    ______ ____
ROOT
ATOM      1  C   UNL     1       0.331   4.796  20.498  0.00  0.00    +0.000 C 
ATOM      2  N   UNL     1       1.701   4.650  20.064  0.00  0.00    +0.000 N 
ATOM      3  N   UNL     1       2.215   3.393  20.063  0.00  0.00    +0.000 NA
ATOM      4  C   UNL     1       3.517   3.547  19.747  0.00  0.00    +0.000 A 
ATOM      5  C   UNL     1       3.807   4.921  19.530  0.00  0.00    +0.000 A 
ATOM      6  C   UNL     1       2.618   5.612  19.708  0.00  0.00    +0.000 A 
ENDROOT
BRANCH   5   7
ATOM      7  C   UNL     1       5.064   5.508  19.184  0.00  0.00    +0.000 C 
ATOM      8  C   UNL     1       5.640   5.467  17.976  0.00  0.00    +0.000 C 
ATOM      9  S   UNL     1       5.020   4.765  16.526  0.00  0.00    +0.000 S 
ATOM     10  C   UNL     1       6.477   5.138  15.625  0.00  0.00    +0.000 C 
ATOM     11  S   UNL     1       6.780   4.742  14.045  0.00  0.00    +0.000 S 
ATOM     12  N   UNL     1       7.346   5.808  16.416  0.00  0.00    +0.000 N 
ATOM     13  C   UNL     1       6.993   6.047  17.724  0.00  0.00    +0.000 C 
ATOM     14  O   UNL     1       7.672   6.637  18.531  0.00  0.00    +0.000 OA
ATOM     15  H   UNL     1       8.245   6.123  16.075  0.00  0.00    +0.000 HD
ENDBRANCH   5   7
BRANCH   4  16
ATOM     16  C   UNL     1       4.481   2.391  19.666  0.00  0.00    +0.000 C 
ATOM     17  F   UNL     1       5.675   2.724  19.109  0.00  0.00    +0.000 F 
ATOM     18  F   UNL     1       4.757   1.864  20.892  0.00  0.00    +0.000 F 
ATOM     19  F   UNL     1       3.978   1.368  18.920  0.00  0.00    +0.000 F 
ENDBRANCH   4  16
BRANCH   6  20
ATOM     20  S   UNL     1       2.369   7.316  19.388  0.00  0.00    +0.000 S 
BRANCH  20  21
ATOM     21  C   UNL     1       1.650   8.197  20.791  0.00  0.00    +0.000 C 
BRANCH  21  22
ATOM     22  C   UNL     1       0.753   9.360  20.361  0.00  0.00    +0.000 A 
ATOM     23  C   UNL     1       0.797   9.718  18.997  0.00  0.00    +0.000 A 
ATOM     24  C   UNL     1      -0.002  10.745  18.484  0.00  0.00    +0.000 A 
ATOM     25  C   UNL     1      -0.863  11.441  19.299  0.00  0.00    +0.000 A 
ATOM     26  C   UNL     1      -0.928  11.119  20.652  0.00  0.00    +0.000 A 
ATOM     27  C   UNL     1      -0.117  10.103  21.189  0.00  0.00    +0.000 A 
ATOM     28 CL   UNL     1      -0.280   9.874  22.892  0.00  0.00    +0.000 Cl
ENDBRANCH  21  22
ENDBRANCH  20  21
ENDBRANCH   6  20
TORSDOF 5
ENDMDL
MODEL 9
REMARK VINA RESULT:      -5.8      4.109      5.886
REMARK  Name = 
REMARK  6 active torsions:
REMARK  status: ('A' for Active; 'I' for Inactive)
REMARK    1  A    between atoms: C_1  and  N_2
REMARK    2  A    between atoms: C_4  and  C_5
REMARK    3  A    between atoms: C_9  and  C_10
REMARK    4  A    between atoms: C_18  and  S_19
REMARK    5  A    between atoms: S_19  and  C_20
REMARK    6  A    between atoms: C_20  and  C_21
REMARK                            x       y       z     vdW  Elec       q    Type
REMARK                         _______ _______ _______ _____ _____    ______ ____
ROOT
ATOM      1  C   UNL     1       1.740   6.231  20.659  0.00  0.00    +0.000 C 
ATOM      2  N   UNL     1       1.368   7.627  20.682  0.00  0.00    +0.000 N 
ATOM      3  N   UNL     1       0.869   8.111  21.848  0.00  0.00    +0.000 NA
ATOM      4  C   UNL     1       0.489   9.375  21.569  0.00  0.00    +0.000 A 
ATOM      5  C   UNL     1       0.777   9.682  20.212  0.00  0.00    +0.000 A 
ATOM      6  C   UNL     1       1.371   8.555  19.666  0.00  0.00    +0.000 A 
ENDROOT
BRANCH   5   7
ATOM      7  C   UNL     1       0.526  10.906  19.518  0.00  0.00    +0.000 C 
ATOM      8  C   UNL     1      -0.513  11.147  18.709  0.00  0.00    +0.000 C 
ATOM      9  S   UNL     1      -1.832  10.100  18.331  0.00  0.00    +0.000 S 
ATOM     10  C   UNL     1      -2.524  11.244  17.198  0.00  0.00    +0.000 C 
ATOM     11  S   UNL     1      -3.879  11.010  16.273  0.00  0.00    +0.000 S 
ATOM     12  N   UNL     1      -1.781  12.374  17.175  0.00  0.00    +0.000 N 
ATOM     13  C   UNL     1      -0.656  12.435  17.965  0.00  0.00    +0.000 C 
ATOM     14  O   UNL     1       0.089  13.383  18.043  0.00  0.00    +0.000 OA
ATOM     15  H   UNL     1      -2.024  13.162  16.590  0.00  0.00    +0.000 HD
ENDBRANCH   5   7
BRANCH   4  16
ATOM     16  C   UNL     1      -0.157  10.278  22.588  0.00  0.00    +0.000 C 
ATOM     17  F   UNL     1       0.020   9.858  23.869  0.00  0.00    +0.000 F 
ATOM     18  F   UNL     1       0.323  11.552  22.526  0.00  0.00    +0.000 F 
ATOM     19  F   UNL     1      -1.503  10.372  22.395  0.00  0.00    +0.000 F 
ENDBRANCH   4  16
BRANCH   6  20
ATOM     20  S   UNL     1       2.086   8.448  18.070  0.00  0.00    +0.000 S 
BRANCH  20  21
ATOM     21  C   UNL     1       3.649   7.544  18.059  0.00  0.00    +0.000 C 
BRANCH  21  22
ATOM     22  C   UNL     1       3.464   6.049  17.791  0.00  0.00    +0.000 A 
ATOM     23  C   UNL     1       2.137   5.572  17.772  0.00  0.00    +0.000 A 
ATOM     24  C   UNL     1       1.845   4.230  17.506  0.00  0.00    +0.000 A 
ATOM     25  C   UNL     1       2.851   3.328  17.251  0.00  0.00    +0.000 A 
ATOM     26  C   UNL     1       4.174   3.763  17.268  0.00  0.00    +0.000 A 
ATOM     27  C   UNL     1       4.487   5.104  17.553  0.00  0.00    +0.000 A 
ATOM     28 CL   UNL     1       6.176   5.458  17.592  0.00  0.00    +0.000 Cl
ENDBRANCH  21  22
ENDBRANCH  20  21
ENDBRANCH   6  20
TORSDOF 5
ENDMDL
