MODEL 1
REMARK VINA RESULT:      -7.0      0.000      0.000
REMARK  Name = 
REMARK  7 active torsions:
REMARK  status: ('A' for Active; 'I' for Inactive)
REMARK    1  A    between atoms: C_1  and  O_2
REMARK    2  A    between atoms: O_2  and  C_3
REMARK    3  A    between atoms: C_6  and  C_7
REMARK    4  A    between atoms: C_7  and  N_8
REMARK    5  A    between atoms: N_8  and  C_9
REMARK    6  A    between atoms: C_18  and  O_19
REMARK    7  A    between atoms: O_19  and  C_20
REMARK                            x       y       z     vdW  Elec       q    Type
REMARK                         _______ _______ _______ _____ _____    ______ ____
ROOT
ATOM      1  C   UNL     1       6.771   4.221  17.710  0.00  0.00    +0.000 C 
ENDROOT
BRANCH   1   5
ATOM      2  C   UNL     1       7.996   8.311  17.949  0.00  0.00    +0.000 A 
ATOM      3  C   UNL     1       8.385   7.465  18.971  0.00  0.00    +0.000 A 
ATOM      4  C   UNL     1       7.974   6.130  18.913  0.00  0.00    +0.000 A 
ATOM      5  C   UNL     1       7.168   5.674  17.858  0.00  0.00    +0.000 A 
ATOM      6  C   UNL     1       6.851   6.619  16.876  0.00  0.00    +0.000 A 
ATOM      7  N   UNL     1       7.248   7.909  16.910  0.00  0.00    +0.000 NA
BRANCH   2   9
ATOM      8  C   UNL     1       9.199   9.902  19.163  0.00  0.00    +0.000 C 
ATOM      9  O   UNL     1       8.400   9.629  18.009  0.00  0.00    +0.000 OA
ENDBRANCH   2   9
BRANCH   6  10
ATOM     10  O   UNL     1       6.075   6.222  15.805  0.00  0.00    +0.000 OA
ATOM     11  C   UNL     1       4.810   6.886  15.773  0.00  0.00    +0.000 C 
ENDBRANCH   6  10
ENDBRANCH   1   5
BRANCH   1  12
ATOM     12  N   UNL     1       5.784   3.765  18.701  0.00  0.00    +0.000 NA
ATOM     13  H   UNL     1       6.138   3.936  19.640  0.00  0.00    +0.000 HD
BRANCH  12  14
ATOM     14  C   UNL     1       4.438   4.298  18.407  0.00  0.00    +0.000 C 
ATOM     15  C   UNL     1       3.926   3.550  17.146  0.00  0.00    +0.000 C 
ATOM     16  C   UNL     1       3.216   2.536  18.066  0.00  0.00    +0.000 C 
ATOM     17  C   UNL     1       3.271   3.597  19.210  0.00  0.00    +0.000 C 
ATOM     18  C   UNL     1       3.553   3.044  20.613  0.00  0.00    +0.000 C 
ATOM     19  C   UNL     1       2.299   2.408  21.200  0.00  0.00    +0.000 C 
ATOM     20  O   UNL     1       1.242   3.366  21.261  0.00  0.00    +0.000 OA
ATOM     21  C   UNL     1       0.858   3.789  19.954  0.00  0.00    +0.000 C 
ATOM     22  C   UNL     1       2.016   4.507  19.265  0.00  0.00    +0.000 C 
ENDBRANCH  12  14
ENDBRANCH   1  12
TORSDOF 5
ENDMDL
MODEL 2
REMARK VINA RESULT:      -6.9      5.154      6.586
REMARK  Name = 
REMARK  7 active torsions:
REMARK  status: ('A' for Active; 'I' for Inactive)
REMARK    1  A    between atoms: C_1  and  O_2
REMARK    2  A    between atoms: O_2  and  C_3
REMARK    3  A    between atoms: C_6  and  C_7
REMARK    4  A    between atoms: C_7  and  N_8
REMARK    5  A    between atoms: N_8  and  C_9
REMARK    6  A    between atoms: C_18  and  O_19
REMARK    7  A    between atoms: O_19  and  C_20
REMARK                            x       y       z     vdW  Elec       q    Type
REMARK                         _______ _______ _______ _____ _____    ______ ____
ROOT
ATOM      1  C   UNL     1       1.753   8.552  18.815  0.00  0.00    +0.000 C 
ENDROOT
BRANCH   1   5
ATOM      2  C   UNL     1      -0.157  10.243  22.247  0.00  0.00    +0.000 A 
ATOM      3  C   UNL     1       0.674   9.156  22.447  0.00  0.00    +0.000 A 
ATOM      4  C   UNL     1       1.289   8.582  21.330  0.00  0.00    +0.000 A 
ATOM      5  C   UNL     1       1.045   9.086  20.042  0.00  0.00    +0.000 A 
ATOM      6  C   UNL     1       0.197  10.196  19.967  0.00  0.00    +0.000 A 
ATOM      7  N   UNL     1      -0.396  10.769  21.036  0.00  0.00    +0.000 NA
BRANCH   2   9
ATOM      8  C   UNL     1      -1.802  11.722  22.993  0.00  0.00    +0.000 C 
ATOM      9  O   UNL     1      -0.765  10.805  23.350  0.00  0.00    +0.000 OA
ENDBRANCH   2   9
BRANCH   6  10
ATOM     10  O   UNL     1      -0.065  10.744  18.727  0.00  0.00    +0.000 OA
ATOM     11  C   UNL     1      -1.411  10.514  18.304  0.00  0.00    +0.000 C 
ENDBRANCH   6  10
ENDBRANCH   1   5
BRANCH   1  12
ATOM     12  N   UNL     1       2.684   7.446  19.093  0.00  0.00    +0.000 NA
ATOM     13  H   UNL     1       2.670   7.229  20.087  0.00  0.00    +0.000 HD
BRANCH  12  14
ATOM     14  C   UNL     1       2.462   6.310  18.175  0.00  0.00    +0.000 C 
ATOM     15  C   UNL     1       3.863   5.771  17.781  0.00  0.00    +0.000 C 
ATOM     16  C   UNL     1       3.762   4.741  18.925  0.00  0.00    +0.000 C 
ATOM     17  C   UNL     1       2.212   4.928  18.901  0.00  0.00    +0.000 C 
ATOM     18  C   UNL     1       1.522   4.914  20.271  0.00  0.00    +0.000 C 
ATOM     19  C   UNL     1       1.389   3.487  20.789  0.00  0.00    +0.000 C 
ATOM     20  O   UNL     1       0.644   2.694  19.863  0.00  0.00    +0.000 OA
ATOM     21  C   UNL     1       1.337   2.569  18.623  0.00  0.00    +0.000 C 
ATOM     22  C   UNL     1       1.488   3.933  17.956  0.00  0.00    +0.000 C 
ENDBRANCH  12  14
ENDBRANCH   1  12
TORSDOF 5
ENDMDL
MODEL 3
REMARK VINA RESULT:      -6.8      2.216      3.811
REMARK  Name = 
REMARK  7 active torsions:
REMARK  status: ('A' for Active; 'I' for Inactive)
REMARK    1  A    between atoms: C_1  and  O_2
REMARK    2  A    between atoms: O_2  and  C_3
REMARK    3  A    between atoms: C_6  and  C_7
REMARK    4  A    between atoms: C_7  and  N_8
REMARK    5  A    between atoms: N_8  and  C_9
REMARK    6  A    between atoms: C_18  and  O_19
REMARK    7  A    between atoms: O_19  and  C_20
REMARK                            x       y       z     vdW  Elec       q    Type
REMARK                         _______ _______ _______ _____ _____    ______ ____
ROOT
ATOM      1  C   UNL     1       6.438   4.677  18.358  0.00  0.00    +0.000 C 
ENDROOT
BRANCH   1   5
ATOM      2  C   UNL     1       6.750   4.602  14.094  0.00  0.00    +0.000 A 
ATOM      3  C   UNL     1       6.001   3.610  14.699  0.00  0.00    +0.000 A 
ATOM      4  C   UNL     1       5.908   3.613  16.094  0.00  0.00    +0.000 A 
ATOM      5  C   UNL     1       6.579   4.584  16.854  0.00  0.00    +0.000 A 
ATOM      6  C   UNL     1       7.294   5.544  16.129  0.00  0.00    +0.000 A 
ATOM      7  N   UNL     1       7.385   5.562  14.782  0.00  0.00    +0.000 NA
BRANCH   2   9
ATOM      8  C   UNL     1       6.378   3.370  12.146  0.00  0.00    +0.000 C 
ATOM      9  O   UNL     1       6.843   4.595  12.718  0.00  0.00    +0.000 OA
ENDBRANCH   2   9
BRANCH   6  10
ATOM     10  O   UNL     1       7.960   6.534  16.824  0.00  0.00    +0.000 OA
ATOM     11  C   UNL     1       7.090   7.593  17.232  0.00  0.00    +0.000 C 
ENDBRANCH   6  10
ENDBRANCH   1   5
BRANCH   1  12
ATOM     12  N   UNL     1       5.513   3.689  18.936  0.00  0.00    +0.000 NA
ATOM     13  H   UNL     1       6.043   2.945  19.383  0.00  0.00    +0.000 HD
BRANCH  12  14
ATOM     14  C   UNL     1       4.479   4.340  19.767  0.00  0.00    +0.000 C 
ATOM     15  C   UNL     1       4.158   5.703  19.097  0.00  0.00    +0.000 C 
ATOM     16  C   UNL     1       2.991   5.031  18.344  0.00  0.00    +0.000 C 
ATOM     17  C   UNL     1       2.998   3.903  19.423  0.00  0.00    +0.000 C 
ATOM     18  C   UNL     1       2.738   2.484  18.901  0.00  0.00    +0.000 C 
ATOM     19  C   UNL     1       1.253   2.278  18.628  0.00  0.00    +0.000 C 
ATOM     20  O   UNL     1       0.497   2.502  19.820  0.00  0.00    +0.000 OA
ATOM     21  C   UNL     1       0.605   3.859  20.247  0.00  0.00    +0.000 C 
ATOM     22  C   UNL     1       2.049   4.188  20.616  0.00  0.00    +0.000 C 
ENDBRANCH  12  14
ENDBRANCH   1  12
TORSDOF 5
ENDMDL
MODEL 4
REMARK VINA RESULT:      -6.8      2.316      3.928
REMARK  Name = 
REMARK  7 active torsions:
REMARK  status: ('A' for Active; 'I' for Inactive)
REMARK    1  A    between atoms: C_1  and  O_2
REMARK    2  A    between atoms: O_2  and  C_3
REMARK    3  A    between atoms: C_6  and  C_7
REMARK    4  A    between atoms: C_7  and  N_8
REMARK    5  A    between atoms: N_8  and  C_9
REMARK    6  A    between atoms: C_18  and  O_19
REMARK    7  A    between atoms: O_19  and  C_20
REMARK                            x       y       z     vdW  Elec       q    Type
REMARK                         _______ _______ _______ _____ _____    ______ ____
ROOT
ATOM      1  C   UNL     1       5.468   4.771  18.223  0.00  0.00    +0.000 C 
ENDROOT
BRANCH   1   5
ATOM      2  C   UNL     1       6.932   4.801  14.205  0.00  0.00    +0.000 A 
ATOM      3  C   UNL     1       5.798   4.056  14.468  0.00  0.00    +0.000 A 
ATOM      4  C   UNL     1       5.321   4.022  15.782  0.00  0.00    +0.000 A 
ATOM      5  C   UNL     1       5.995   4.709  16.804  0.00  0.00    +0.000 A 
ATOM      6  C   UNL     1       7.123   5.439  16.414  0.00  0.00    +0.000 A 
ATOM      7  N   UNL     1       7.590   5.491  15.149  0.00  0.00    +0.000 NA
BRANCH   2   9
ATOM      8  C   UNL     1       6.845   3.788  12.103  0.00  0.00    +0.000 C 
ATOM      9  O   UNL     1       7.402   4.829  12.908  0.00  0.00    +0.000 OA
ENDBRANCH   2   9
BRANCH   6  10
ATOM     10  O   UNL     1       7.815   6.147  17.376  0.00  0.00    +0.000 OA
ATOM     11  C   UNL     1       7.505   7.542  17.354  0.00  0.00    +0.000 C 
ENDBRANCH   6  10
ENDBRANCH   1   5
BRANCH   1  12
ATOM     12  N   UNL     1       4.400   5.763  18.423  0.00  0.00    +0.000 NA
ATOM     13  H   UNL     1       3.810   5.802  17.595  0.00  0.00    +0.000 HD
BRANCH  12  14
ATOM     14  C   UNL     1       3.703   5.553  19.708  0.00  0.00    +0.000 C 
ATOM     15  C   UNL     1       2.548   6.588  19.767  0.00  0.00    +0.000 C 
ATOM     16  C   UNL     1       1.596   5.522  19.188  0.00  0.00    +0.000 C 
ATOM     17  C   UNL     1       2.596   4.425  19.671  0.00  0.00    +0.000 C 
ATOM     18  C   UNL     1       2.774   3.229  18.726  0.00  0.00    +0.000 C 
ATOM     19  C   UNL     1       1.595   2.272  18.844  0.00  0.00    +0.000 C 
ATOM     20  O   UNL     1       1.467   1.811  20.190  0.00  0.00    +0.000 OA
ATOM     21  C   UNL     1       1.154   2.887  21.072  0.00  0.00    +0.000 C 
ATOM     22  C   UNL     1       2.292   3.903  21.100  0.00  0.00    +0.000 C 
ENDBRANCH  12  14
ENDBRANCH   1  12
TORSDOF 5
ENDMDL
MODEL 5
REMARK VINA RESULT:      -6.8      2.149      3.761
REMARK  Name = 
REMARK  7 active torsions:
REMARK  status: ('A' for Active; 'I' for Inactive)
REMARK    1  A    between atoms: C_1  and  O_2
REMARK    2  A    between atoms: O_2  and  C_3
REMARK    3  A    between atoms: C_6  and  C_7
REMARK    4  A    between atoms: C_7  and  N_8
REMARK    5  A    between atoms: N_8  and  C_9
REMARK    6  A    between atoms: C_18  and  O_19
REMARK    7  A    between atoms: O_19  and  C_20
REMARK                            x       y       z     vdW  Elec       q    Type
REMARK                         _______ _______ _______ _____ _____    ______ ____
ROOT
ATOM      1  C   UNL     1       5.504   4.991  18.380  0.00  0.00    +0.000 C 
ENDROOT
BRANCH   1   5
ATOM      2  C   UNL     1       6.836   4.834  14.320  0.00  0.00    +0.000 A 
ATOM      3  C   UNL     1       5.693   4.129  14.647  0.00  0.00    +0.000 A 
ATOM      4  C   UNL     1       5.259   4.156  15.975  0.00  0.00    +0.000 A 
ATOM      5  C   UNL     1       5.982   4.863  16.949  0.00  0.00    +0.000 A 
ATOM      6  C   UNL     1       7.114   5.549  16.496  0.00  0.00    +0.000 A 
ATOM      7  N   UNL     1       7.541   5.542  15.215  0.00  0.00    +0.000 NA
BRANCH   2   9
ATOM      8  C   UNL     1       6.678   3.728  12.269  0.00  0.00    +0.000 C 
ATOM      9  O   UNL     1       7.265   4.802  13.009  0.00  0.00    +0.000 OA
ENDBRANCH   2   9
BRANCH   6  10
ATOM     10  O   UNL     1       7.854   6.275  17.408  0.00  0.00    +0.000 OA
ATOM     11  C   UNL     1       7.569   7.674  17.350  0.00  0.00    +0.000 C 
ENDBRANCH   6  10
ENDBRANCH   1   5
BRANCH   1  12
ATOM     12  N   UNL     1       5.592   3.744  19.156  0.00  0.00    +0.000 NA
ATOM     13  H   UNL     1       5.815   3.959  20.126  0.00  0.00    +0.000 HD
BRANCH  12  14
ATOM     14  C   UNL     1       4.408   2.888  18.937  0.00  0.00    +0.000 C 
ATOM     15  C   UNL     1       4.557   1.665  19.882  0.00  0.00    +0.000 C 
ATOM     16  C   UNL     1       3.706   2.406  20.934  0.00  0.00    +0.000 C 
ATOM     17  C   UNL     1       3.140   3.301  19.786  0.00  0.00    +0.000 C 
ATOM     18  C   UNL     1       2.925   4.777  20.143  0.00  0.00    +0.000 C 
ATOM     19  C   UNL     1       1.655   4.950  20.967  0.00  0.00    +0.000 C 
ATOM     20  O   UNL     1       0.527   4.457  20.242  0.00  0.00    +0.000 OA
ATOM     21  C   UNL     1       0.632   3.052  20.024  0.00  0.00    +0.000 C 
ATOM     22  C   UNL     1       1.843   2.737  19.150  0.00  0.00    +0.000 C 
ENDBRANCH  12  14
ENDBRANCH   1  12
TORSDOF 5
ENDMDL
MODEL 6
REMARK VINA RESULT:      -6.7      1.054      1.261
REMARK  Name = 
REMARK  7 active torsions:
REMARK  status: ('A' for Active; 'I' for Inactive)
REMARK    1  A    between atoms: C_1  and  O_2
REMARK    2  A    between atoms: O_2  and  C_3
REMARK    3  A    between atoms: C_6  and  C_7
REMARK    4  A    between atoms: C_7  and  N_8
REMARK    5  A    between atoms: N_8  and  C_9
REMARK    6  A    between atoms: C_18  and  O_19
REMARK    7  A    between atoms: O_19  and  C_20
REMARK                            x       y       z     vdW  Elec       q    Type
REMARK                         _______ _______ _______ _____ _____    ______ ____
ROOT
ATOM      1  C   UNL     1       6.475   4.211  17.856  0.00  0.00    +0.000 C 
ENDROOT
BRANCH   1   5
ATOM      2  C   UNL     1       8.091   8.170  17.872  0.00  0.00    +0.000 A 
ATOM      3  C   UNL     1       8.330   7.376  18.978  0.00  0.00    +0.000 A 
ATOM      4  C   UNL     1       7.790   6.087  18.993  0.00  0.00    +0.000 A 
ATOM      5  C   UNL     1       7.008   5.626  17.922  0.00  0.00    +0.000 A 
ATOM      6  C   UNL     1       6.847   6.514  16.853  0.00  0.00    +0.000 A 
ATOM      7  N   UNL     1       7.370   7.759  16.818  0.00  0.00    +0.000 NA
BRANCH   2   9
ATOM      8  C   UNL     1       9.095   9.848  19.148  0.00  0.00    +0.000 C 
ATOM      9  O   UNL     1       8.621   9.443  17.861  0.00  0.00    +0.000 OA
ENDBRANCH   2   9
BRANCH   6  10
ATOM     10  O   UNL     1       6.101   6.108  15.765  0.00  0.00    +0.000 OA
ATOM     11  C   UNL     1       6.873   5.361  14.823  0.00  0.00    +0.000 C 
ENDBRANCH   6  10
ENDBRANCH   1   5
BRANCH   1  12
ATOM     12  N   UNL     1       5.032   4.125  17.581  0.00  0.00    +0.000 NA
ATOM     13  H   UNL     1       4.776   3.157  17.396  0.00  0.00    +0.000 HD
BRANCH  12  14
ATOM     14  C   UNL     1       4.243   4.819  18.619  0.00  0.00    +0.000 C 
ATOM     15  C   UNL     1       3.331   5.837  17.884  0.00  0.00    +0.000 C 
ATOM     16  C   UNL     1       2.205   4.783  17.870  0.00  0.00    +0.000 C 
ATOM     17  C   UNL     1       2.925   4.059  19.051  0.00  0.00    +0.000 C 
ATOM     18  C   UNL     1       2.895   2.525  19.005  0.00  0.00    +0.000 C 
ATOM     19  C   UNL     1       1.535   2.003  19.452  0.00  0.00    +0.000 C 
ATOM     20  O   UNL     1       1.245   2.454  20.776  0.00  0.00    +0.000 OA
ATOM     21  C   UNL     1       1.122   3.874  20.818  0.00  0.00    +0.000 C 
ATOM     22  C   UNL     1       2.447   4.535  20.448  0.00  0.00    +0.000 C 
ENDBRANCH  12  14
ENDBRANCH   1  12
TORSDOF 5
ENDMDL
MODEL 7
REMARK VINA RESULT:      -6.6      5.402      6.914
REMARK  Name = 
REMARK  7 active torsions:
REMARK  status: ('A' for Active; 'I' for Inactive)
REMARK    1  A    between atoms: C_1  and  O_2
REMARK    2  A    between atoms: O_2  and  C_3
REMARK    3  A    between atoms: C_6  and  C_7
REMARK    4  A    between atoms: C_7  and  N_8
REMARK    5  A    between atoms: N_8  and  C_9
REMARK    6  A    between atoms: C_18  and  O_19
REMARK    7  A    between atoms: O_19  and  C_20
REMARK                            x       y       z     vdW  Elec       q    Type
REMARK                         _______ _______ _______ _____ _____    ______ ____
ROOT
ATOM      1  C   UNL     1       1.667   8.624  19.475  0.00  0.00    +0.000 C 
ENDROOT
BRANCH   1   5
ATOM      2  C   UNL     1      -0.448  10.697  22.560  0.00  0.00    +0.000 A 
ATOM      3  C   UNL     1      -0.426   9.316  22.615  0.00  0.00    +0.000 A 
ATOM      4  C   UNL     1       0.245   8.627  21.600  0.00  0.00    +0.000 A 
ATOM      5  C   UNL     1       0.857   9.323  20.546  0.00  0.00    +0.000 A 
ATOM      6  C   UNL     1       0.781  10.719  20.607  0.00  0.00    +0.000 A 
ATOM      7  N   UNL     1       0.146  11.400  21.584  0.00  0.00    +0.000 NA
BRANCH   2   9
ATOM      8  C   UNL     1      -2.366  11.904  23.118  0.00  0.00    +0.000 C 
ATOM      9  O   UNL     1      -1.114  11.375  23.560  0.00  0.00    +0.000 OA
ENDBRANCH   2   9
BRANCH   6  10
ATOM     10  O   UNL     1       1.381  11.456  19.605  0.00  0.00    +0.000 OA
ATOM     11  C   UNL     1       0.483  12.395  19.009  0.00  0.00    +0.000 C 
ENDBRANCH   6  10
ENDBRANCH   1   5
BRANCH   1  12
ATOM     12  N   UNL     1       2.277   7.359  19.914  0.00  0.00    +0.000 NA
ATOM     13  H   UNL     1       1.795   7.015  20.741  0.00  0.00    +0.000 HD
BRANCH  12  14
ATOM     14  C   UNL     1       2.406   6.405  18.793  0.00  0.00    +0.000 C 
ATOM     15  C   UNL     1       3.918   6.078  18.653  0.00  0.00    +0.000 C 
ATOM     16  C   UNL     1       3.708   4.843  19.553  0.00  0.00    +0.000 C 
ATOM     17  C   UNL     1       2.189   4.892  19.198  0.00  0.00    +0.000 C 
ATOM     18  C   UNL     1       1.229   4.554  20.345  0.00  0.00    +0.000 C 
ATOM     19  C   UNL     1       1.174   3.048  20.572  0.00  0.00    +0.000 C 
ATOM     20  O   UNL     1       0.755   2.385  19.378  0.00  0.00    +0.000 OA
ATOM     21  C   UNL     1       1.708   2.562  18.332  0.00  0.00    +0.000 C 
ATOM     22  C   UNL     1       1.819   4.037  17.957  0.00  0.00    +0.000 C 
ENDBRANCH  12  14
ENDBRANCH   1  12
TORSDOF 5
ENDMDL
MODEL 8
REMARK VINA RESULT:      -6.6      2.746      4.356
REMARK  Name = 
REMARK  7 active torsions:
REMARK  status: ('A' for Active; 'I' for Inactive)
REMARK    1  A    between atoms: C_1  and  O_2
REMARK    2  A    between atoms: O_2  and  C_3
REMARK    3  A    between atoms: C_6  and  C_7
REMARK    4  A    between atoms: C_7  and  N_8
REMARK    5  A    between atoms: N_8  and  C_9
REMARK    6  A    between atoms: C_18  and  O_19
REMARK    7  A    between atoms: O_19  and  C_20
REMARK                            x       y       z     vdW  Elec       q    Type
REMARK                         _______ _______ _______ _____ _____    ______ ____
ROOT
ATOM      1  C   UNL     1       4.430   3.352  17.680  0.00  0.00    +0.000 C 
ENDROOT
BRANCH   1   5
ATOM      2  C   UNL     1       7.155   5.075  14.871  0.00  0.00    +0.000 A 
ATOM      3  C   UNL     1       5.947   4.608  14.388  0.00  0.00    +0.000 A 
ATOM      4  C   UNL     1       5.056   4.024  15.294  0.00  0.00    +0.000 A 
ATOM      5  C   UNL     1       5.395   3.898  16.650  0.00  0.00    +0.000 A 
ATOM      6  C   UNL     1       6.639   4.420  17.023  0.00  0.00    +0.000 A 
ATOM      7  N   UNL     1       7.506   4.996  16.163  0.00  0.00    +0.000 NA
BRANCH   2   9
ATOM      8  C   UNL     1       7.827   5.185  12.638  0.00  0.00    +0.000 C 
ATOM      9  O   UNL     1       8.034   5.647  13.975  0.00  0.00    +0.000 OA
ENDBRANCH   2   9
BRANCH   6  10
ATOM     10  O   UNL     1       7.018   4.338  18.348  0.00  0.00    +0.000 OA
ATOM     11  C   UNL     1       7.743   5.491  18.779  0.00  0.00    +0.000 C 
ENDBRANCH   6  10
ENDBRANCH   1   5
BRANCH   1  12
ATOM     12  N   UNL     1       3.067   3.897  17.573  0.00  0.00    +0.000 NA
ATOM     13  H   UNL     1       2.475   3.242  17.068  0.00  0.00    +0.000 HD
BRANCH  12  14
ATOM     14  C   UNL     1       2.563   4.349  18.886  0.00  0.00    +0.000 C 
ATOM     15  C   UNL     1       3.756   4.271  19.876  0.00  0.00    +0.000 C 
ATOM     16  C   UNL     1       4.060   5.756  19.590  0.00  0.00    +0.000 C 
ATOM     17  C   UNL     1       2.590   5.918  19.089  0.00  0.00    +0.000 C 
ATOM     18  C   UNL     1       2.402   6.834  17.872  0.00  0.00    +0.000 C 
ATOM     19  C   UNL     1       2.470   8.297  18.289  0.00  0.00    +0.000 C 
ATOM     20  O   UNL     1       1.467   8.579  19.267  0.00  0.00    +0.000 OA
ATOM     21  C   UNL     1       1.704   7.846  20.468  0.00  0.00    +0.000 C 
ATOM     22  C   UNL     1       1.603   6.346  20.206  0.00  0.00    +0.000 C 
ENDBRANCH  12  14
ENDBRANCH   1  12
TORSDOF 5
ENDMDL
MODEL 9
REMARK VINA RESULT:      -6.5      2.157      3.586
REMARK  Name = 
REMARK  7 active torsions:
REMARK  status: ('A' for Active; 'I' for Inactive)
REMARK    1  A    between atoms: C_1  and  O_2
REMARK    2  A    between atoms: O_2  and  C_3
REMARK    3  A    between atoms: C_6  and  C_7
REMARK    4  A    between atoms: C_7  and  N_8
REMARK    5  A    between atoms: N_8  and  C_9
REMARK    6  A    between atoms: C_18  and  O_19
REMARK    7  A    between atoms: O_19  and  C_20
REMARK                            x       y       z     vdW  Elec       q    Type
REMARK                         _______ _______ _______ _____ _____    ______ ____
ROOT
ATOM      1  C   UNL     1       4.062   4.321  17.171  0.00  0.00    +0.000 C 
ENDROOT
BRANCH   1   5
ATOM      2  C   UNL     1       7.290   5.260  14.528  0.00  0.00    +0.000 A 
ATOM      3  C   UNL     1       6.293   4.431  14.051  0.00  0.00    +0.000 A 
ATOM      4  C   UNL     1       5.242   4.101  14.913  0.00  0.00    +0.000 A 
ATOM      5  C   UNL     1       5.220   4.582  16.231  0.00  0.00    +0.000 A 
ATOM      6  C   UNL     1       6.277   5.424  16.595  0.00  0.00    +0.000 A 
ATOM      7  N   UNL     1       7.294   5.761  15.773  0.00  0.00    +0.000 NA
BRANCH   2   9
ATOM      8  C   UNL     1       7.946   5.511  12.302  0.00  0.00    +0.000 C 
ATOM      9  O   UNL     1       8.328   5.581  13.678  0.00  0.00    +0.000 OA
ENDBRANCH   2   9
BRANCH   6  10
ATOM     10  O   UNL     1       6.299   5.940  17.875  0.00  0.00    +0.000 OA
ATOM     11  C   UNL     1       7.518   5.646  18.561  0.00  0.00    +0.000 C 
ENDBRANCH   6  10
ENDBRANCH   1   5
BRANCH   1  12
ATOM     12  N   UNL     1       3.524   5.533  17.810  0.00  0.00    +0.000 NA
ATOM     13  H   UNL     1       3.483   6.289  17.130  0.00  0.00    +0.000 HD
BRANCH  12  14
ATOM     14  C   UNL     1       2.273   5.246  18.541  0.00  0.00    +0.000 C 
ATOM     15  C   UNL     1       1.395   4.374  17.604  0.00  0.00    +0.000 C 
ATOM     16  C   UNL     1       1.967   3.113  18.283  0.00  0.00    +0.000 C 
ATOM     17  C   UNL     1       2.356   3.998  19.508  0.00  0.00    +0.000 C 
ATOM     18  C   UNL     1       3.694   3.654  20.176  0.00  0.00    +0.000 C 
ATOM     19  C   UNL     1       3.552   2.418  21.055  0.00  0.00    +0.000 C 
ATOM     20  O   UNL     1       2.555   2.635  22.054  0.00  0.00    +0.000 OA
ATOM     21  C   UNL     1       1.269   2.813  21.463  0.00  0.00    +0.000 C 
ATOM     22  C   UNL     1       1.249   4.067  20.593  0.00  0.00    +0.000 C 
ENDBRANCH  12  14
ENDBRANCH   1  12
TORSDOF 5
ENDMDL
