MODEL 1
REMARK VINA RESULT:      -7.2      0.000      0.000
REMARK  Name = 
REMARK  6 active torsions:
REMARK  status: ('A' for Active; 'I' for Inactive)
REMARK    1  A    between atoms: C_1  and  C_2
REMARK    2  A    between atoms: C_2  and  C_3
REMARK    3  A    between atoms: C_3  and  C_4
REMARK    4  A    between atoms: C_4  and  C_5
REMARK    5  A    between atoms: C_5  and  N_6
REMARK    6  A    between atoms: C_9  and  C_10
REMARK                            x       y       z     vdW  Elec       q    Type
REMARK                         _______ _______ _______ _____ _____    ______ ____
ROOT
ATOM      1  N   UNL     1       7.343   4.797  15.760  0.00  0.00    +0.000 N 
ATOM      2  C   UNL     1       6.691   4.915  16.938  0.00  0.00    +0.000 A 
ATOM      3  N   UNL     1       5.408   4.709  17.109  0.00  0.00    +0.000 NA
ATOM      4  C   UNL     1       5.075   4.823  18.452  0.00  0.00    +0.000 A 
ATOM      5  C   UNL     1       6.105   5.255  19.264  0.00  0.00    +0.000 A 
ATOM      6  S   UNL     1       7.551   5.377  18.355  0.00  0.00    +0.000 S 
ATOM      7  H   UNL     1       8.321   5.064  15.749  0.00  0.00    +0.000 HD
ENDROOT
BRANCH   4   8
ATOM      8  C   UNL     1       3.740   4.474  18.921  0.00  0.00    +0.000 A 
ATOM      9  C   UNL     1       2.965   3.506  18.264  0.00  0.00    +0.000 A 
ATOM     10  C   UNL     1       1.657   3.239  18.683  0.00  0.00    +0.000 A 
ATOM     11  C   UNL     1       1.114   3.931  19.760  0.00  0.00    +0.000 A 
ATOM     12  C   UNL     1       1.872   4.892  20.424  0.00  0.00    +0.000 A 
ATOM     13  C   UNL     1       3.178   5.165  20.002  0.00  0.00    +0.000 A 
ENDBRANCH   4   8
BRANCH   1  14
ATOM     14  C   UNL     1       6.601   5.010  14.534  0.00  0.00    +0.000 C 
BRANCH  14  15
ATOM     15  C   UNL     1       6.176   3.670  13.931  0.00  0.00    +0.000 C 
BRANCH  15  16
ATOM     16  C   UNL     1       6.414   3.620  12.421  0.00  0.00    +0.000 C 
BRANCH  16  18
ATOM     17  C   UNL     1       4.180   3.215  11.355  0.00  0.00    +0.000 C 
ATOM     18  C   UNL     1       5.512   2.594  11.740  0.00  0.00    +0.000 C 
ENDBRANCH  16  18
ENDBRANCH  15  16
ENDBRANCH  14  15
ENDBRANCH   1  14
TORSDOF 5
ENDMDL
MODEL 2
REMARK VINA RESULT:      -7.1      1.135      1.699
REMARK  Name = 
REMARK  6 active torsions:
REMARK  status: ('A' for Active; 'I' for Inactive)
REMARK    1  A    between atoms: C_1  and  C_2
REMARK    2  A    between atoms: C_2  and  C_3
REMARK    3  A    between atoms: C_3  and  C_4
REMARK    4  A    between atoms: C_4  and  C_5
REMARK    5  A    between atoms: C_5  and  N_6
REMARK    6  A    between atoms: C_9  and  C_10
REMARK                            x       y       z     vdW  Elec       q    Type
REMARK                         _______ _______ _______ _____ _____    ______ ____
ROOT
ATOM      1  N   UNL     1       6.541   3.844  14.573  0.00  0.00    +0.000 N 
ATOM      2  C   UNL     1       6.120   4.091  15.833  0.00  0.00    +0.000 A 
ATOM      3  N   UNL     1       4.880   3.983  16.244  0.00  0.00    +0.000 NA
ATOM      4  C   UNL     1       4.801   4.217  17.610  0.00  0.00    +0.000 A 
ATOM      5  C   UNL     1       5.982   4.640  18.189  0.00  0.00    +0.000 A 
ATOM      6  S   UNL     1       7.244   4.599  17.032  0.00  0.00    +0.000 S 
ATOM      7  H   UNL     1       7.513   4.045  14.367  0.00  0.00    +0.000 HD
ENDROOT
BRANCH   4   8
ATOM      8  C   UNL     1       3.557   3.992  18.335  0.00  0.00    +0.000 A 
ATOM      9  C   UNL     1       3.549   3.777  19.721  0.00  0.00    +0.000 A 
ATOM     10  C   UNL     1       2.353   3.487  20.388  0.00  0.00    +0.000 A 
ATOM     11  C   UNL     1       1.159   3.412  19.679  0.00  0.00    +0.000 A 
ATOM     12  C   UNL     1       1.151   3.627  18.303  0.00  0.00    +0.000 A 
ATOM     13  C   UNL     1       2.346   3.910  17.634  0.00  0.00    +0.000 A 
ENDBRANCH   4   8
BRANCH   1  14
ATOM     14  C   UNL     1       5.601   4.014  13.484  0.00  0.00    +0.000 C 
BRANCH  14  15
ATOM     15  C   UNL     1       6.180   3.441  12.189  0.00  0.00    +0.000 C 
BRANCH  15  16
ATOM     16  C   UNL     1       5.161   2.581  11.437  0.00  0.00    +0.000 C 
BRANCH  16  18
ATOM     17  C   UNL     1       3.448   3.803  10.072  0.00  0.00    +0.000 C 
ATOM     18  C   UNL     1       3.774   3.218  11.437  0.00  0.00    +0.000 C 
ENDBRANCH  16  18
ENDBRANCH  15  16
ENDBRANCH  14  15
ENDBRANCH   1  14
TORSDOF 5
ENDMDL
MODEL 3
REMARK VINA RESULT:      -7.0      1.445      1.903
REMARK  Name = 
REMARK  6 active torsions:
REMARK  status: ('A' for Active; 'I' for Inactive)
REMARK    1  A    between atoms: C_1  and  C_2
REMARK    2  A    between atoms: C_2  and  C_3
REMARK    3  A    between atoms: C_3  and  C_4
REMARK    4  A    between atoms: C_4  and  C_5
REMARK    5  A    between atoms: C_5  and  N_6
REMARK    6  A    between atoms: C_9  and  C_10
REMARK                            x       y       z     vdW  Elec       q    Type
REMARK                         _______ _______ _______ _____ _____    ______ ____
ROOT
ATOM      1  N   UNL     1       6.181   4.857  15.261  0.00  0.00    +0.000 N 
ATOM      2  C   UNL     1       5.282   5.267  16.184  0.00  0.00    +0.000 A 
ATOM      3  N   UNL     1       4.309   4.530  16.662  0.00  0.00    +0.000 NA
ATOM      4  C   UNL     1       3.626   5.216  17.656  0.00  0.00    +0.000 A 
ATOM      5  C   UNL     1       4.016   6.531  17.817  0.00  0.00    +0.000 A 
ATOM      6  S   UNL     1       5.359   6.868  16.809  0.00  0.00    +0.000 S 
ATOM      7  H   UNL     1       6.833   5.553  14.916  0.00  0.00    +0.000 HD
ENDROOT
BRANCH   4   8
ATOM      8  C   UNL     1       2.609   4.548  18.458  0.00  0.00    +0.000 A 
ATOM      9  C   UNL     1       2.293   4.991  19.752  0.00  0.00    +0.000 A 
ATOM     10  C   UNL     1       1.368   4.292  20.536  0.00  0.00    +0.000 A 
ATOM     11  C   UNL     1       0.751   3.151  20.036  0.00  0.00    +0.000 A 
ATOM     12  C   UNL     1       1.051   2.702  18.752  0.00  0.00    +0.000 A 
ATOM     13  C   UNL     1       1.980   3.396  17.970  0.00  0.00    +0.000 A 
ENDBRANCH   4   8
BRANCH   1  14
ATOM     14  C   UNL     1       5.792   3.818  14.330  0.00  0.00    +0.000 C 
BRANCH  14  15
ATOM     15  C   UNL     1       6.554   3.975  13.012  0.00  0.00    +0.000 C 
BRANCH  15  16
ATOM     16  C   UNL     1       5.874   3.225  11.865  0.00  0.00    +0.000 C 
BRANCH  16  18
ATOM     17  C   UNL     1       3.729   3.399  10.575  0.00  0.00    +0.000 C 
ATOM     18  C   UNL     1       4.353   3.307  11.959  0.00  0.00    +0.000 C 
ENDBRANCH  16  18
ENDBRANCH  15  16
ENDBRANCH  14  15
ENDBRANCH   1  14
TORSDOF 5
ENDMDL
MODEL 4
REMARK VINA RESULT:      -7.0      1.446      1.525
REMARK  Name = 
REMARK  6 active torsions:
REMARK  status: ('A' for Active; 'I' for Inactive)
REMARK    1  A    between atoms: C_1  and  C_2
REMARK    2  A    between atoms: C_2  and  C_3
REMARK    3  A    between atoms: C_3  and  C_4
REMARK    4  A    between atoms: C_4  and  C_5
REMARK    5  A    between atoms: C_5  and  N_6
REMARK    6  A    between atoms: C_9  and  C_10
REMARK                            x       y       z     vdW  Elec       q    Type
REMARK                         _______ _______ _______ _____ _____    ______ ____
ROOT
ATOM      1  N   UNL     1       6.344   5.169  15.788  0.00  0.00    +0.000 N 
ATOM      2  C   UNL     1       5.263   5.456  16.547  0.00  0.00    +0.000 A 
ATOM      3  N   UNL     1       4.451   4.566  17.062  0.00  0.00    +0.000 NA
ATOM      4  C   UNL     1       3.500   5.184  17.862  0.00  0.00    +0.000 A 
ATOM      5  C   UNL     1       3.530   6.565  17.825  0.00  0.00    +0.000 A 
ATOM      6  S   UNL     1       4.864   7.094  16.891  0.00  0.00    +0.000 S 
ATOM      7  H   UNL     1       6.842   5.954  15.383  0.00  0.00    +0.000 HD
ENDROOT
BRANCH   4   8
ATOM      8  C   UNL     1       2.587   4.396  18.680  0.00  0.00    +0.000 A 
ATOM      9  C   UNL     1       1.723   3.452  18.105  0.00  0.00    +0.000 A 
ATOM     10  C   UNL     1       0.800   2.759  18.897  0.00  0.00    +0.000 A 
ATOM     11  C   UNL     1       0.734   3.002  20.265  0.00  0.00    +0.000 A 
ATOM     12  C   UNL     1       1.587   3.933  20.849  0.00  0.00    +0.000 A 
ATOM     13  C   UNL     1       2.506   4.631  20.059  0.00  0.00    +0.000 A 
ENDBRANCH   4   8
BRANCH   1  14
ATOM     14  C   UNL     1       6.343   3.940  15.020  0.00  0.00    +0.000 C 
BRANCH  14  15
ATOM     15  C   UNL     1       5.566   4.129  13.716  0.00  0.00    +0.000 C 
BRANCH  15  16
ATOM     16  C   UNL     1       6.320   3.562  12.512  0.00  0.00    +0.000 C 
BRANCH  16  18
ATOM     17  C   UNL     1       4.189   3.199  11.239  0.00  0.00    +0.000 C 
ATOM     18  C   UNL     1       5.473   2.556  11.737  0.00  0.00    +0.000 C 
ENDBRANCH  16  18
ENDBRANCH  15  16
ENDBRANCH  14  15
ENDBRANCH   1  14
TORSDOF 5
ENDMDL
MODEL 5
REMARK VINA RESULT:      -7.0      3.286      5.492
REMARK  Name = 
REMARK  6 active torsions:
REMARK  status: ('A' for Active; 'I' for Inactive)
REMARK    1  A    between atoms: C_1  and  C_2
REMARK    2  A    between atoms: C_2  and  C_3
REMARK    3  A    between atoms: C_3  and  C_4
REMARK    4  A    between atoms: C_4  and  C_5
REMARK    5  A    between atoms: C_5  and  N_6
REMARK    6  A    between atoms: C_9  and  C_10
REMARK                            x       y       z     vdW  Elec       q    Type
REMARK                         _______ _______ _______ _____ _____    ______ ____
ROOT
ATOM      1  N   UNL     1       7.515   6.864  16.551  0.00  0.00    +0.000 N 
ATOM      2  C   UNL     1       6.714   5.783  16.415  0.00  0.00    +0.000 A 
ATOM      3  N   UNL     1       5.722   5.479  17.216  0.00  0.00    +0.000 NA
ATOM      4  C   UNL     1       5.045   4.363  16.745  0.00  0.00    +0.000 A 
ATOM      5  C   UNL     1       5.633   3.753  15.653  0.00  0.00    +0.000 A 
ATOM      6  S   UNL     1       6.969   4.681  15.119  0.00  0.00    +0.000 S 
ATOM      7  H   UNL     1       8.296   6.939  15.910  0.00  0.00    +0.000 HD
ENDROOT
BRANCH   4   8
ATOM      8  C   UNL     1       3.803   3.926  17.369  0.00  0.00    +0.000 A 
ATOM      9  C   UNL     1       2.799   4.843  17.717  0.00  0.00    +0.000 A 
ATOM     10  C   UNL     1       1.646   4.414  18.383  0.00  0.00    +0.000 A 
ATOM     11  C   UNL     1       1.484   3.071  18.705  0.00  0.00    +0.000 A 
ATOM     12  C   UNL     1       2.469   2.149  18.362  0.00  0.00    +0.000 A 
ATOM     13  C   UNL     1       3.626   2.577  17.702  0.00  0.00    +0.000 A 
ENDBRANCH   4   8
BRANCH   1  14
ATOM     14  C   UNL     1       7.710   7.417  17.876  0.00  0.00    +0.000 C 
BRANCH  14  15
ATOM     15  C   UNL     1       7.868   8.937  17.798  0.00  0.00    +0.000 C 
BRANCH  15  16
ATOM     16  C   UNL     1       8.884   9.460  18.815  0.00  0.00    +0.000 C 
BRANCH  16  18
ATOM     17  C   UNL     1      10.278  11.421  19.525  0.00  0.00    +0.000 C 
ATOM     18  C   UNL     1       9.448  10.818  18.404  0.00  0.00    +0.000 C 
ENDBRANCH  16  18
ENDBRANCH  15  16
ENDBRANCH  14  15
ENDBRANCH   1  14
TORSDOF 5
ENDMDL
MODEL 6
REMARK VINA RESULT:      -7.0      0.842      1.008
REMARK  Name = 
REMARK  6 active torsions:
REMARK  status: ('A' for Active; 'I' for Inactive)
REMARK    1  A    between atoms: C_1  and  C_2
REMARK    2  A    between atoms: C_2  and  C_3
REMARK    3  A    between atoms: C_3  and  C_4
REMARK    4  A    between atoms: C_4  and  C_5
REMARK    5  A    between atoms: C_5  and  N_6
REMARK    6  A    between atoms: C_9  and  C_10
REMARK                            x       y       z     vdW  Elec       q    Type
REMARK                         _______ _______ _______ _____ _____    ______ ____
ROOT
ATOM      1  N   UNL     1       7.402   4.859  15.685  0.00  0.00    +0.000 N 
ATOM      2  C   UNL     1       6.677   4.862  16.825  0.00  0.00    +0.000 A 
ATOM      3  N   UNL     1       5.415   4.518  16.912  0.00  0.00    +0.000 NA
ATOM      4  C   UNL     1       4.997   4.543  18.235  0.00  0.00    +0.000 A 
ATOM      5  C   UNL     1       5.928   5.048  19.122  0.00  0.00    +0.000 A 
ATOM      6  S   UNL     1       7.402   5.355  18.305  0.00  0.00    +0.000 S 
ATOM      7  H   UNL     1       8.345   5.227  15.741  0.00  0.00    +0.000 HD
ENDROOT
BRANCH   4   8
ATOM      8  C   UNL     1       3.682   4.039  18.612  0.00  0.00    +0.000 A 
ATOM      9  C   UNL     1       2.563   4.232  17.788  0.00  0.00    +0.000 A 
ATOM     10  C   UNL     1       1.295   3.808  18.202  0.00  0.00    +0.000 A 
ATOM     11  C   UNL     1       1.135   3.187  19.435  0.00  0.00    +0.000 A 
ATOM     12  C   UNL     1       2.237   2.985  20.262  0.00  0.00    +0.000 A 
ATOM     13  C   UNL     1       3.504   3.414  19.853  0.00  0.00    +0.000 A 
ENDBRANCH   4   8
BRANCH   1  14
ATOM     14  C   UNL     1       6.711   5.043  14.425  0.00  0.00    +0.000 C 
BRANCH  14  15
ATOM     15  C   UNL     1       6.277   3.690  13.856  0.00  0.00    +0.000 C 
BRANCH  15  16
ATOM     16  C   UNL     1       6.462   3.621  12.339  0.00  0.00    +0.000 C 
BRANCH  16  18
ATOM     17  C   UNL     1       6.173   1.393  11.222  0.00  0.00    +0.000 C 
ATOM     18  C   UNL     1       5.471   2.657  11.692  0.00  0.00    +0.000 C 
ENDBRANCH  16  18
ENDBRANCH  15  16
ENDBRANCH  14  15
ENDBRANCH   1  14
TORSDOF 5
ENDMDL
MODEL 7
REMARK VINA RESULT:      -6.9      0.928      1.584
REMARK  Name = 
REMARK  6 active torsions:
REMARK  status: ('A' for Active; 'I' for Inactive)
REMARK    1  A    between atoms: C_1  and  C_2
REMARK    2  A    between atoms: C_2  and  C_3
REMARK    3  A    between atoms: C_3  and  C_4
REMARK    4  A    between atoms: C_4  and  C_5
REMARK    5  A    between atoms: C_5  and  N_6
REMARK    6  A    between atoms: C_9  and  C_10
REMARK                            x       y       z     vdW  Elec       q    Type
REMARK                         _______ _______ _______ _____ _____    ______ ____
ROOT
ATOM      1  N   UNL     1       6.582   4.100  15.549  0.00  0.00    +0.000 N 
ATOM      2  C   UNL     1       6.095   4.369  16.781  0.00  0.00    +0.000 A 
ATOM      3  N   UNL     1       4.852   4.184  17.153  0.00  0.00    +0.000 NA
ATOM      4  C   UNL     1       4.703   4.471  18.503  0.00  0.00    +0.000 A 
ATOM      5  C   UNL     1       5.825   5.009  19.102  0.00  0.00    +0.000 A 
ATOM      6  S   UNL     1       7.130   5.015  17.994  0.00  0.00    +0.000 S 
ATOM      7  H   UNL     1       7.543   4.366  15.368  0.00  0.00    +0.000 HD
ENDROOT
BRANCH   4   8
ATOM      8  C   UNL     1       3.452   4.182  19.193  0.00  0.00    +0.000 A 
ATOM      9  C   UNL     1       2.731   5.191  19.850  0.00  0.00    +0.000 A 
ATOM     10  C   UNL     1       1.573   4.881  20.571  0.00  0.00    +0.000 A 
ATOM     11  C   UNL     1       1.125   3.566  20.642  0.00  0.00    +0.000 A 
ATOM     12  C   UNL     1       1.828   2.556  19.992  0.00  0.00    +0.000 A 
ATOM     13  C   UNL     1       2.990   2.862  19.276  0.00  0.00    +0.000 A 
ENDBRANCH   4   8
BRANCH   1  14
ATOM     14  C   UNL     1       5.674   4.149  14.421  0.00  0.00    +0.000 C 
BRANCH  14  15
ATOM     15  C   UNL     1       6.397   3.731  13.140  0.00  0.00    +0.000 C 
BRANCH  15  16
ATOM     16  C   UNL     1       5.420   3.313  12.040  0.00  0.00    +0.000 C 
BRANCH  16  18
ATOM     17  C   UNL     1       7.167   1.810  11.050  0.00  0.00    +0.000 C 
ATOM     18  C   UNL     1       5.724   1.912  11.514  0.00  0.00    +0.000 C 
ENDBRANCH  16  18
ENDBRANCH  15  16
ENDBRANCH  14  15
ENDBRANCH   1  14
TORSDOF 5
ENDMDL
MODEL 8
REMARK VINA RESULT:      -6.9      3.283      5.383
REMARK  Name = 
REMARK  6 active torsions:
REMARK  status: ('A' for Active; 'I' for Inactive)
REMARK    1  A    between atoms: C_1  and  C_2
REMARK    2  A    between atoms: C_2  and  C_3
REMARK    3  A    between atoms: C_3  and  C_4
REMARK    4  A    between atoms: C_4  and  C_5
REMARK    5  A    between atoms: C_5  and  N_6
REMARK    6  A    between atoms: C_9  and  C_10
REMARK                            x       y       z     vdW  Elec       q    Type
REMARK                         _______ _______ _______ _____ _____    ______ ____
ROOT
ATOM      1  N   UNL     1       7.519   6.884  16.776  0.00  0.00    +0.000 N 
ATOM      2  C   UNL     1       6.595   5.897  16.791  0.00  0.00    +0.000 A 
ATOM      3  N   UNL     1       5.665   5.754  17.704  0.00  0.00    +0.000 NA
ATOM      4  C   UNL     1       4.824   4.699  17.377  0.00  0.00    +0.000 A 
ATOM      5  C   UNL     1       5.223   3.967  16.276  0.00  0.00    +0.000 A 
ATOM      6  S   UNL     1       6.590   4.703  15.553  0.00  0.00    +0.000 S 
ATOM      7  H   UNL     1       8.232   6.832  16.058  0.00  0.00    +0.000 HD
ENDROOT
BRANCH   4   8
ATOM      8  C   UNL     1       3.614   4.445  18.148  0.00  0.00    +0.000 A 
ATOM      9  C   UNL     1       2.599   3.609  17.657  0.00  0.00    +0.000 A 
ATOM     10  C   UNL     1       1.411   3.437  18.377  0.00  0.00    +0.000 A 
ATOM     11  C   UNL     1       1.228   4.093  19.589  0.00  0.00    +0.000 A 
ATOM     12  C   UNL     1       2.228   4.922  20.090  0.00  0.00    +0.000 A 
ATOM     13  C   UNL     1       3.413   5.100  19.369  0.00  0.00    +0.000 A 
ENDBRANCH   4   8
BRANCH   1  14
ATOM     14  C   UNL     1       7.912   7.482  18.035  0.00  0.00    +0.000 C 
BRANCH  14  15
ATOM     15  C   UNL     1       8.055   8.997  17.881  0.00  0.00    +0.000 C 
BRANCH  15  16
ATOM     16  C   UNL     1       9.017   9.590  18.912  0.00  0.00    +0.000 C 
BRANCH  16  18
ATOM     17  C   UNL     1      10.468  11.551  19.499  0.00  0.00    +0.000 C 
ATOM     18  C   UNL     1       9.342  11.050  18.608  0.00  0.00    +0.000 C 
ENDBRANCH  16  18
ENDBRANCH  15  16
ENDBRANCH  14  15
ENDBRANCH   1  14
TORSDOF 5
ENDMDL
MODEL 9
REMARK VINA RESULT:      -6.8      1.474      1.699
REMARK  Name = 
REMARK  6 active torsions:
REMARK  status: ('A' for Active; 'I' for Inactive)
REMARK    1  A    between atoms: C_1  and  C_2
REMARK    2  A    between atoms: C_2  and  C_3
REMARK    3  A    between atoms: C_3  and  C_4
REMARK    4  A    between atoms: C_4  and  C_5
REMARK    5  A    between atoms: C_5  and  N_6
REMARK    6  A    between atoms: C_9  and  C_10
REMARK                            x       y       z     vdW  Elec       q    Type
REMARK                         _______ _______ _______ _____ _____    ______ ____
ROOT
ATOM      1  N   UNL     1       6.313   4.738  15.201  0.00  0.00    +0.000 N 
ATOM      2  C   UNL     1       5.370   5.138  16.082  0.00  0.00    +0.000 A 
ATOM      3  N   UNL     1       4.453   4.361  16.605  0.00  0.00    +0.000 NA
ATOM      4  C   UNL     1       3.703   5.059  17.540  0.00  0.00    +0.000 A 
ATOM      5  C   UNL     1       3.983   6.410  17.608  0.00  0.00    +0.000 A 
ATOM      6  S   UNL     1       5.310   6.781  16.590  0.00  0.00    +0.000 S 
ATOM      7  H   UNL     1       6.912   5.457  14.811  0.00  0.00    +0.000 HD
ENDROOT
BRANCH   4   8
ATOM      8  C   UNL     1       2.731   4.372  18.381  0.00  0.00    +0.000 A 
ATOM      9  C   UNL     1       2.160   3.152  17.988  0.00  0.00    +0.000 A 
ATOM     10  C   UNL     1       1.173   2.545  18.772  0.00  0.00    +0.000 A 
ATOM     11  C   UNL     1       0.750   3.147  19.952  0.00  0.00    +0.000 A 
ATOM     12  C   UNL     1       1.311   4.355  20.357  0.00  0.00    +0.000 A 
ATOM     13  C   UNL     1       2.294   4.967  19.571  0.00  0.00    +0.000 A 
ENDBRANCH   4   8
BRANCH   1  14
ATOM     14  C   UNL     1       6.022   3.606  14.344  0.00  0.00    +0.000 C 
BRANCH  14  15
ATOM     15  C   UNL     1       6.397   3.926  12.896  0.00  0.00    +0.000 C 
BRANCH  15  16
ATOM     16  C   UNL     1       5.438   3.274  11.898  0.00  0.00    +0.000 C 
BRANCH  16  18
ATOM     17  C   UNL     1       7.238   1.792  10.974  0.00  0.00    +0.000 C 
ATOM     18  C   UNL     1       5.845   1.838  11.579  0.00  0.00    +0.000 C 
ENDBRANCH  16  18
ENDBRANCH  15  16
ENDBRANCH  14  15
ENDBRANCH   1  14
TORSDOF 5
ENDMDL
