MODEL 1
REMARK VINA RESULT:      -6.4      0.000      0.000
REMARK  Name = 
REMARK  11 active torsions:
REMARK  status: ('A' for Active; 'I' for Inactive)
REMARK    1  A    between atoms: C_1  and  C_2
REMARK    2  A    between atoms: C_2  and  C_4
REMARK    3  A    between atoms: C_5  and  O_6
REMARK    4  A    between atoms: C_12  and  C_13
REMARK    5  A    between atoms: C_13  and  C_14
REMARK    6  A    between atoms: C_13  and  C_15
REMARK    7  A    between atoms: C_13  and  C_16
REMARK    8  A    between atoms: C_19  and  C_20
REMARK    9  A    between atoms: C_23  and  C_24
REMARK   10  A    between atoms: C_24  and  C_25
REMARK   11  A    between atoms: C_24  and  C_26
REMARK                            x       y       z     vdW  Elec       q    Type
REMARK                         _______ _______ _______ _____ _____    ______ ____
ROOT
ATOM      1  C   UNL     1       0.808   9.629  20.294  0.00  0.00    +0.000 C 
ATOM      2  C   UNL     1       1.018   9.155  21.526  0.00  0.00    +0.000 C 
ATOM      3  C   UNL     1       0.188   9.960  22.464  0.00  0.00    +0.000 C 
ATOM      4  O   UNL     1       0.182   9.780  23.667  0.00  0.00    +0.000 OA
ATOM      5  N   UNL     1      -0.535  10.854  21.677  0.00  0.00    +0.000 N 
ATOM      6  C   UNL     1      -1.447  11.762  22.214  0.00  0.00    +0.000 A 
ATOM      7  C   UNL     1      -2.367  12.546  21.468  0.00  0.00    +0.000 A 
ATOM      8  C   UNL     1      -3.041  13.304  22.394  0.00  0.00    +0.000 A 
ATOM      9  O   UNL     1      -2.546  13.009  23.626  0.00  0.00    +0.000 OA
ATOM     10  N   UNL     1      -1.578  12.035  23.516  0.00  0.00    +0.000 NA
ATOM     11  C   UNL     1      -0.163  10.762  20.279  0.00  0.00    +0.000 C 
ENDROOT
BRANCH  11  12
ATOM     12  C   UNL     1       0.437  12.066  19.783  0.00  0.00    +0.000 A 
ATOM     13  C   UNL     1       1.625  12.568  20.342  0.00  0.00    +0.000 A 
ATOM     14  C   UNL     1       2.166  13.770  19.896  0.00  0.00    +0.000 A 
ATOM     15  C   UNL     1       1.533  14.511  18.893  0.00  0.00    +0.000 A 
ATOM     16  C   UNL     1       0.333  14.026  18.353  0.00  0.00    +0.000 A 
ATOM     17  C   UNL     1      -0.203  12.811  18.782  0.00  0.00    +0.000 A 
BRANCH  15  18
ATOM     18  C   UNL     1       2.163  15.805  18.413  0.00  0.00    +0.000 C 
ATOM     19  C   UNL     1       2.447  16.744  19.587  0.00  0.00    +0.000 C 
ATOM     20  C   UNL     1       3.424  15.552  17.586  0.00  0.00    +0.000 C 
ENDBRANCH  15  18
ENDBRANCH  11  12
BRANCH   8  21
ATOM     21  C   UNL     1      -4.162  14.304  22.331  0.00  0.00    +0.000 C 
ATOM     22  C   UNL     1      -4.692  14.434  20.890  0.00  0.00    +0.000 C 
ATOM     23  C   UNL     1      -5.316  13.836  23.235  0.00  0.00    +0.000 C 
ATOM     24  C   UNL     1      -3.672  15.685  22.797  0.00  0.00    +0.000 C 
ENDBRANCH   8  21
BRANCH   1  26
ATOM     25  C   UNL     1       1.628   9.828  17.855  0.00  0.00    +0.000 C 
ATOM     26  C   UNL     1       1.492   9.037  19.128  0.00  0.00    +0.000 C 
ATOM     27  O   UNL     1       2.003   7.920  19.239  0.00  0.00    +0.000 OA
ENDBRANCH   1  26
BRANCH   2  28
ATOM     28  O   UNL     1       1.827   8.120  21.911  0.00  0.00    +0.000 OA
ATOM     29  H   UNL     1       1.533   7.827  22.800  0.00  0.00    +0.000 HD
ENDBRANCH   2  28
TORSDOF 5
ENDMDL
MODEL 2
REMARK VINA RESULT:      -6.4      0.433      1.314
REMARK  Name = 
REMARK  11 active torsions:
REMARK  status: ('A' for Active; 'I' for Inactive)
REMARK    1  A    between atoms: C_1  and  C_2
REMARK    2  A    between atoms: C_2  and  C_4
REMARK    3  A    between atoms: C_5  and  O_6
REMARK    4  A    between atoms: C_12  and  C_13
REMARK    5  A    between atoms: C_13  and  C_14
REMARK    6  A    between atoms: C_13  and  C_15
REMARK    7  A    between atoms: C_13  and  C_16
REMARK    8  A    between atoms: C_19  and  C_20
REMARK    9  A    between atoms: C_23  and  C_24
REMARK   10  A    between atoms: C_24  and  C_25
REMARK   11  A    between atoms: C_24  and  C_26
REMARK                            x       y       z     vdW  Elec       q    Type
REMARK                         _______ _______ _______ _____ _____    ______ ____
ROOT
ATOM      1  C   UNL     1       0.823   9.631  20.291  0.00  0.00    +0.000 C 
ATOM      2  C   UNL     1       1.021   9.139  21.519  0.00  0.00    +0.000 C 
ATOM      3  C   UNL     1       0.190   9.937  22.461  0.00  0.00    +0.000 C 
ATOM      4  O   UNL     1       0.174   9.741  23.661  0.00  0.00    +0.000 OA
ATOM      5  N   UNL     1      -0.522  10.847  21.682  0.00  0.00    +0.000 N 
ATOM      6  C   UNL     1      -1.432  11.753  22.224  0.00  0.00    +0.000 A 
ATOM      7  C   UNL     1      -2.342  12.552  21.482  0.00  0.00    +0.000 A 
ATOM      8  C   UNL     1      -3.017  13.303  22.413  0.00  0.00    +0.000 A 
ATOM      9  O   UNL     1      -2.533  12.987  23.645  0.00  0.00    +0.000 OA
ATOM     10  N   UNL     1      -1.571  12.010  23.529  0.00  0.00    +0.000 NA
ATOM     11  C   UNL     1      -0.141  10.770  20.285  0.00  0.00    +0.000 C 
ENDROOT
BRANCH  11  12
ATOM     12  C   UNL     1       0.471  12.077  19.810  0.00  0.00    +0.000 A 
ATOM     13  C   UNL     1      -0.115  12.805  18.761  0.00  0.00    +0.000 A 
ATOM     14  C   UNL     1       0.456  13.995  18.318  0.00  0.00    +0.000 A 
ATOM     15  C   UNL     1       1.631  14.484  18.898  0.00  0.00    +0.000 A 
ATOM     16  C   UNL     1       2.232  13.745  19.927  0.00  0.00    +0.000 A 
ATOM     17  C   UNL     1       1.653  12.562  20.389  0.00  0.00    +0.000 A 
BRANCH  15  18
ATOM     18  C   UNL     1       2.212  15.797  18.408  0.00  0.00    +0.000 C 
ATOM     19  C   UNL     1       2.536  16.724  19.581  0.00  0.00    +0.000 C 
ATOM     20  C   UNL     1       3.434  15.582  17.515  0.00  0.00    +0.000 C 
ENDBRANCH  15  18
ENDBRANCH  11  12
BRANCH   8  21
ATOM     21  C   UNL     1      -4.132  14.311  22.356  0.00  0.00    +0.000 C 
ATOM     22  C   UNL     1      -4.301  15.010  23.718  0.00  0.00    +0.000 C 
ATOM     23  C   UNL     1      -3.803  15.377  21.296  0.00  0.00    +0.000 C 
ATOM     24  C   UNL     1      -5.457  13.619  21.994  0.00  0.00    +0.000 C 
ENDBRANCH   8  21
BRANCH   1  26
ATOM     25  C   UNL     1       1.703   9.874  17.877  0.00  0.00    +0.000 C 
ATOM     26  C   UNL     1       1.511   9.051  19.122  0.00  0.00    +0.000 C 
ATOM     27  O   UNL     1       1.981   7.914  19.210  0.00  0.00    +0.000 OA
ENDBRANCH   1  26
BRANCH   2  28
ATOM     28  O   UNL     1       1.821   8.094  21.895  0.00  0.00    +0.000 OA
ATOM     29  H   UNL     1       1.659   7.924  22.848  0.00  0.00    +0.000 HD
ENDBRANCH   2  28
TORSDOF 5
ENDMDL
MODEL 3
REMARK VINA RESULT:      -6.4      0.529      1.178
REMARK  Name = 
REMARK  11 active torsions:
REMARK  status: ('A' for Active; 'I' for Inactive)
REMARK    1  A    between atoms: C_1  and  C_2
REMARK    2  A    between atoms: C_2  and  C_4
REMARK    3  A    between atoms: C_5  and  O_6
REMARK    4  A    between atoms: C_12  and  C_13
REMARK    5  A    between atoms: C_13  and  C_14
REMARK    6  A    between atoms: C_13  and  C_15
REMARK    7  A    between atoms: C_13  and  C_16
REMARK    8  A    between atoms: C_19  and  C_20
REMARK    9  A    between atoms: C_23  and  C_24
REMARK   10  A    between atoms: C_24  and  C_25
REMARK   11  A    between atoms: C_24  and  C_26
REMARK                            x       y       z     vdW  Elec       q    Type
REMARK                         _______ _______ _______ _____ _____    ______ ____
ROOT
ATOM      1  C   UNL     1       0.820   9.699  20.296  0.00  0.00    +0.000 C 
ATOM      2  C   UNL     1       0.995   9.185  21.518  0.00  0.00    +0.000 C 
ATOM      3  C   UNL     1       0.179   9.994  22.465  0.00  0.00    +0.000 C 
ATOM      4  O   UNL     1       0.148   9.782  23.662  0.00  0.00    +0.000 OA
ATOM      5  N   UNL     1      -0.501  10.933  21.692  0.00  0.00    +0.000 N 
ATOM      6  C   UNL     1      -1.390  11.857  22.239  0.00  0.00    +0.000 A 
ATOM      7  C   UNL     1      -2.272  12.691  21.501  0.00  0.00    +0.000 A 
ATOM      8  C   UNL     1      -2.933  13.448  22.438  0.00  0.00    +0.000 A 
ATOM      9  O   UNL     1      -2.468  13.103  23.669  0.00  0.00    +0.000 OA
ATOM     10  N   UNL     1      -1.532  12.100  23.547  0.00  0.00    +0.000 NA
ATOM     11  C   UNL     1      -0.112  10.864  20.297  0.00  0.00    +0.000 C 
ENDROOT
BRANCH  11  12
ATOM     12  C   UNL     1       0.540  12.160  19.845  0.00  0.00    +0.000 A 
ATOM     13  C   UNL     1       1.749  12.592  20.415  0.00  0.00    +0.000 A 
ATOM     14  C   UNL     1       2.338  13.786  20.010  0.00  0.00    +0.000 A 
ATOM     15  C   UNL     1       1.733  14.588  19.037  0.00  0.00    +0.000 A 
ATOM     16  C   UNL     1       0.511  14.172  18.486  0.00  0.00    +0.000 A 
ATOM     17  C   UNL     1      -0.073  12.966  18.875  0.00  0.00    +0.000 A 
BRANCH  15  18
ATOM     18  C   UNL     1       2.414  15.871  18.601  0.00  0.00    +0.000 C 
ATOM     19  C   UNL     1       3.445  15.598  17.505  0.00  0.00    +0.000 C 
ATOM     20  C   UNL     1       1.404  16.932  18.162  0.00  0.00    +0.000 C 
ENDBRANCH  15  18
ENDBRANCH  11  12
BRANCH   8  21
ATOM     21  C   UNL     1      -4.019  14.487  22.385  0.00  0.00    +0.000 C 
ATOM     22  C   UNL     1      -4.253  15.097  23.781  0.00  0.00    +0.000 C 
ATOM     23  C   UNL     1      -3.603  15.614  21.424  0.00  0.00    +0.000 C 
ATOM     24  C   UNL     1      -5.336  13.858  21.900  0.00  0.00    +0.000 C 
ENDBRANCH   8  21
BRANCH   1  26
ATOM     25  C   UNL     1       1.608   9.902  17.846  0.00  0.00    +0.000 C 
ATOM     26  C   UNL     1       1.501   9.115  19.124  0.00  0.00    +0.000 C 
ATOM     27  O   UNL     1       2.034   8.008  19.234  0.00  0.00    +0.000 OA
ENDBRANCH   1  26
BRANCH   2  28
ATOM     28  O   UNL     1       1.763   8.114  21.886  0.00  0.00    +0.000 OA
ATOM     29  H   UNL     1       1.176   7.469  22.338  0.00  0.00    +0.000 HD
ENDBRANCH   2  28
TORSDOF 5
ENDMDL
MODEL 4
REMARK VINA RESULT:      -6.4      2.919      6.091
REMARK  Name = 
REMARK  11 active torsions:
REMARK  status: ('A' for Active; 'I' for Inactive)
REMARK    1  A    between atoms: C_1  and  C_2
REMARK    2  A    between atoms: C_2  and  C_4
REMARK    3  A    between atoms: C_5  and  O_6
REMARK    4  A    between atoms: C_12  and  C_13
REMARK    5  A    between atoms: C_13  and  C_14
REMARK    6  A    between atoms: C_13  and  C_15
REMARK    7  A    between atoms: C_13  and  C_16
REMARK    8  A    between atoms: C_19  and  C_20
REMARK    9  A    between atoms: C_23  and  C_24
REMARK   10  A    between atoms: C_24  and  C_25
REMARK   11  A    between atoms: C_24  and  C_26
REMARK                            x       y       z     vdW  Elec       q    Type
REMARK                         _______ _______ _______ _____ _____    ______ ____
ROOT
ATOM      1  C   UNL     1      -2.455  11.321  18.241  0.00  0.00    +0.000 C 
ATOM      2  C   UNL     1      -3.261  11.904  19.134  0.00  0.00    +0.000 C 
ATOM      3  C   UNL     1      -2.415  12.764  20.007  0.00  0.00    +0.000 C 
ATOM      4  O   UNL     1      -2.862  13.411  20.935  0.00  0.00    +0.000 OA
ATOM      5  N   UNL     1      -1.118  12.674  19.506  0.00  0.00    +0.000 N 
ATOM      6  C   UNL     1      -0.046  13.372  20.060  0.00  0.00    +0.000 A 
ATOM      7  C   UNL     1       1.244  13.498  19.481  0.00  0.00    +0.000 A 
ATOM      8  C   UNL     1       1.978  14.241  20.374  0.00  0.00    +0.000 A 
ATOM      9  O   UNL     1       1.182  14.534  21.438  0.00  0.00    +0.000 OA
ATOM     10  N   UNL     1      -0.078  14.019  21.231  0.00  0.00    +0.000 NA
ATOM     11  C   UNL     1      -1.029  11.727  18.412  0.00  0.00    +0.000 C 
ENDROOT
BRANCH  11  12
ATOM     12  C   UNL     1      -0.110  10.569  18.761  0.00  0.00    +0.000 A 
ATOM     13  C   UNL     1       0.749  10.018  17.794  0.00  0.00    +0.000 A 
ATOM     14  C   UNL     1       1.580   8.948  18.112  0.00  0.00    +0.000 A 
ATOM     15  C   UNL     1       1.570   8.389  19.394  0.00  0.00    +0.000 A 
ATOM     16  C   UNL     1       0.694   8.921  20.353  0.00  0.00    +0.000 A 
ATOM     17  C   UNL     1      -0.127  10.007  20.045  0.00  0.00    +0.000 A 
BRANCH  15  18
ATOM     18  C   UNL     1       2.507   7.240  19.714  0.00  0.00    +0.000 C 
ATOM     19  C   UNL     1       1.810   6.189  20.579  0.00  0.00    +0.000 C 
ATOM     20  C   UNL     1       3.095   6.616  18.448  0.00  0.00    +0.000 C 
ENDBRANCH  15  18
ENDBRANCH  11  12
BRANCH   8  21
ATOM     21  C   UNL     1       3.378  14.789  20.398  0.00  0.00    +0.000 C 
ATOM     22  C   UNL     1       3.360  16.311  20.638  0.00  0.00    +0.000 C 
ATOM     23  C   UNL     1       4.168  14.124  21.539  0.00  0.00    +0.000 C 
ATOM     24  C   UNL     1       4.081  14.514  19.058  0.00  0.00    +0.000 C 
ENDBRANCH   8  21
BRANCH   1  26
ATOM     25  C   UNL     1      -2.689  10.624  15.767  0.00  0.00    +0.000 C 
ATOM     26  C   UNL     1      -2.994  10.399  17.223  0.00  0.00    +0.000 C 
ATOM     27  O   UNL     1      -3.635   9.411  17.592  0.00  0.00    +0.000 OA
ENDBRANCH   1  26
BRANCH   2  28
ATOM     28  O   UNL     1      -4.617  11.776  19.264  0.00  0.00    +0.000 OA
ATOM     29  H   UNL     1      -4.984  12.668  19.447  0.00  0.00    +0.000 HD
ENDBRANCH   2  28
TORSDOF 5
ENDMDL
MODEL 5
REMARK VINA RESULT:      -6.3      2.857      6.069
REMARK  Name = 
REMARK  11 active torsions:
REMARK  status: ('A' for Active; 'I' for Inactive)
REMARK    1  A    between atoms: C_1  and  C_2
REMARK    2  A    between atoms: C_2  and  C_4
REMARK    3  A    between atoms: C_5  and  O_6
REMARK    4  A    between atoms: C_12  and  C_13
REMARK    5  A    between atoms: C_13  and  C_14
REMARK    6  A    between atoms: C_13  and  C_15
REMARK    7  A    between atoms: C_13  and  C_16
REMARK    8  A    between atoms: C_19  and  C_20
REMARK    9  A    between atoms: C_23  and  C_24
REMARK   10  A    between atoms: C_24  and  C_25
REMARK   11  A    between atoms: C_24  and  C_26
REMARK                            x       y       z     vdW  Elec       q    Type
REMARK                         _______ _______ _______ _____ _____    ______ ____
ROOT
ATOM      1  C   UNL     1      -2.374  12.008  19.118  0.00  0.00    +0.000 C 
ATOM      2  C   UNL     1      -3.057  12.523  20.146  0.00  0.00    +0.000 C 
ATOM      3  C   UNL     1      -2.080  13.207  21.036  0.00  0.00    +0.000 C 
ATOM      4  O   UNL     1      -2.400  13.758  22.072  0.00  0.00    +0.000 OA
ATOM      5  N   UNL     1      -0.839  13.097  20.413  0.00  0.00    +0.000 N 
ATOM      6  C   UNL     1       0.324  13.648  20.949  0.00  0.00    +0.000 A 
ATOM      7  C   UNL     1       1.569  13.762  20.276  0.00  0.00    +0.000 A 
ATOM      8  C   UNL     1       2.427  14.336  21.182  0.00  0.00    +0.000 A 
ATOM      9  O   UNL     1       1.745  14.542  22.341  0.00  0.00    +0.000 OA
ATOM     10  N   UNL     1       0.437  14.140  22.187  0.00  0.00    +0.000 NA
ATOM     11  C   UNL     1      -0.912  12.294  19.208  0.00  0.00    +0.000 C 
ENDROOT
BRANCH  11  12
ATOM     12  C   UNL     1      -0.058  11.044  19.329  0.00  0.00    +0.000 A 
ATOM     13  C   UNL     1       0.786  10.647  18.278  0.00  0.00    +0.000 A 
ATOM     14  C   UNL     1       1.558   9.493  18.385  0.00  0.00    +0.000 A 
ATOM     15  C   UNL     1       1.499   8.698  19.533  0.00  0.00    +0.000 A 
ATOM     16  C   UNL     1       0.637   9.077  20.573  0.00  0.00    +0.000 A 
ATOM     17  C   UNL     1      -0.123  10.244  20.479  0.00  0.00    +0.000 A 
BRANCH  15  18
ATOM     18  C   UNL     1       2.372   7.460  19.627  0.00  0.00    +0.000 C 
ATOM     19  C   UNL     1       1.728   6.403  20.525  0.00  0.00    +0.000 C 
ATOM     20  C   UNL     1       2.703   6.891  18.247  0.00  0.00    +0.000 C 
ENDBRANCH  15  18
ENDBRANCH  11  12
BRANCH   8  21
ATOM     21  C   UNL     1       3.862  14.784  21.146  0.00  0.00    +0.000 C 
ATOM     22  C   UNL     1       4.420  14.702  19.712  0.00  0.00    +0.000 C 
ATOM     23  C   UNL     1       3.954  16.244  21.623  0.00  0.00    +0.000 C 
ATOM     24  C   UNL     1       4.722  13.891  22.057  0.00  0.00    +0.000 C 
ENDBRANCH   8  21
BRANCH   1  26
ATOM     25  C   UNL     1      -2.772   9.797  17.847  0.00  0.00    +0.000 C 
ATOM     26  C   UNL     1      -3.062  11.260  18.049  0.00  0.00    +0.000 C 
ATOM     27  O   UNL     1      -3.921  11.836  17.376  0.00  0.00    +0.000 OA
ENDBRANCH   1  26
BRANCH   2  28
ATOM     28  O   UNL     1      -4.405  12.468  20.381  0.00  0.00    +0.000 OA
ATOM     29  H   UNL     1      -4.838  13.113  19.781  0.00  0.00    +0.000 HD
ENDBRANCH   2  28
TORSDOF 5
ENDMDL
MODEL 6
REMARK VINA RESULT:      -6.3      2.880      6.027
REMARK  Name = 
REMARK  11 active torsions:
REMARK  status: ('A' for Active; 'I' for Inactive)
REMARK    1  A    between atoms: C_1  and  C_2
REMARK    2  A    between atoms: C_2  and  C_4
REMARK    3  A    between atoms: C_5  and  O_6
REMARK    4  A    between atoms: C_12  and  C_13
REMARK    5  A    between atoms: C_13  and  C_14
REMARK    6  A    between atoms: C_13  and  C_15
REMARK    7  A    between atoms: C_13  and  C_16
REMARK    8  A    between atoms: C_19  and  C_20
REMARK    9  A    between atoms: C_23  and  C_24
REMARK   10  A    between atoms: C_24  and  C_25
REMARK   11  A    between atoms: C_24  and  C_26
REMARK                            x       y       z     vdW  Elec       q    Type
REMARK                         _______ _______ _______ _____ _____    ______ ____
ROOT
ATOM      1  C   UNL     1      -2.532  11.452  18.329  0.00  0.00    +0.000 C 
ATOM      2  C   UNL     1      -3.325  12.015  19.245  0.00  0.00    +0.000 C 
ATOM      3  C   UNL     1      -2.465  12.842  20.136  0.00  0.00    +0.000 C 
ATOM      4  O   UNL     1      -2.899  13.465  21.087  0.00  0.00    +0.000 OA
ATOM      5  N   UNL     1      -1.173  12.754  19.623  0.00  0.00    +0.000 N 
ATOM      6  C   UNL     1      -0.090  13.426  20.190  0.00  0.00    +0.000 A 
ATOM      7  C   UNL     1       1.197  13.557  19.605  0.00  0.00    +0.000 A 
ATOM      8  C   UNL     1       1.944  14.267  20.514  0.00  0.00    +0.000 A 
ATOM      9  O   UNL     1       1.159  14.536  21.592  0.00  0.00    +0.000 OA
ATOM     10  N   UNL     1      -0.107  14.038  21.379  0.00  0.00    +0.000 NA
ATOM     11  C   UNL     1      -1.101  11.839  18.501  0.00  0.00    +0.000 C 
ENDROOT
BRANCH  11  12
ATOM     12  C   UNL     1      -0.189  10.664  18.809  0.00  0.00    +0.000 A 
ATOM     13  C   UNL     1      -0.214  10.047  20.071  0.00  0.00    +0.000 A 
ATOM     14  C   UNL     1       0.631   8.979  20.356  0.00  0.00    +0.000 A 
ATOM     15  C   UNL     1       1.533   8.505  19.398  0.00  0.00    +0.000 A 
ATOM     16  C   UNL     1       1.579   9.137  18.146  0.00  0.00    +0.000 A 
ATOM     17  C   UNL     1       0.719  10.195  17.848  0.00  0.00    +0.000 A 
BRANCH  15  18
ATOM     18  C   UNL     1       2.423   7.323  19.733  0.00  0.00    +0.000 C 
ATOM     19  C   UNL     1       1.674   6.299  20.588  0.00  0.00    +0.000 C 
ATOM     20  C   UNL     1       3.009   6.677  18.477  0.00  0.00    +0.000 C 
ENDBRANCH  15  18
ENDBRANCH  11  12
BRANCH   8  21
ATOM     21  C   UNL     1       3.350  14.801  20.544  0.00  0.00    +0.000 C 
ATOM     22  C   UNL     1       4.043  14.579  19.186  0.00  0.00    +0.000 C 
ATOM     23  C   UNL     1       3.316  16.312  20.834  0.00  0.00    +0.000 C 
ATOM     24  C   UNL     1       4.168  14.087  21.633  0.00  0.00    +0.000 C 
ENDBRANCH   8  21
BRANCH   1  26
ATOM     25  C   UNL     1      -2.813  10.847  15.835  0.00  0.00    +0.000 C 
ATOM     26  C   UNL     1      -3.086  10.565  17.288  0.00  0.00    +0.000 C 
ATOM     27  O   UNL     1      -3.714   9.561  17.633  0.00  0.00    +0.000 OA
ENDBRANCH   1  26
BRANCH   2  28
ATOM     28  O   UNL     1      -4.682  11.896  19.382  0.00  0.00    +0.000 OA
ATOM     29  H   UNL     1      -5.075  11.924  18.483  0.00  0.00    +0.000 HD
ENDBRANCH   2  28
TORSDOF 5
ENDMDL
MODEL 7
REMARK VINA RESULT:      -6.3      3.007      6.364
REMARK  Name = 
REMARK  11 active torsions:
REMARK  status: ('A' for Active; 'I' for Inactive)
REMARK    1  A    between atoms: C_1  and  C_2
REMARK    2  A    between atoms: C_2  and  C_4
REMARK    3  A    between atoms: C_5  and  O_6
REMARK    4  A    between atoms: C_12  and  C_13
REMARK    5  A    between atoms: C_13  and  C_14
REMARK    6  A    between atoms: C_13  and  C_15
REMARK    7  A    between atoms: C_13  and  C_16
REMARK    8  A    between atoms: C_19  and  C_20
REMARK    9  A    between atoms: C_23  and  C_24
REMARK   10  A    between atoms: C_24  and  C_25
REMARK   11  A    between atoms: C_24  and  C_26
REMARK                            x       y       z     vdW  Elec       q    Type
REMARK                         _______ _______ _______ _____ _____    ______ ____
ROOT
ATOM      1  C   UNL     1      -3.071  13.662  23.259  0.00  0.00    +0.000 C 
ATOM      2  C   UNL     1      -2.733  14.214  24.429  0.00  0.00    +0.000 C 
ATOM      3  C   UNL     1      -1.418  14.886  24.244  0.00  0.00    +0.000 C 
ATOM      4  O   UNL     1      -0.836  15.464  25.143  0.00  0.00    +0.000 OA
ATOM      5  N   UNL     1      -1.083  14.730  22.901  0.00  0.00    +0.000 N 
ATOM      6  C   UNL     1       0.084  15.257  22.349  0.00  0.00    +0.000 A 
ATOM      7  C   UNL     1       0.384  15.324  20.963  0.00  0.00    +0.000 A 
ATOM      8  C   UNL     1       1.633  15.889  20.883  0.00  0.00    +0.000 A 
ATOM      9  O   UNL     1       2.070  16.135  22.148  0.00  0.00    +0.000 OA
ATOM     10  N   UNL     1       1.100  15.767  23.053  0.00  0.00    +0.000 NA
ATOM     11  C   UNL     1      -2.049  13.908  22.198  0.00  0.00    +0.000 C 
ENDROOT
BRANCH  11  12
ATOM     12  C   UNL     1      -1.408  12.637  21.670  0.00  0.00    +0.000 A 
ATOM     13  C   UNL     1      -0.741  11.755  22.538  0.00  0.00    +0.000 A 
ATOM     14  C   UNL     1      -0.141  10.598  22.050  0.00  0.00    +0.000 A 
ATOM     15  C   UNL     1      -0.177  10.294  20.686  0.00  0.00    +0.000 A 
ATOM     16  C   UNL     1      -0.818  11.186  19.814  0.00  0.00    +0.000 A 
ATOM     17  C   UNL     1      -1.439  12.338  20.301  0.00  0.00    +0.000 A 
BRANCH  15  18
ATOM     18  C   UNL     1       0.465   9.011  20.191  0.00  0.00    +0.000 C 
ATOM     19  C   UNL     1       1.328   9.272  18.955  0.00  0.00    +0.000 C 
ATOM     20  C   UNL     1       1.266   8.314  21.292  0.00  0.00    +0.000 C 
ENDBRANCH  15  18
ENDBRANCH  11  12
BRANCH   8  21
ATOM     21  C   UNL     1       2.543  16.295  19.756  0.00  0.00    +0.000 C 
ATOM     22  C   UNL     1       3.653  17.234  20.267  0.00  0.00    +0.000 C 
ATOM     23  C   UNL     1       3.202  15.042  19.154  0.00  0.00    +0.000 C 
ATOM     24  C   UNL     1       1.745  17.030  18.666  0.00  0.00    +0.000 C 
ENDBRANCH   8  21
BRANCH   1  26
ATOM     25  C   UNL     1      -5.086  12.962  21.807  0.00  0.00    +0.000 C 
ATOM     26  C   UNL     1      -4.334  12.915  23.109  0.00  0.00    +0.000 C 
ATOM     27  O   UNL     1      -4.722  12.205  24.041  0.00  0.00    +0.000 OA
ENDBRANCH   1  26
BRANCH   2  28
ATOM     28  O   UNL     1      -3.432  14.201  25.605  0.00  0.00    +0.000 OA
ATOM     29  H   UNL     1      -4.386  14.138  25.384  0.00  0.00    +0.000 HD
ENDBRANCH   2  28
TORSDOF 5
ENDMDL
MODEL 8
REMARK VINA RESULT:      -6.2      1.774      2.251
REMARK  Name = 
REMARK  11 active torsions:
REMARK  status: ('A' for Active; 'I' for Inactive)
REMARK    1  A    between atoms: C_1  and  C_2
REMARK    2  A    between atoms: C_2  and  C_4
REMARK    3  A    between atoms: C_5  and  O_6
REMARK    4  A    between atoms: C_12  and  C_13
REMARK    5  A    between atoms: C_13  and  C_14
REMARK    6  A    between atoms: C_13  and  C_15
REMARK    7  A    between atoms: C_13  and  C_16
REMARK    8  A    between atoms: C_19  and  C_20
REMARK    9  A    between atoms: C_23  and  C_24
REMARK   10  A    between atoms: C_24  and  C_25
REMARK   11  A    between atoms: C_24  and  C_26
REMARK                            x       y       z     vdW  Elec       q    Type
REMARK                         _______ _______ _______ _____ _____    ______ ____
ROOT
ATOM      1  C   UNL     1      -0.419  10.807  19.944  0.00  0.00    +0.000 C 
ATOM      2  C   UNL     1      -0.282  10.100  21.071  0.00  0.00    +0.000 C 
ATOM      3  C   UNL     1      -0.499  11.030  22.213  0.00  0.00    +0.000 C 
ATOM      4  O   UNL     1      -0.419  10.683  23.376  0.00  0.00    +0.000 OA
ATOM      5  N   UNL     1      -0.824  12.265  21.655  0.00  0.00    +0.000 N 
ATOM      6  C   UNL     1      -1.121  13.386  22.429  0.00  0.00    +0.000 A 
ATOM      7  C   UNL     1      -1.665  14.604  21.942  0.00  0.00    +0.000 A 
ATOM      8  C   UNL     1      -1.768  15.426  23.038  0.00  0.00    +0.000 A 
ATOM      9  O   UNL     1      -1.300  14.749  24.122  0.00  0.00    +0.000 OA
ATOM     10  N   UNL     1      -0.925  13.478  23.749  0.00  0.00    +0.000 NA
ATOM     11  C   UNL     1      -0.741  12.240  20.208  0.00  0.00    +0.000 C 
ENDROOT
BRANCH  11  12
ATOM     12  C   UNL     1       0.322  13.201  19.703  0.00  0.00    +0.000 A 
ATOM     13  C   UNL     1       1.672  13.024  20.048  0.00  0.00    +0.000 A 
ATOM     14  C   UNL     1       2.643  13.913  19.596  0.00  0.00    +0.000 A 
ATOM     15  C   UNL     1       2.294  15.009  18.801  0.00  0.00    +0.000 A 
ATOM     16  C   UNL     1       0.943  15.204  18.478  0.00  0.00    +0.000 A 
ATOM     17  C   UNL     1      -0.032  14.303  18.912  0.00  0.00    +0.000 A 
BRANCH  15  18
ATOM     18  C   UNL     1       3.380  15.945  18.304  0.00  0.00    +0.000 C 
ATOM     19  C   UNL     1       4.602  15.160  17.825  0.00  0.00    +0.000 C 
ATOM     20  C   UNL     1       2.865  16.890  17.218  0.00  0.00    +0.000 C 
ENDBRANCH  15  18
ENDBRANCH  11  12
BRANCH   8  21
ATOM     21  C   UNL     1      -2.290  16.816  23.275  0.00  0.00    +0.000 C 
ATOM     22  C   UNL     1      -1.135  17.836  23.276  0.00  0.00    +0.000 C 
ATOM     23  C   UNL     1      -3.273  17.192  22.152  0.00  0.00    +0.000 C 
ATOM     24  C   UNL     1      -3.008  16.891  24.633  0.00  0.00    +0.000 C 
ENDBRANCH   8  21
BRANCH   1  26
ATOM     25  C   UNL     1      -1.396  10.196  17.635  0.00  0.00    +0.000 C 
ATOM     26  C   UNL     1      -0.263  10.166  18.624  0.00  0.00    +0.000 C 
ATOM     27  O   UNL     1       0.827   9.671  18.326  0.00  0.00    +0.000 OA
ENDBRANCH   1  26
BRANCH   2  28
ATOM     28  O   UNL     1      -0.004   8.767  21.207  0.00  0.00    +0.000 OA
ATOM     29  H   UNL     1       0.685   8.538  20.547  0.00  0.00    +0.000 HD
ENDBRANCH   2  28
TORSDOF 5
ENDMDL
MODEL 9
REMARK VINA RESULT:      -6.1      1.888      2.462
REMARK  Name = 
REMARK  11 active torsions:
REMARK  status: ('A' for Active; 'I' for Inactive)
REMARK    1  A    between atoms: C_1  and  C_2
REMARK    2  A    between atoms: C_2  and  C_4
REMARK    3  A    between atoms: C_5  and  O_6
REMARK    4  A    between atoms: C_12  and  C_13
REMARK    5  A    between atoms: C_13  and  C_14
REMARK    6  A    between atoms: C_13  and  C_15
REMARK    7  A    between atoms: C_13  and  C_16
REMARK    8  A    between atoms: C_19  and  C_20
REMARK    9  A    between atoms: C_23  and  C_24
REMARK   10  A    between atoms: C_24  and  C_25
REMARK   11  A    between atoms: C_24  and  C_26
REMARK                            x       y       z     vdW  Elec       q    Type
REMARK                         _______ _______ _______ _____ _____    ______ ____
ROOT
ATOM      1  C   UNL     1      -0.474  10.894  19.969  0.00  0.00    +0.000 C 
ATOM      2  C   UNL     1      -0.371  10.163  21.083  0.00  0.00    +0.000 C 
ATOM      3  C   UNL     1      -0.525  11.086  22.241  0.00  0.00    +0.000 C 
ATOM      4  O   UNL     1      -0.457  10.717  23.398  0.00  0.00    +0.000 OA
ATOM      5  N   UNL     1      -0.782  12.346  21.705  0.00  0.00    +0.000 N 
ATOM      6  C   UNL     1      -1.008  13.470  22.499  0.00  0.00    +0.000 A 
ATOM      7  C   UNL     1      -1.484  14.725  22.035  0.00  0.00    +0.000 A 
ATOM      8  C   UNL     1      -1.532  15.534  23.144  0.00  0.00    +0.000 A 
ATOM      9  O   UNL     1      -1.096  14.815  24.214  0.00  0.00    +0.000 OA
ATOM     10  N   UNL     1      -0.797  13.530  23.818  0.00  0.00    +0.000 NA
ATOM     11  C   UNL     1      -0.711  12.339  20.257  0.00  0.00    +0.000 C 
ENDROOT
BRANCH  11  12
ATOM     12  C   UNL     1       0.402  13.245  19.758  0.00  0.00    +0.000 A 
ATOM     13  C   UNL     1       0.111  14.376  18.976  0.00  0.00    +0.000 A 
ATOM     14  C   UNL     1       1.133  15.197  18.508  0.00  0.00    +0.000 A 
ATOM     15  C   UNL     1       2.471  14.906  18.793  0.00  0.00    +0.000 A 
ATOM     16  C   UNL     1       2.766  13.763  19.550  0.00  0.00    +0.000 A 
ATOM     17  C   UNL     1       1.743  12.948  20.039  0.00  0.00    +0.000 A 
BRANCH  15  18
ATOM     18  C   UNL     1       3.558  15.836  18.287  0.00  0.00    +0.000 C 
ATOM     19  C   UNL     1       4.778  15.045  17.813  0.00  0.00    +0.000 C 
ATOM     20  C   UNL     1       3.044  16.773  17.194  0.00  0.00    +0.000 C 
ENDBRANCH  15  18
ENDBRANCH  11  12
BRANCH   8  21
ATOM     21  C   UNL     1      -1.970  16.949  23.407  0.00  0.00    +0.000 C 
ATOM     22  C   UNL     1      -3.008  17.397  22.360  0.00  0.00    +0.000 C 
ATOM     23  C   UNL     1      -2.615  17.034  24.801  0.00  0.00    +0.000 C 
ATOM     24  C   UNL     1      -0.765  17.901  23.339  0.00  0.00    +0.000 C 
ENDBRANCH   8  21
BRANCH   1  26
ATOM     25  C   UNL     1      -1.516  10.347  17.672  0.00  0.00    +0.000 C 
ATOM     26  C   UNL     1      -0.365  10.267  18.638  0.00  0.00    +0.000 C 
ATOM     27  O   UNL     1       0.702   9.740  18.312  0.00  0.00    +0.000 OA
ENDBRANCH   1  26
BRANCH   2  28
ATOM     28  O   UNL     1      -0.169   8.814  21.198  0.00  0.00    +0.000 OA
ATOM     29  H   UNL     1       0.757   8.676  21.493  0.00  0.00    +0.000 HD
ENDBRANCH   2  28
TORSDOF 5
ENDMDL
