MODEL 1
REMARK VINA RESULT:      -7.2      0.000      0.000
REMARK  Name = 
REMARK  4 active torsions:
REMARK  status: ('A' for Active; 'I' for Inactive)
REMARK    1  A    between atoms: C_7  and  C_8
REMARK    2  A    between atoms: C_8  and  N_9
REMARK    3  A    between atoms: N_9  and  C_10
REMARK    4  A    between atoms: C_13  and  N_14
REMARK                            x       y       z     vdW  Elec       q    Type
REMARK                         _______ _______ _______ _____ _____    ______ ____
ROOT
ATOM      1  C   UNL     1       1.235   9.072  19.578  0.00  0.00    +0.000 A 
ATOM      2  C   UNL     1       1.413   8.027  20.483  0.00  0.00    +0.000 A 
ATOM      3  C   UNL     1       2.205   6.920  20.154  0.00  0.00    +0.000 A 
ATOM      4  C   UNL     1       2.831   6.791  18.909  0.00  0.00    +0.000 A 
ATOM      5  C   UNL     1       2.608   7.831  17.996  0.00  0.00    +0.000 A 
ATOM      6  C   UNL     1       1.808   8.938  18.315  0.00  0.00    +0.000 A 
ENDROOT
BRANCH   4   7
ATOM      7  N   UNL     1       3.588   5.689  18.588  0.00  0.00    +0.000 N 
ATOM      8  C   UNL     1       4.930   5.796  17.997  0.00  0.00    +0.000 C 
ATOM      9  C   UNL     1       5.912   4.892  18.779  0.00  0.00    +0.000 C 
ATOM     10  N   UNL     1       5.472   3.488  18.900  0.00  0.00    +0.000 NA
ATOM     11  C   UNL     1       4.109   3.448  19.472  0.00  0.00    +0.000 C 
ATOM     12  C   UNL     1       3.091   4.310  18.693  0.00  0.00    +0.000 C 
ATOM     13  H   UNL     1       6.106   2.998  19.529  0.00  0.00    +0.000 HD
ENDBRANCH   4   7
BRANCH   1  14
ATOM     14  N   UNL     1       0.442  10.197  19.835  0.00  0.00    +0.000 N 
ATOM     15  H   UNL     1       0.848  10.735  20.601  0.00  0.00    +0.000 HD
BRANCH  14  16
ATOM     16  C   UNL     1       0.128  11.065  18.700  0.00  0.00    +0.000 C 
BRANCH  16  23
ATOM     17 BR   UNL     1      -2.069  13.004  20.220  0.00  0.00    +0.000 Br
ATOM     18  C   UNL     1      -2.362  11.696  18.874  0.00  0.00    +0.000 A 
ATOM     19  C   UNL     1      -3.680  11.542  18.422  0.00  0.00    +0.000 A 
ATOM     20  C   UNL     1      -3.981  10.624  17.418  0.00  0.00    +0.000 A 
ATOM     21  C   UNL     1      -2.970   9.849  16.860  0.00  0.00    +0.000 A 
ATOM     22  C   UNL     1      -1.657   9.999  17.312  0.00  0.00    +0.000 A 
ATOM     23  C   UNL     1      -1.330  10.919  18.328  0.00  0.00    +0.000 A 
ENDBRANCH  16  23
ENDBRANCH  14  16
ENDBRANCH   1  14
TORSDOF 4
ENDMDL
MODEL 2
REMARK VINA RESULT:      -7.2      3.133      8.032
REMARK  Name = 
REMARK  4 active torsions:
REMARK  status: ('A' for Active; 'I' for Inactive)
REMARK    1  A    between atoms: C_7  and  C_8
REMARK    2  A    between atoms: C_8  and  N_9
REMARK    3  A    between atoms: N_9  and  C_10
REMARK    4  A    between atoms: C_13  and  N_14
REMARK                            x       y       z     vdW  Elec       q    Type
REMARK                         _______ _______ _______ _____ _____    ______ ____
ROOT
ATOM      1  C   UNL     1       2.033   7.874  19.617  0.00  0.00    +0.000 A 
ATOM      2  C   UNL     1       1.943   8.444  18.349  0.00  0.00    +0.000 A 
ATOM      3  C   UNL     1       1.204   9.615  18.139  0.00  0.00    +0.000 A 
ATOM      4  C   UNL     1       0.504  10.253  19.170  0.00  0.00    +0.000 A 
ATOM      5  C   UNL     1       0.571   9.643  20.431  0.00  0.00    +0.000 A 
ATOM      6  C   UNL     1       1.301   8.465  20.646  0.00  0.00    +0.000 A 
ENDROOT
BRANCH   4   7
ATOM      7  N   UNL     1      -0.236  11.390  18.948  0.00  0.00    +0.000 N 
ATOM      8  C   UNL     1      -1.680  11.352  18.674  0.00  0.00    +0.000 C 
ATOM      9  C   UNL     1      -2.405  12.369  19.588  0.00  0.00    +0.000 C 
ATOM     10  N   UNL     1      -1.864  13.741  19.512  0.00  0.00    +0.000 NA
ATOM     11  C   UNL     1      -0.407  13.708  19.766  0.00  0.00    +0.000 C 
ATOM     12  C   UNL     1       0.356  12.731  18.844  0.00  0.00    +0.000 C 
ATOM     13  H   UNL     1      -2.310  14.311  20.228  0.00  0.00    +0.000 HD
ENDBRANCH   4   7
BRANCH   1  14
ATOM     14  N   UNL     1       2.737   6.695  19.892  0.00  0.00    +0.000 N 
ATOM     15  H   UNL     1       3.524   6.902  20.507  0.00  0.00    +0.000 HD
BRANCH  14  16
ATOM     16  C   UNL     1       1.966   5.560  20.400  0.00  0.00    +0.000 C 
BRANCH  16  23
ATOM     17 BR   UNL     1       1.635   2.557  21.730  0.00  0.00    +0.000 Br
ATOM     18  C   UNL     1       2.036   3.029  19.934  0.00  0.00    +0.000 A 
ATOM     19  C   UNL     1       2.178   1.973  19.023  0.00  0.00    +0.000 A 
ATOM     20  C   UNL     1       2.447   2.230  17.679  0.00  0.00    +0.000 A 
ATOM     21  C   UNL     1       2.580   3.540  17.236  0.00  0.00    +0.000 A 
ATOM     22  C   UNL     1       2.441   4.593  18.144  0.00  0.00    +0.000 A 
ATOM     23  C   UNL     1       2.173   4.357  19.507  0.00  0.00    +0.000 A 
ENDBRANCH  16  23
ENDBRANCH  14  16
ENDBRANCH   1  14
TORSDOF 4
ENDMDL
MODEL 3
REMARK VINA RESULT:      -7.1      3.119      7.981
REMARK  Name = 
REMARK  4 active torsions:
REMARK  status: ('A' for Active; 'I' for Inactive)
REMARK    1  A    between atoms: C_7  and  C_8
REMARK    2  A    between atoms: C_8  and  N_9
REMARK    3  A    between atoms: N_9  and  C_10
REMARK    4  A    between atoms: C_13  and  N_14
REMARK                            x       y       z     vdW  Elec       q    Type
REMARK                         _______ _______ _______ _____ _____    ______ ____
ROOT
ATOM      1  C   UNL     1       2.056   7.757  19.889  0.00  0.00    +0.000 A 
ATOM      2  C   UNL     1       2.011   8.315  18.613  0.00  0.00    +0.000 A 
ATOM      3  C   UNL     1       1.257   9.467  18.358  0.00  0.00    +0.000 A 
ATOM      4  C   UNL     1       0.497  10.097  19.351  0.00  0.00    +0.000 A 
ATOM      5  C   UNL     1       0.520   9.500  20.619  0.00  0.00    +0.000 A 
ATOM      6  C   UNL     1       1.266   8.341  20.878  0.00  0.00    +0.000 A 
ENDROOT
BRANCH   4   7
ATOM      7  N   UNL     1      -0.258  11.216  19.085  0.00  0.00    +0.000 N 
ATOM      8  C   UNL     1      -1.499  11.163  18.300  0.00  0.00    +0.000 C 
ATOM      9  C   UNL     1      -2.619  11.919  19.054  0.00  0.00    +0.000 C 
ATOM     10  N   UNL     1      -2.263  13.302  19.434  0.00  0.00    +0.000 NA
ATOM     11  C   UNL     1      -0.994  13.290  20.193  0.00  0.00    +0.000 C 
ATOM     12  C   UNL     1       0.159  12.577  19.453  0.00  0.00    +0.000 C 
ATOM     13  H   UNL     1      -2.999  13.679  20.029  0.00  0.00    +0.000 HD
ENDBRANCH   4   7
BRANCH   1  14
ATOM     14  N   UNL     1       2.773   6.597  20.207  0.00  0.00    +0.000 N 
ATOM     15  H   UNL     1       2.195   5.983  20.779  0.00  0.00    +0.000 HD
BRANCH  14  16
ATOM     16  C   UNL     1       3.375   5.860  19.096  0.00  0.00    +0.000 C 
BRANCH  16  23
ATOM     17 BR   UNL     1       4.478   3.807  16.757  0.00  0.00    +0.000 Br
ATOM     18  C   UNL     1       3.015   3.582  17.949  0.00  0.00    +0.000 A 
ATOM     19  C   UNL     1       2.317   2.370  17.867  0.00  0.00    +0.000 A 
ATOM     20  C   UNL     1       1.247   2.110  18.722  0.00  0.00    +0.000 A 
ATOM     21  C   UNL     1       0.863   3.060  19.661  0.00  0.00    +0.000 A 
ATOM     22  C   UNL     1       1.556   4.270  19.741  0.00  0.00    +0.000 A 
ATOM     23  C   UNL     1       2.638   4.556  18.885  0.00  0.00    +0.000 A 
ENDBRANCH  16  23
ENDBRANCH  14  16
ENDBRANCH   1  14
TORSDOF 4
ENDMDL
MODEL 4
REMARK VINA RESULT:      -7.1      0.956      1.744
REMARK  Name = 
REMARK  4 active torsions:
REMARK  status: ('A' for Active; 'I' for Inactive)
REMARK    1  A    between atoms: C_7  and  C_8
REMARK    2  A    between atoms: C_8  and  N_9
REMARK    3  A    between atoms: N_9  and  C_10
REMARK    4  A    between atoms: C_13  and  N_14
REMARK                            x       y       z     vdW  Elec       q    Type
REMARK                         _______ _______ _______ _____ _____    ______ ____
ROOT
ATOM      1  C   UNL     1       1.442   9.178  18.548  0.00  0.00    +0.000 A 
ATOM      2  C   UNL     1       2.289   8.500  17.673  0.00  0.00    +0.000 A 
ATOM      3  C   UNL     1       2.907   7.302  18.054  0.00  0.00    +0.000 A 
ATOM      4  C   UNL     1       2.730   6.741  19.325  0.00  0.00    +0.000 A 
ATOM      5  C   UNL     1       1.908   7.456  20.207  0.00  0.00    +0.000 A 
ATOM      6  C   UNL     1       1.294   8.662  19.835  0.00  0.00    +0.000 A 
ENDROOT
BRANCH   4   7
ATOM      7  N   UNL     1       3.358   5.576  19.696  0.00  0.00    +0.000 N 
ATOM      8  C   UNL     1       2.711   4.564  20.544  0.00  0.00    +0.000 C 
ATOM      9  C   UNL     1       2.875   3.168  19.897  0.00  0.00    +0.000 C 
ATOM     10  N   UNL     1       4.273   2.811  19.580  0.00  0.00    +0.000 NA
ATOM     11  C   UNL     1       4.876   3.879  18.753  0.00  0.00    +0.000 C 
ATOM     12  C   UNL     1       4.765   5.283  19.386  0.00  0.00    +0.000 C 
ATOM     13  H   UNL     1       4.278   1.942  19.049  0.00  0.00    +0.000 HD
ENDBRANCH   4   7
BRANCH   1  14
ATOM     14  N   UNL     1       0.810  10.388  18.239  0.00  0.00    +0.000 N 
ATOM     15  H   UNL     1       0.507  10.377  17.265  0.00  0.00    +0.000 HD
BRANCH  14  16
ATOM     16  C   UNL     1      -0.279  10.815  19.117  0.00  0.00    +0.000 C 
BRANCH  16  23
ATOM     17 BR   UNL     1      -2.745  12.717  20.216  0.00  0.00    +0.000 Br
ATOM     18  C   UNL     1      -2.705  11.572  18.700  0.00  0.00    +0.000 A 
ATOM     19  C   UNL     1      -3.857  11.544  17.903  0.00  0.00    +0.000 A 
ATOM     20  C   UNL     1      -3.906  10.752  16.757  0.00  0.00    +0.000 A 
ATOM     21  C   UNL     1      -2.806   9.980  16.400  0.00  0.00    +0.000 A 
ATOM     22  C   UNL     1      -1.659  10.005  17.195  0.00  0.00    +0.000 A 
ATOM     23  C   UNL     1      -1.589  10.795  18.361  0.00  0.00    +0.000 A 
ENDBRANCH  16  23
ENDBRANCH  14  16
ENDBRANCH   1  14
TORSDOF 4
ENDMDL
MODEL 5
REMARK VINA RESULT:      -7.1      3.115      7.905
REMARK  Name = 
REMARK  4 active torsions:
REMARK  status: ('A' for Active; 'I' for Inactive)
REMARK    1  A    between atoms: C_7  and  C_8
REMARK    2  A    between atoms: C_8  and  N_9
REMARK    3  A    between atoms: N_9  and  C_10
REMARK    4  A    between atoms: C_13  and  N_14
REMARK                            x       y       z     vdW  Elec       q    Type
REMARK                         _______ _______ _______ _____ _____    ______ ____
ROOT
ATOM      1  C   UNL     1       1.848   7.727  20.128  0.00  0.00    +0.000 A 
ATOM      2  C   UNL     1       1.017   8.232  21.127  0.00  0.00    +0.000 A 
ATOM      3  C   UNL     1       0.188   9.333  20.882  0.00  0.00    +0.000 A 
ATOM      4  C   UNL     1       0.166   9.993  19.648  0.00  0.00    +0.000 A 
ATOM      5  C   UNL     1       1.037   9.499  18.668  0.00  0.00    +0.000 A 
ATOM      6  C   UNL     1       1.878   8.402  18.909  0.00  0.00    +0.000 A 
ENDROOT
BRANCH   4   7
ATOM      7  N   UNL     1      -0.636  11.088  19.425  0.00  0.00    +0.000 N 
ATOM      8  C   UNL     1      -1.356  11.296  18.160  0.00  0.00    +0.000 C 
ATOM      9  C   UNL     1      -2.836  11.633  18.458  0.00  0.00    +0.000 C 
ATOM     10  N   UNL     1      -3.021  12.762  19.392  0.00  0.00    +0.000 NA
ATOM     11  C   UNL     1      -2.252  12.507  20.629  0.00  0.00    +0.000 C 
ATOM     12  C   UNL     1      -0.758  12.205  20.372  0.00  0.00    +0.000 C 
ATOM     13  H   UNL     1      -4.009  12.834  19.629  0.00  0.00    +0.000 HD
ENDBRANCH   4   7
BRANCH   1  14
ATOM     14  N   UNL     1       2.715   6.643  20.312  0.00  0.00    +0.000 N 
ATOM     15  H   UNL     1       2.284   5.962  20.937  0.00  0.00    +0.000 HD
BRANCH  14  16
ATOM     16  C   UNL     1       3.231   5.991  19.109  0.00  0.00    +0.000 C 
BRANCH  16  23
ATOM     17 BR   UNL     1       4.394   3.972  16.769  0.00  0.00    +0.000 Br
ATOM     18  C   UNL     1       2.954   3.694  17.978  0.00  0.00    +0.000 A 
ATOM     19  C   UNL     1       2.306   2.453  17.909  0.00  0.00    +0.000 A 
ATOM     20  C   UNL     1       1.257   2.154  18.777  0.00  0.00    +0.000 A 
ATOM     21  C   UNL     1       0.844   3.093  19.716  0.00  0.00    +0.000 A 
ATOM     22  C   UNL     1       1.487   4.331  19.782  0.00  0.00    +0.000 A 
ATOM     23  C   UNL     1       2.547   4.656  18.913  0.00  0.00    +0.000 A 
ENDBRANCH  16  23
ENDBRANCH  14  16
ENDBRANCH   1  14
TORSDOF 4
ENDMDL
MODEL 6
REMARK VINA RESULT:      -7.1      3.214      7.984
REMARK  Name = 
REMARK  4 active torsions:
REMARK  status: ('A' for Active; 'I' for Inactive)
REMARK    1  A    between atoms: C_7  and  C_8
REMARK    2  A    between atoms: C_8  and  N_9
REMARK    3  A    between atoms: N_9  and  C_10
REMARK    4  A    between atoms: C_13  and  N_14
REMARK                            x       y       z     vdW  Elec       q    Type
REMARK                         _______ _______ _______ _____ _____    ______ ____
ROOT
ATOM      1  C   UNL     1       1.908   7.898  19.766  0.00  0.00    +0.000 A 
ATOM      2  C   UNL     1       1.232   8.576  20.779  0.00  0.00    +0.000 A 
ATOM      3  C   UNL     1       0.543   9.765  20.512  0.00  0.00    +0.000 A 
ATOM      4  C   UNL     1       0.516  10.343  19.237  0.00  0.00    +0.000 A 
ATOM      5  C   UNL     1       1.234   9.671  18.238  0.00  0.00    +0.000 A 
ATOM      6  C   UNL     1       1.935   8.486  18.502  0.00  0.00    +0.000 A 
ENDROOT
BRANCH   4   7
ATOM      7  N   UNL     1      -0.147  11.523  18.990  0.00  0.00    +0.000 N 
ATOM      8  C   UNL     1      -1.613  11.611  18.942  0.00  0.00    +0.000 C 
ATOM      9  C   UNL     1      -2.088  12.792  19.822  0.00  0.00    +0.000 C 
ATOM     10  N   UNL     1      -1.446  14.082  19.498  0.00  0.00    +0.000 NA
ATOM     11  C   UNL     1       0.024  13.921  19.533  0.00  0.00    +0.000 C 
ATOM     12  C   UNL     1       0.538  12.774  18.634  0.00  0.00    +0.000 C 
ATOM     13  H   UNL     1      -1.718  14.770  20.198  0.00  0.00    +0.000 HD
ENDBRANCH   4   7
BRANCH   1  14
ATOM     14  N   UNL     1       2.633   6.718  19.968  0.00  0.00    +0.000 N 
ATOM     15  H   UNL     1       3.438   6.908  20.564  0.00  0.00    +0.000 HD
BRANCH  14  16
ATOM     16  C   UNL     1       1.890   5.555  20.455  0.00  0.00    +0.000 C 
BRANCH  16  23
ATOM     17 BR   UNL     1       1.672   2.521  21.739  0.00  0.00    +0.000 Br
ATOM     18  C   UNL     1       2.039   3.035  19.947  0.00  0.00    +0.000 A 
ATOM     19  C   UNL     1       2.206   1.999  19.018  0.00  0.00    +0.000 A 
ATOM     20  C   UNL     1       2.453   2.286  17.676  0.00  0.00    +0.000 A 
ATOM     21  C   UNL     1       2.537   3.607  17.252  0.00  0.00    +0.000 A 
ATOM     22  C   UNL     1       2.374   4.640  18.179  0.00  0.00    +0.000 A 
ATOM     23  C   UNL     1       2.128   4.374  19.541  0.00  0.00    +0.000 A 
ENDBRANCH  16  23
ENDBRANCH  14  16
ENDBRANCH   1  14
TORSDOF 4
ENDMDL
MODEL 7
REMARK VINA RESULT:      -7.1      1.216      1.553
REMARK  Name = 
REMARK  4 active torsions:
REMARK  status: ('A' for Active; 'I' for Inactive)
REMARK    1  A    between atoms: C_7  and  C_8
REMARK    2  A    between atoms: C_8  and  N_9
REMARK    3  A    between atoms: N_9  and  C_10
REMARK    4  A    between atoms: C_13  and  N_14
REMARK                            x       y       z     vdW  Elec       q    Type
REMARK                         _______ _______ _______ _____ _____    ______ ____
ROOT
ATOM      1  C   UNL     1       1.712   8.131  19.617  0.00  0.00    +0.000 A 
ATOM      2  C   UNL     1       1.632   7.031  20.468  0.00  0.00    +0.000 A 
ATOM      3  C   UNL     1       2.223   5.810  20.121  0.00  0.00    +0.000 A 
ATOM      4  C   UNL     1       2.896   5.623  18.907  0.00  0.00    +0.000 A 
ATOM      5  C   UNL     1       2.932   6.728  18.044  0.00  0.00    +0.000 A 
ATOM      6  C   UNL     1       2.332   7.950  18.382  0.00  0.00    +0.000 A 
ENDROOT
BRANCH   4   7
ATOM      7  N   UNL     1       3.454   4.414  18.566  0.00  0.00    +0.000 N 
ATOM      8  C   UNL     1       4.567   3.816  19.319  0.00  0.00    +0.000 C 
ATOM      9  C   UNL     1       4.236   2.341  19.644  0.00  0.00    +0.000 C 
ATOM     10  N   UNL     1       3.869   1.531  18.464  0.00  0.00    +0.000 NA
ATOM     11  C   UNL     1       2.769   2.197  17.735  0.00  0.00    +0.000 C 
ATOM     12  C   UNL     1       3.080   3.663  17.359  0.00  0.00    +0.000 C 
ATOM     13  H   UNL     1       3.549   0.617  18.780  0.00  0.00    +0.000 HD
ENDBRANCH   4   7
BRANCH   1  14
ATOM     14  N   UNL     1       1.127   9.373  19.893  0.00  0.00    +0.000 N 
ATOM     15  H   UNL     1       1.630   9.827  20.655  0.00  0.00    +0.000 HD
BRANCH  14  16
ATOM     16  C   UNL     1       0.948  10.291  18.768  0.00  0.00    +0.000 C 
BRANCH  16  23
ATOM     17 BR   UNL     1      -0.493  12.609  20.626  0.00  0.00    +0.000 Br
ATOM     18  C   UNL     1      -1.253  11.537  19.253  0.00  0.00    +0.000 A 
ATOM     19  C   UNL     1      -2.599  11.772  18.945  0.00  0.00    +0.000 A 
ATOM     20  C   UNL     1      -3.229  11.049  17.933  0.00  0.00    +0.000 A 
ATOM     21  C   UNL     1      -2.522  10.084  17.225  0.00  0.00    +0.000 A 
ATOM     22  C   UNL     1      -1.180   9.848  17.534  0.00  0.00    +0.000 A 
ATOM     23  C   UNL     1      -0.524  10.563  18.555  0.00  0.00    +0.000 A 
ENDBRANCH  16  23
ENDBRANCH  14  16
ENDBRANCH   1  14
TORSDOF 4
ENDMDL
MODEL 8
REMARK VINA RESULT:      -7.1      1.089      1.534
REMARK  Name = 
REMARK  4 active torsions:
REMARK  status: ('A' for Active; 'I' for Inactive)
REMARK    1  A    between atoms: C_7  and  C_8
REMARK    2  A    between atoms: C_8  and  N_9
REMARK    3  A    between atoms: N_9  and  C_10
REMARK    4  A    between atoms: C_13  and  N_14
REMARK                            x       y       z     vdW  Elec       q    Type
REMARK                         _______ _______ _______ _____ _____    ______ ____
ROOT
ATOM      1  C   UNL     1       1.222   9.280  18.913  0.00  0.00    +0.000 A 
ATOM      2  C   UNL     1       1.193   8.725  20.190  0.00  0.00    +0.000 A 
ATOM      3  C   UNL     1       1.856   7.522  20.466  0.00  0.00    +0.000 A 
ATOM      4  C   UNL     1       2.553   6.810  19.482  0.00  0.00    +0.000 A 
ATOM      5  C   UNL     1       2.538   7.361  18.194  0.00  0.00    +0.000 A 
ATOM      6  C   UNL     1       1.867   8.560  17.909  0.00  0.00    +0.000 A 
ENDROOT
BRANCH   4   7
ATOM      7  N   UNL     1       3.182   5.619  19.759  0.00  0.00    +0.000 N 
ATOM      8  C   UNL     1       2.577   4.584  20.609  0.00  0.00    +0.000 C 
ATOM      9  C   UNL     1       2.666   3.214  19.896  0.00  0.00    +0.000 C 
ATOM     10  N   UNL     1       4.029   2.846  19.463  0.00  0.00    +0.000 NA
ATOM     11  C   UNL     1       4.593   3.937  18.639  0.00  0.00    +0.000 C 
ATOM     12  C   UNL     1       4.557   5.315  19.336  0.00  0.00    +0.000 C 
ATOM     13  H   UNL     1       3.978   2.000  18.899  0.00  0.00    +0.000 HD
ENDBRANCH   4   7
BRANCH   1  14
ATOM     14  N   UNL     1       0.566  10.467  18.565  0.00  0.00    +0.000 N 
ATOM     15  H   UNL     1       0.448  10.509  17.553  0.00  0.00    +0.000 HD
BRANCH  14  16
ATOM     16  C   UNL     1      -0.696  10.755  19.247  0.00  0.00    +0.000 C 
BRANCH  16  23
ATOM     17 BR   UNL     1      -3.382  12.554  19.919  0.00  0.00    +0.000 Br
ATOM     18  C   UNL     1      -3.018  11.473  18.398  0.00  0.00    +0.000 A 
ATOM     19  C   UNL     1      -3.996  11.452  17.394  0.00  0.00    +0.000 A 
ATOM     20  C   UNL     1      -3.800  10.706  16.233  0.00  0.00    +0.000 A 
ATOM     21  C   UNL     1      -2.630   9.974  16.067  0.00  0.00    +0.000 A 
ATOM     22  C   UNL     1      -1.657   9.992  17.069  0.00  0.00    +0.000 A 
ATOM     23  C   UNL     1      -1.835  10.736  18.253  0.00  0.00    +0.000 A 
ENDBRANCH  16  23
ENDBRANCH  14  16
ENDBRANCH   1  14
TORSDOF 4
ENDMDL
MODEL 9
REMARK VINA RESULT:      -7.0      1.213      1.858
REMARK  Name = 
REMARK  4 active torsions:
REMARK  status: ('A' for Active; 'I' for Inactive)
REMARK    1  A    between atoms: C_7  and  C_8
REMARK    2  A    between atoms: C_8  and  N_9
REMARK    3  A    between atoms: N_9  and  C_10
REMARK    4  A    between atoms: C_13  and  N_14
REMARK                            x       y       z     vdW  Elec       q    Type
REMARK                         _______ _______ _______ _____ _____    ______ ____
ROOT
ATOM      1  C   UNL     1       1.669   8.139  19.651  0.00  0.00    +0.000 A 
ATOM      2  C   UNL     1       2.333   7.977  18.437  0.00  0.00    +0.000 A 
ATOM      3  C   UNL     1       2.887   6.741  18.080  0.00  0.00    +0.000 A 
ATOM      4  C   UNL     1       2.827   5.624  18.923  0.00  0.00    +0.000 A 
ATOM      5  C   UNL     1       2.192   5.816  20.158  0.00  0.00    +0.000 A 
ATOM      6  C   UNL     1       1.645   7.054  20.525  0.00  0.00    +0.000 A 
ENDROOT
BRANCH   4   7
ATOM      7  N   UNL     1       3.393   4.421  18.573  0.00  0.00    +0.000 N 
ATOM      8  C   UNL     1       4.547   3.853  19.285  0.00  0.00    +0.000 C 
ATOM      9  C   UNL     1       4.257   2.375  19.640  0.00  0.00    +0.000 C 
ATOM     10  N   UNL     1       3.856   1.545  18.486  0.00  0.00    +0.000 NA
ATOM     11  C   UNL     1       2.714   2.183  17.796  0.00  0.00    +0.000 C 
ATOM     12  C   UNL     1       2.982   3.649  17.391  0.00  0.00    +0.000 C 
ATOM     13  H   UNL     1       3.567   0.629  18.825  0.00  0.00    +0.000 HD
ENDBRANCH   4   7
BRANCH   1  14
ATOM     14  N   UNL     1       1.112   9.351  20.077  0.00  0.00    +0.000 N 
ATOM     15  H   UNL     1       1.603   9.682  20.907  0.00  0.00    +0.000 HD
BRANCH  14  16
ATOM     16  C   UNL     1       0.996  10.418  19.082  0.00  0.00    +0.000 C 
BRANCH  16  23
ATOM     17 BR   UNL     1      -0.729  12.684  20.753  0.00  0.00    +0.000 Br
ATOM     18  C   UNL     1      -1.295  11.569  19.322  0.00  0.00    +0.000 A 
ATOM     19  C   UNL     1      -2.611  11.741  18.873  0.00  0.00    +0.000 A 
ATOM     20  C   UNL     1      -3.102  10.984  17.811  0.00  0.00    +0.000 A 
ATOM     21  C   UNL     1      -2.284  10.046  17.191  0.00  0.00    +0.000 A 
ATOM     22  C   UNL     1      -0.973   9.871  17.640  0.00  0.00    +0.000 A 
ATOM     23  C   UNL     1      -0.457  10.623  18.715  0.00  0.00    +0.000 A 
ENDBRANCH  16  23
ENDBRANCH  14  16
ENDBRANCH   1  14
TORSDOF 4
ENDMDL
