MODEL 1
REMARK VINA RESULT:      -6.7      0.000      0.000
REMARK  Name = 
REMARK  5 active torsions:
REMARK  status: ('A' for Active; 'I' for Inactive)
REMARK    1  A    between atoms: C_1  and  O_2
REMARK    2  A    between atoms: O_2  and  C_3
REMARK    3  A    between atoms: C_6  and  N_7
REMARK    4  A    between atoms: C_8  and  C_10
REMARK    5  A    between atoms: C_17  and  O_18
REMARK                            x       y       z     vdW  Elec       q    Type
REMARK                         _______ _______ _______ _____ _____    ______ ____
ROOT
ATOM      1  N   UNL     1       1.828   7.586  19.916  0.00  0.00    +0.000 N 
ATOM      2  C   UNL     1       2.472   7.606  18.690  0.00  0.00    +0.000 C 
ATOM      3  O   UNL     1       2.626   8.602  17.988  0.00  0.00    +0.000 OA
ATOM      4  H   UNL     1       1.823   6.698  20.409  0.00  0.00    +0.000 HD
ENDROOT
BRANCH   2   5
ATOM      5  C   UNL     1       3.020   6.318  18.158  0.00  0.00    +0.000 A 
ATOM      6  C   UNL     1       2.308   5.155  18.523  0.00  0.00    +0.000 A 
ATOM      7  C   UNL     1       2.749   3.894  18.139  0.00  0.00    +0.000 A 
ATOM      8  I   UNL     1       1.687   2.210  18.737  0.00  0.00    +0.000 I 
ATOM      9  C   UNL     1       3.903   3.756  17.376  0.00  0.00    +0.000 A 
ATOM     10  C   UNL     1       4.609   4.901  16.994  0.00  0.00    +0.000 A 
ATOM     11  I   UNL     1       6.346   4.635  15.854  0.00  0.00    +0.000 I 
ATOM     12  C   UNL     1       4.175   6.181  17.377  0.00  0.00    +0.000 A 
BRANCH  12  13
ATOM     13  O   UNL     1       4.880   7.297  16.995  0.00  0.00    +0.000 OA
ATOM     14  H   UNL     1       5.824   7.043  16.955  0.00  0.00    +0.000 HD
ENDBRANCH  12  13
ENDBRANCH   2   5
BRANCH   1  18
ATOM     15  C   UNL     1      -0.068  10.838  21.868  0.00  0.00    +0.000 A 
ATOM     16  C   UNL     1      -0.017  10.798  20.479  0.00  0.00    +0.000 A 
ATOM     17  C   UNL     1       0.594   9.729  19.823  0.00  0.00    +0.000 A 
ATOM     18  C   UNL     1       1.188   8.689  20.537  0.00  0.00    +0.000 A 
ATOM     19  C   UNL     1       1.142   8.735  21.936  0.00  0.00    +0.000 A 
ATOM     20  C   UNL     1       0.520   9.808  22.599  0.00  0.00    +0.000 A 
BRANCH  15  22
ATOM     21  C   UNL     1      -1.926  11.742  23.016  0.00  0.00    +0.000 C 
ATOM     22  O   UNL     1      -0.673  11.951  22.381  0.00  0.00    +0.000 OA
ENDBRANCH  15  22
ENDBRANCH   1  18
TORSDOF 4
ENDMDL
MODEL 2
REMARK VINA RESULT:      -6.7      1.414      1.850
REMARK  Name = 
REMARK  5 active torsions:
REMARK  status: ('A' for Active; 'I' for Inactive)
REMARK    1  A    between atoms: C_1  and  O_2
REMARK    2  A    between atoms: O_2  and  C_3
REMARK    3  A    between atoms: C_6  and  N_7
REMARK    4  A    between atoms: C_8  and  C_10
REMARK    5  A    between atoms: C_17  and  O_18
REMARK                            x       y       z     vdW  Elec       q    Type
REMARK                         _______ _______ _______ _____ _____    ______ ____
ROOT
ATOM      1  N   UNL     1       1.283   8.142  21.156  0.00  0.00    +0.000 N 
ATOM      2  C   UNL     1       1.748   7.971  19.862  0.00  0.00    +0.000 C 
ATOM      3  O   UNL     1       1.670   8.807  18.966  0.00  0.00    +0.000 OA
ATOM      4  H   UNL     1       1.465   7.381  21.805  0.00  0.00    +0.000 HD
ENDROOT
BRANCH   2   5
ATOM      5  C   UNL     1       2.388   6.664  19.508  0.00  0.00    +0.000 A 
ATOM      6  C   UNL     1       2.045   5.573  20.335  0.00  0.00    +0.000 A 
ATOM      7  C   UNL     1       2.617   4.320  20.144  0.00  0.00    +0.000 A 
ATOM      8  I   UNL     1       2.109   2.755  21.414  0.00  0.00    +0.000 I 
ATOM      9  C   UNL     1       3.537   4.118  19.120  0.00  0.00    +0.000 A 
ATOM     10  C   UNL     1       3.874   5.186  18.284  0.00  0.00    +0.000 A 
ATOM     11  I   UNL     1       5.272   4.828  16.766  0.00  0.00    +0.000 I 
ATOM     12  C   UNL     1       3.304   6.458  18.469  0.00  0.00    +0.000 A 
BRANCH  12  13
ATOM     13  O   UNL     1       3.645   7.498  17.639  0.00  0.00    +0.000 OA
ATOM     14  H   UNL     1       2.948   7.563  16.955  0.00  0.00    +0.000 HD
ENDBRANCH  12  13
ENDBRANCH   2   5
BRANCH   1  18
ATOM     15  C   UNL     1      -0.733  11.599  22.555  0.00  0.00    +0.000 A 
ATOM     16  C   UNL     1      -0.964  10.370  23.162  0.00  0.00    +0.000 A 
ATOM     17  C   UNL     1      -0.299   9.225  22.719  0.00  0.00    +0.000 A 
ATOM     18  C   UNL     1       0.591   9.278  21.647  0.00  0.00    +0.000 A 
ATOM     19  C   UNL     1       0.815  10.516  21.032  0.00  0.00    +0.000 A 
ATOM     20  C   UNL     1       0.153  11.672  21.483  0.00  0.00    +0.000 A 
BRANCH  15  22
ATOM     21  C   UNL     1      -2.854  12.385  23.241  0.00  0.00    +0.000 C 
ATOM     22  O   UNL     1      -1.466  12.631  23.070  0.00  0.00    +0.000 OA
ENDBRANCH  15  22
ENDBRANCH   1  18
TORSDOF 4
ENDMDL
MODEL 3
REMARK VINA RESULT:      -6.7      3.578      7.772
REMARK  Name = 
REMARK  5 active torsions:
REMARK  status: ('A' for Active; 'I' for Inactive)
REMARK    1  A    between atoms: C_1  and  O_2
REMARK    2  A    between atoms: O_2  and  C_3
REMARK    3  A    between atoms: C_6  and  N_7
REMARK    4  A    between atoms: C_8  and  C_10
REMARK    5  A    between atoms: C_17  and  O_18
REMARK                            x       y       z     vdW  Elec       q    Type
REMARK                         _______ _______ _______ _____ _____    ______ ____
ROOT
ATOM      1  N   UNL     1       2.610   7.010  18.418  0.00  0.00    +0.000 N 
ATOM      2  C   UNL     1       2.165   8.267  18.043  0.00  0.00    +0.000 C 
ATOM      3  O   UNL     1       2.546   8.886  17.053  0.00  0.00    +0.000 OA
ATOM      4  H   UNL     1       2.166   6.598  19.234  0.00  0.00    +0.000 HD
ENDROOT
BRANCH   2   5
ATOM      5  C   UNL     1       1.150   8.944  18.910  0.00  0.00    +0.000 A 
ATOM      6  C   UNL     1       0.217   9.760  18.234  0.00  0.00    +0.000 A 
ATOM      7  C   UNL     1      -0.740  10.487  18.933  0.00  0.00    +0.000 A 
ATOM      8  I   UNL     1      -2.064  11.705  17.893  0.00  0.00    +0.000 I 
ATOM      9  C   UNL     1      -0.802  10.414  20.320  0.00  0.00    +0.000 A 
ATOM     10  C   UNL     1       0.106   9.597  21.001  0.00  0.00    +0.000 A 
ATOM     11  I   UNL     1      -0.025   9.533  23.091  0.00  0.00    +0.000 I 
ATOM     12  C   UNL     1       1.080   8.859  20.307  0.00  0.00    +0.000 A 
BRANCH  12  13
ATOM     13  O   UNL     1       1.964   8.061  20.990  0.00  0.00    +0.000 OA
ATOM     14  H   UNL     1       1.566   7.869  21.863  0.00  0.00    +0.000 HD
ENDBRANCH  12  13
ENDBRANCH   2   5
BRANCH   1  18
ATOM     15  C   UNL     1       5.555   4.662  16.471  0.00  0.00    +0.000 A 
ATOM     16  C   UNL     1       5.786   6.013  16.699  0.00  0.00    +0.000 A 
ATOM     17  C   UNL     1       4.831   6.796  17.348  0.00  0.00    +0.000 A 
ATOM     18  C   UNL     1       3.615   6.254  17.762  0.00  0.00    +0.000 A 
ATOM     19  C   UNL     1       3.381   4.893  17.524  0.00  0.00    +0.000 A 
ATOM     20  C   UNL     1       4.346   4.101  16.878  0.00  0.00    +0.000 A 
BRANCH  15  22
ATOM     21  C   UNL     1       6.461   4.005  14.389  0.00  0.00    +0.000 C 
ATOM     22  O   UNL     1       6.561   4.019  15.805  0.00  0.00    +0.000 OA
ENDBRANCH  15  22
ENDBRANCH   1  18
TORSDOF 4
ENDMDL
MODEL 4
REMARK VINA RESULT:      -6.6      2.230      2.550
REMARK  Name = 
REMARK  5 active torsions:
REMARK  status: ('A' for Active; 'I' for Inactive)
REMARK    1  A    between atoms: C_1  and  O_2
REMARK    2  A    between atoms: O_2  and  C_3
REMARK    3  A    between atoms: C_6  and  N_7
REMARK    4  A    between atoms: C_8  and  C_10
REMARK    5  A    between atoms: C_17  and  O_18
REMARK                            x       y       z     vdW  Elec       q    Type
REMARK                         _______ _______ _______ _____ _____    ______ ____
ROOT
ATOM      1  N   UNL     1       1.955   8.597  17.805  0.00  0.00    +0.000 N 
ATOM      2  C   UNL     1       2.299   7.617  18.722  0.00  0.00    +0.000 C 
ATOM      3  O   UNL     1       2.187   7.719  19.941  0.00  0.00    +0.000 OA
ATOM      4  H   UNL     1       2.053   8.351  16.824  0.00  0.00    +0.000 HD
ENDROOT
BRANCH   2   5
ATOM      5  C   UNL     1       2.864   6.331  18.204  0.00  0.00    +0.000 A 
ATOM      6  C   UNL     1       2.172   5.162  18.588  0.00  0.00    +0.000 A 
ATOM      7  C   UNL     1       2.631   3.903  18.218  0.00  0.00    +0.000 A 
ATOM      8  I   UNL     1       1.599   2.211  18.843  0.00  0.00    +0.000 I 
ATOM      9  C   UNL     1       3.782   3.774  17.449  0.00  0.00    +0.000 A 
ATOM     10  C   UNL     1       4.468   4.924  17.048  0.00  0.00    +0.000 A 
ATOM     11  I   UNL     1       6.202   4.671  15.900  0.00  0.00    +0.000 I 
ATOM     12  C   UNL     1       4.016   6.203  17.418  0.00  0.00    +0.000 A 
BRANCH  12  13
ATOM     13  O   UNL     1       4.701   7.324  17.016  0.00  0.00    +0.000 OA
ATOM     14  H   UNL     1       4.389   7.546  16.116  0.00  0.00    +0.000 HD
ENDBRANCH  12  13
ENDBRANCH   2   5
BRANCH   1  18
ATOM     15  C   UNL     1       0.424  12.440  18.735  0.00  0.00    +0.000 A 
ATOM     16  C   UNL     1       1.780  12.278  18.479  0.00  0.00    +0.000 A 
ATOM     17  C   UNL     1       2.297  11.022  18.161  0.00  0.00    +0.000 A 
ATOM     18  C   UNL     1       1.476   9.895  18.115  0.00  0.00    +0.000 A 
ATOM     19  C   UNL     1       0.110  10.059  18.382  0.00  0.00    +0.000 A 
ATOM     20  C   UNL     1      -0.413  11.326  18.694  0.00  0.00    +0.000 A 
BRANCH  15  22
ATOM     21  C   UNL     1       1.074  14.700  18.962  0.00  0.00    +0.000 C 
ATOM     22  O   UNL     1       0.055  13.716  19.057  0.00  0.00    +0.000 OA
ENDBRANCH  15  22
ENDBRANCH   1  18
TORSDOF 4
ENDMDL
MODEL 5
REMARK VINA RESULT:      -6.6      0.126      1.078
REMARK  Name = 
REMARK  5 active torsions:
REMARK  status: ('A' for Active; 'I' for Inactive)
REMARK    1  A    between atoms: C_1  and  O_2
REMARK    2  A    between atoms: O_2  and  C_3
REMARK    3  A    between atoms: C_6  and  N_7
REMARK    4  A    between atoms: C_8  and  C_10
REMARK    5  A    between atoms: C_17  and  O_18
REMARK                            x       y       z     vdW  Elec       q    Type
REMARK                         _______ _______ _______ _____ _____    ______ ____
ROOT
ATOM      1  N   UNL     1       1.856   7.565  19.882  0.00  0.00    +0.000 N 
ATOM      2  C   UNL     1       2.510   7.582  18.661  0.00  0.00    +0.000 C 
ATOM      3  O   UNL     1       2.683   8.579  17.966  0.00  0.00    +0.000 OA
ATOM      4  H   UNL     1       1.835   6.674  20.371  0.00  0.00    +0.000 HD
ENDROOT
BRANCH   2   5
ATOM      5  C   UNL     1       3.044   6.290  18.128  0.00  0.00    +0.000 A 
ATOM      6  C   UNL     1       2.332   5.132  18.508  0.00  0.00    +0.000 A 
ATOM      7  C   UNL     1       2.762   3.866  18.123  0.00  0.00    +0.000 A 
ATOM      8  I   UNL     1       1.701   2.190  18.744  0.00  0.00    +0.000 I 
ATOM      9  C   UNL     1       3.904   3.720  17.343  0.00  0.00    +0.000 A 
ATOM     10  C   UNL     1       4.610   4.860  16.946  0.00  0.00    +0.000 A 
ATOM     11  I   UNL     1       6.328   4.581  15.781  0.00  0.00    +0.000 I 
ATOM     12  C   UNL     1       4.187   6.144  17.330  0.00  0.00    +0.000 A 
BRANCH  12  13
ATOM     13  O   UNL     1       4.891   7.255  16.932  0.00  0.00    +0.000 OA
ATOM     14  H   UNL     1       5.096   7.142  15.982  0.00  0.00    +0.000 HD
ENDBRANCH  12  13
ENDBRANCH   2   5
BRANCH   1  18
ATOM     15  C   UNL     1      -0.033  10.927  21.646  0.00  0.00    +0.000 A 
ATOM     16  C   UNL     1       0.444   9.899  22.451  0.00  0.00    +0.000 A 
ATOM     17  C   UNL     1       1.078   8.792  21.886  0.00  0.00    +0.000 A 
ATOM     18  C   UNL     1       1.227   8.674  20.504  0.00  0.00    +0.000 A 
ATOM     19  C   UNL     1       0.738   9.707  19.694  0.00  0.00    +0.000 A 
ATOM     20  C   UNL     1       0.107  10.828  20.263  0.00  0.00    +0.000 A 
BRANCH  15  22
ATOM     21  C   UNL     1      -1.771  11.563  23.116  0.00  0.00    +0.000 C 
ATOM     22  O   UNL     1      -0.652  11.938  22.325  0.00  0.00    +0.000 OA
ENDBRANCH  15  22
ENDBRANCH   1  18
TORSDOF 4
ENDMDL
MODEL 6
REMARK VINA RESULT:      -6.6      2.231      2.535
REMARK  Name = 
REMARK  5 active torsions:
REMARK  status: ('A' for Active; 'I' for Inactive)
REMARK    1  A    between atoms: C_1  and  O_2
REMARK    2  A    between atoms: O_2  and  C_3
REMARK    3  A    between atoms: C_6  and  N_7
REMARK    4  A    between atoms: C_8  and  C_10
REMARK    5  A    between atoms: C_17  and  O_18
REMARK                            x       y       z     vdW  Elec       q    Type
REMARK                         _______ _______ _______ _____ _____    ______ ____
ROOT
ATOM      1  N   UNL     1       1.895   8.551  17.807  0.00  0.00    +0.000 N 
ATOM      2  C   UNL     1       2.281   7.585  18.721  0.00  0.00    +0.000 C 
ATOM      3  O   UNL     1       2.187   7.688  19.942  0.00  0.00    +0.000 OA
ATOM      4  H   UNL     1       1.983   8.304  16.825  0.00  0.00    +0.000 HD
ENDROOT
BRANCH   2   5
ATOM      5  C   UNL     1       2.872   6.313  18.198  0.00  0.00    +0.000 A 
ATOM      6  C   UNL     1       2.203   5.128  18.576  0.00  0.00    +0.000 A 
ATOM      7  C   UNL     1       2.688   3.880  18.202  0.00  0.00    +0.000 A 
ATOM      8  I   UNL     1       1.690   2.165  18.819  0.00  0.00    +0.000 I 
ATOM      9  C   UNL     1       3.842   3.777  17.433  0.00  0.00    +0.000 A 
ATOM     10  C   UNL     1       4.505   4.943  17.038  0.00  0.00    +0.000 A 
ATOM     11  I   UNL     1       6.245   4.729  15.890  0.00  0.00    +0.000 I 
ATOM     12  C   UNL     1       4.027   6.210  17.412  0.00  0.00    +0.000 A 
BRANCH  12  13
ATOM     13  O   UNL     1       4.689   7.347  17.016  0.00  0.00    +0.000 OA
ATOM     14  H   UNL     1       5.102   7.734  17.814  0.00  0.00    +0.000 HD
ENDBRANCH  12  13
ENDBRANCH   2   5
BRANCH   1  18
ATOM     15  C   UNL     1       0.473  12.434  18.745  0.00  0.00    +0.000 A 
ATOM     16  C   UNL     1      -0.416  11.367  18.684  0.00  0.00    +0.000 A 
ATOM     17  C   UNL     1       0.039  10.082  18.387  0.00  0.00    +0.000 A 
ATOM     18  C   UNL     1       1.386   9.837  18.121  0.00  0.00    +0.000 A 
ATOM     19  C   UNL     1       2.279  10.915  18.175  0.00  0.00    +0.000 A 
ATOM     20  C   UNL     1       1.823  12.210  18.483  0.00  0.00    +0.000 A 
BRANCH  15  22
ATOM     21  C   UNL     1       0.741  14.775  18.924  0.00  0.00    +0.000 C 
ATOM     22  O   UNL     1      -0.107  13.640  19.021  0.00  0.00    +0.000 OA
ENDBRANCH  15  22
ENDBRANCH   1  18
TORSDOF 4
ENDMDL
MODEL 7
REMARK VINA RESULT:      -6.6      3.589      7.881
REMARK  Name = 
REMARK  5 active torsions:
REMARK  status: ('A' for Active; 'I' for Inactive)
REMARK    1  A    between atoms: C_1  and  O_2
REMARK    2  A    between atoms: O_2  and  C_3
REMARK    3  A    between atoms: C_6  and  N_7
REMARK    4  A    between atoms: C_8  and  C_10
REMARK    5  A    between atoms: C_17  and  O_18
REMARK                            x       y       z     vdW  Elec       q    Type
REMARK                         _______ _______ _______ _____ _____    ______ ____
ROOT
ATOM      1  N   UNL     1       2.731   7.305  18.681  0.00  0.00    +0.000 N 
ATOM      2  C   UNL     1       2.169   8.461  18.165  0.00  0.00    +0.000 C 
ATOM      3  O   UNL     1       2.224   8.811  16.988  0.00  0.00    +0.000 OA
ATOM      4  H   UNL     1       2.559   7.120  19.665  0.00  0.00    +0.000 HD
ENDROOT
BRANCH   2   5
ATOM      5  C   UNL     1       1.444   9.374  19.103  0.00  0.00    +0.000 A 
ATOM      6  C   UNL     1       1.242  10.692  18.640  0.00  0.00    +0.000 A 
ATOM      7  C   UNL     1       0.632  11.650  19.442  0.00  0.00    +0.000 A 
ATOM      8  I   UNL     1       0.397  13.587  18.727  0.00  0.00    +0.000 I 
ATOM      9  C   UNL     1       0.197  11.320  20.721  0.00  0.00    +0.000 A 
ATOM     10  C   UNL     1       0.376  10.014  21.187  0.00  0.00    +0.000 A 
ATOM     11  I   UNL     1      -0.288   9.575  23.125  0.00  0.00    +0.000 I 
ATOM     12  C   UNL     1       0.993   9.038  20.387  0.00  0.00    +0.000 A 
BRANCH  12  13
ATOM     13  O   UNL     1       1.162   7.759  20.858  0.00  0.00    +0.000 OA
ATOM     14  H   UNL     1       0.625   7.677  21.672  0.00  0.00    +0.000 HD
ENDBRANCH  12  13
ENDBRANCH   2   5
BRANCH   1  18
ATOM     15  C   UNL     1       4.990   4.421  16.547  0.00  0.00    +0.000 A 
ATOM     16  C   UNL     1       5.476   5.716  16.686  0.00  0.00    +0.000 A 
ATOM     17  C   UNL     1       4.749   6.673  17.395  0.00  0.00    +0.000 A 
ATOM     18  C   UNL     1       3.511   6.366  17.959  0.00  0.00    +0.000 A 
ATOM     19  C   UNL     1       3.020   5.062  17.810  0.00  0.00    +0.000 A 
ATOM     20  C   UNL     1       3.755   4.094  17.104  0.00  0.00    +0.000 A 
BRANCH  15  22
ATOM     21  C   UNL     1       6.076   4.019  14.487  0.00  0.00    +0.000 C 
ATOM     22  O   UNL     1       5.789   3.592  15.810  0.00  0.00    +0.000 OA
ENDBRANCH  15  22
ENDBRANCH   1  18
TORSDOF 4
ENDMDL
MODEL 8
REMARK VINA RESULT:      -6.5      3.573      7.892
REMARK  Name = 
REMARK  5 active torsions:
REMARK  status: ('A' for Active; 'I' for Inactive)
REMARK    1  A    between atoms: C_1  and  O_2
REMARK    2  A    between atoms: O_2  and  C_3
REMARK    3  A    between atoms: C_6  and  N_7
REMARK    4  A    between atoms: C_8  and  C_10
REMARK    5  A    between atoms: C_17  and  O_18
REMARK                            x       y       z     vdW  Elec       q    Type
REMARK                         _______ _______ _______ _____ _____    ______ ____
ROOT
ATOM      1  N   UNL     1       2.602   7.186  18.596  0.00  0.00    +0.000 N 
ATOM      2  C   UNL     1       2.202   8.438  18.160  0.00  0.00    +0.000 C 
ATOM      3  O   UNL     1       2.461   8.920  17.060  0.00  0.00    +0.000 OA
ATOM      4  H   UNL     1       2.269   6.899  19.513  0.00  0.00    +0.000 HD
ENDROOT
BRANCH   2   5
ATOM      5  C   UNL     1       1.401   9.290  19.095  0.00  0.00    +0.000 A 
ATOM      6  C   UNL     1       0.995  10.541  18.584  0.00  0.00    +0.000 A 
ATOM      7  C   UNL     1       0.295  11.446  19.374  0.00  0.00    +0.000 A 
ATOM      8  I   UNL     1      -0.245  13.292  18.588  0.00  0.00    +0.000 I 
ATOM      9  C   UNL     1      -0.028  11.126  20.689  0.00  0.00    +0.000 A 
ATOM     10  C   UNL     1       0.354   9.883  21.202  0.00  0.00    +0.000 A 
ATOM     11  I   UNL     1      -0.149   9.458  23.191  0.00  0.00    +0.000 I 
ATOM     12  C   UNL     1       1.064   8.961  20.414  0.00  0.00    +0.000 A 
BRANCH  12  13
ATOM     13  O   UNL     1       1.433   7.744  20.933  0.00  0.00    +0.000 OA
ATOM     14  H   UNL     1       1.487   7.115  20.185  0.00  0.00    +0.000 HD
ENDBRANCH  12  13
ENDBRANCH   2   5
BRANCH   1  18
ATOM     15  C   UNL     1       5.113   4.552  16.420  0.00  0.00    +0.000 A 
ATOM     16  C   UNL     1       3.969   4.064  17.040  0.00  0.00    +0.000 A 
ATOM     17  C   UNL     1       3.127   4.921  17.750  0.00  0.00    +0.000 A 
ATOM     18  C   UNL     1       3.422   6.278  17.878  0.00  0.00    +0.000 A 
ATOM     19  C   UNL     1       4.580   6.766  17.259  0.00  0.00    +0.000 A 
ATOM     20  C   UNL     1       5.424   5.906  16.536  0.00  0.00    +0.000 A 
BRANCH  15  22
ATOM     21  C   UNL     1       6.337   3.954  14.489  0.00  0.00    +0.000 C 
ATOM     22  O   UNL     1       5.860   3.604  15.780  0.00  0.00    +0.000 OA
ENDBRANCH  15  22
ENDBRANCH   1  18
TORSDOF 4
ENDMDL
MODEL 9
REMARK VINA RESULT:      -6.5      2.339      2.869
REMARK  Name = 
REMARK  5 active torsions:
REMARK  status: ('A' for Active; 'I' for Inactive)
REMARK    1  A    between atoms: C_1  and  O_2
REMARK    2  A    between atoms: O_2  and  C_3
REMARK    3  A    between atoms: C_6  and  N_7
REMARK    4  A    between atoms: C_8  and  C_10
REMARK    5  A    between atoms: C_17  and  O_18
REMARK                            x       y       z     vdW  Elec       q    Type
REMARK                         _______ _______ _______ _____ _____    ______ ____
ROOT
ATOM      1  N   UNL     1       1.559   8.875  18.433  0.00  0.00    +0.000 N 
ATOM      2  C   UNL     1       1.850   8.067  19.519  0.00  0.00    +0.000 C 
ATOM      3  O   UNL     1       1.658   8.366  20.695  0.00  0.00    +0.000 OA
ATOM      4  H   UNL     1       1.723   8.473  17.514  0.00  0.00    +0.000 HD
ENDROOT
BRANCH   2   5
ATOM      5  C   UNL     1       2.459   6.724  19.258  0.00  0.00    +0.000 A 
ATOM      6  C   UNL     1       2.056   5.691  20.131  0.00  0.00    +0.000 A 
ATOM      7  C   UNL     1       2.594   4.413  20.027  0.00  0.00    +0.000 A 
ATOM      8  I   UNL     1       1.998   2.937  21.363  0.00  0.00    +0.000 I 
ATOM      9  C   UNL     1       3.538   4.127  19.047  0.00  0.00    +0.000 A 
ATOM     10  C   UNL     1       3.934   5.137  18.165  0.00  0.00    +0.000 A 
ATOM     11  I   UNL     1       5.367   4.653  16.715  0.00  0.00    +0.000 I 
ATOM     12  C   UNL     1       3.400   6.433  18.261  0.00  0.00    +0.000 A 
BRANCH  12  13
ATOM     13  O   UNL     1       3.799   7.415  17.388  0.00  0.00    +0.000 OA
ATOM     14  H   UNL     1       4.717   7.210  17.121  0.00  0.00    +0.000 HD
ENDBRANCH  12  13
ENDBRANCH   2   5
BRANCH   1  18
ATOM     15  C   UNL     1      -0.063  12.789  18.602  0.00  0.00    +0.000 A 
ATOM     16  C   UNL     1       1.315  12.609  18.618  0.00  0.00    +0.000 A 
ATOM     17  C   UNL     1       1.864  11.328  18.552  0.00  0.00    +0.000 A 
ATOM     18  C   UNL     1       1.049  10.197  18.493  0.00  0.00    +0.000 A 
ATOM     19  C   UNL     1      -0.339  10.381  18.485  0.00  0.00    +0.000 A 
ATOM     20  C   UNL     1      -0.894  11.672  18.543  0.00  0.00    +0.000 A 
BRANCH  15  22
ATOM     21  C   UNL     1       0.556  15.042  18.957  0.00  0.00    +0.000 C 
ATOM     22  O   UNL     1      -0.466  14.091  18.696  0.00  0.00    +0.000 OA
ENDBRANCH  15  22
ENDBRANCH   1  18
TORSDOF 4
ENDMDL
