MODEL 1
REMARK VINA RESULT:      -8.2      0.000      0.000
REMARK  Name = 
REMARK  5 active torsions:
REMARK  status: ('A' for Active; 'I' for Inactive)
REMARK    1  A    between atoms: C_1  and  C_2
REMARK    2  A    between atoms: C_5  and  N_6
REMARK    3  A    between atoms: C_11  and  C_12
REMARK    4  A    between atoms: C_18  and  S_19
REMARK    5  A    between atoms: S_19  and  C_20
REMARK                            x       y       z     vdW  Elec       q    Type
REMARK                         _______ _______ _______ _____ _____    ______ ____
ROOT
ATOM      1  C   UNL     1       2.118   9.758  17.920  0.00  0.00    +0.000 C 
ATOM      2  C   UNL     1       2.151   8.399  18.549  0.00  0.00    +0.000 A 
ATOM      3  C   UNL     1       1.724   8.178  19.849  0.00  0.00    +0.000 A 
ATOM      4  C   UNL     1       1.850   6.906  20.418  0.00  0.00    +0.000 A 
ATOM      5  C   UNL     1       2.437   5.809  19.742  0.00  0.00    +0.000 A 
ATOM      6  C   UNL     1       2.841   6.038  18.405  0.00  0.00    +0.000 A 
ATOM      7  C   UNL     1       2.648   7.314  17.824  0.00  0.00    +0.000 A 
ENDROOT
BRANCH   6   8
ATOM      8  C   UNL     1       3.258   4.962  17.453  0.00  0.00    +0.000 C 
ATOM      9  O   UNL     1       2.526   3.976  17.344  0.00  0.00    +0.000 OA
ATOM     10  N   UNL     1       4.391   5.128  16.628  0.00  0.00    +0.000 N 
ATOM     11  C   UNL     1       4.532   4.238  15.478  0.00  0.00    +0.000 C 
ATOM     12  C   UNL     1       5.936   3.653  15.394  0.00  0.00    +0.000 C 
ATOM     13  C   UNL     1       7.004   4.743  15.424  0.00  0.00    +0.000 C 
ATOM     14  C   UNL     1       6.827   5.736  16.576  0.00  0.00    +0.000 C 
ATOM     15  C   UNL     1       5.380   6.211  16.716  0.00  0.00    +0.000 C 
BRANCH  14  16
ATOM     16  S   UNL     1       7.416   5.161  18.174  0.00  0.00    +0.000 S 
ATOM     17  C   UNL     1       8.161   6.588  18.918  0.00  0.00    +0.000 C 
ATOM     18  O   UNL     1       6.243   4.861  18.980  0.00  0.00    +0.000 OA
ATOM     19  O   UNL     1       8.459   4.174  17.995  0.00  0.00    +0.000 OA
ENDBRANCH  14  16
ENDBRANCH   6   8
BRANCH   5  20
ATOM     20  N   UNL     1       2.554   4.641  20.485  0.00  0.00    +0.000 N 
ATOM     21  C   UNL     1       3.684   3.715  20.428  0.00  0.00    +0.000 C 
ATOM     22  C   UNL     1       3.042   2.333  20.362  0.00  0.00    +0.000 C 
ATOM     23  C   UNL     1       1.753   2.506  21.147  0.00  0.00    +0.000 C 
ATOM     24  C   UNL     1       1.310   3.926  20.803  0.00  0.00    +0.000 C 
ENDBRANCH   5  20
TORSDOF 3
ENDMDL
MODEL 2
REMARK VINA RESULT:      -7.8      2.253      5.858
REMARK  Name = 
REMARK  5 active torsions:
REMARK  status: ('A' for Active; 'I' for Inactive)
REMARK    1  A    between atoms: C_1  and  C_2
REMARK    2  A    between atoms: C_5  and  N_6
REMARK    3  A    between atoms: C_11  and  C_12
REMARK    4  A    between atoms: C_18  and  S_19
REMARK    5  A    between atoms: S_19  and  C_20
REMARK                            x       y       z     vdW  Elec       q    Type
REMARK                         _______ _______ _______ _____ _____    ______ ____
ROOT
ATOM      1  C   UNL     1       4.721   3.431  12.480  0.00  0.00    +0.000 C 
ATOM      2  C   UNL     1       5.440   4.069  13.628  0.00  0.00    +0.000 A 
ATOM      3  C   UNL     1       6.823   4.165  13.670  0.00  0.00    +0.000 A 
ATOM      4  C   UNL     1       7.452   4.697  14.800  0.00  0.00    +0.000 A 
ATOM      5  C   UNL     1       6.746   5.124  15.951  0.00  0.00    +0.000 A 
ATOM      6  C   UNL     1       5.334   5.051  15.885  0.00  0.00    +0.000 A 
ATOM      7  C   UNL     1       4.712   4.569  14.709  0.00  0.00    +0.000 A 
ENDROOT
BRANCH   6   8
ATOM      8  C   UNL     1       4.410   5.667  16.888  0.00  0.00    +0.000 C 
ATOM      9  O   UNL     1       4.576   6.855  17.169  0.00  0.00    +0.000 OA
ATOM     10  N   UNL     1       3.317   4.938  17.403  0.00  0.00    +0.000 N 
ATOM     11  C   UNL     1       2.254   5.686  18.070  0.00  0.00    +0.000 C 
ATOM     12  C   UNL     1       1.876   5.052  19.402  0.00  0.00    +0.000 C 
ATOM     13  C   UNL     1       1.540   3.571  19.247  0.00  0.00    +0.000 C 
ATOM     14  C   UNL     1       2.605   2.784  18.480  0.00  0.00    +0.000 C 
ATOM     15  C   UNL     1       3.058   3.505  17.209  0.00  0.00    +0.000 C 
BRANCH  14  16
ATOM     16  S   UNL     1       4.052   2.321  19.442  0.00  0.00    +0.000 S 
ATOM     17  C   UNL     1       3.469   2.232  21.114  0.00  0.00    +0.000 C 
ATOM     18  O   UNL     1       4.396   0.959  19.069  0.00  0.00    +0.000 OA
ATOM     19  O   UNL     1       5.043   3.374  19.387  0.00  0.00    +0.000 OA
ENDBRANCH  14  16
ENDBRANCH   6   8
BRANCH   5  20
ATOM     20  N   UNL     1       7.534   5.552  17.012  0.00  0.00    +0.000 N 
ATOM     21  C   UNL     1       7.753   4.811  18.253  0.00  0.00    +0.000 C 
ATOM     22  C   UNL     1       7.594   5.854  19.354  0.00  0.00    +0.000 C 
ATOM     23  C   UNL     1       8.077   7.136  18.696  0.00  0.00    +0.000 C 
ATOM     24  C   UNL     1       7.599   7.001  17.252  0.00  0.00    +0.000 C 
ENDBRANCH   5  20
TORSDOF 3
ENDMDL
MODEL 3
REMARK VINA RESULT:      -7.7      2.585      5.806
REMARK  Name = 
REMARK  5 active torsions:
REMARK  status: ('A' for Active; 'I' for Inactive)
REMARK    1  A    between atoms: C_1  and  C_2
REMARK    2  A    between atoms: C_5  and  N_6
REMARK    3  A    between atoms: C_11  and  C_12
REMARK    4  A    between atoms: C_18  and  S_19
REMARK    5  A    between atoms: S_19  and  C_20
REMARK                            x       y       z     vdW  Elec       q    Type
REMARK                         _______ _______ _______ _____ _____    ______ ____
ROOT
ATOM      1  C   UNL     1       5.595   3.324  12.714  0.00  0.00    +0.000 C 
ATOM      2  C   UNL     1       5.867   4.114  13.955  0.00  0.00    +0.000 A 
ATOM      3  C   UNL     1       7.126   4.618  14.248  0.00  0.00    +0.000 A 
ATOM      4  C   UNL     1       7.348   5.281  15.459  0.00  0.00    +0.000 A 
ATOM      5  C   UNL     1       6.348   5.443  16.449  0.00  0.00    +0.000 A 
ATOM      6  C   UNL     1       5.060   4.953  16.127  0.00  0.00    +0.000 A 
ATOM      7  C   UNL     1       4.838   4.341  14.871  0.00  0.00    +0.000 A 
ENDROOT
BRANCH   6   8
ATOM      8  C   UNL     1       3.827   5.233  16.926  0.00  0.00    +0.000 C 
ATOM      9  O   UNL     1       3.497   6.410  17.079  0.00  0.00    +0.000 OA
ATOM     10  N   UNL     1       3.012   4.178  17.389  0.00  0.00    +0.000 N 
ATOM     11  C   UNL     1       1.656   4.505  17.823  0.00  0.00    +0.000 C 
ATOM     12  C   UNL     1       1.331   3.865  19.167  0.00  0.00    +0.000 C 
ATOM     13  C   UNL     1       1.594   2.361  19.153  0.00  0.00    +0.000 C 
ATOM     14  C   UNL     1       2.981   1.992  18.624  0.00  0.00    +0.000 C 
ATOM     15  C   UNL     1       3.333   2.745  17.340  0.00  0.00    +0.000 C 
BRANCH  14  16
ATOM     16  S   UNL     1       4.323   2.182  19.806  0.00  0.00    +0.000 S 
ATOM     17  C   UNL     1       3.519   2.305  21.382  0.00  0.00    +0.000 C 
ATOM     18  O   UNL     1       5.053   0.925  19.831  0.00  0.00    +0.000 OA
ATOM     19  O   UNL     1       5.014   3.433  19.576  0.00  0.00    +0.000 OA
ENDBRANCH  14  16
ENDBRANCH   6   8
BRANCH   5  20
ATOM     20  N   UNL     1       6.764   6.056  17.624  0.00  0.00    +0.000 N 
ATOM     21  C   UNL     1       7.025   7.486  17.782  0.00  0.00    +0.000 C 
ATOM     22  C   UNL     1       8.341   7.551  18.550  0.00  0.00    +0.000 C 
ATOM     23  C   UNL     1       8.309   6.300  19.412  0.00  0.00    +0.000 C 
ATOM     24  C   UNL     1       7.622   5.268  18.520  0.00  0.00    +0.000 C 
ENDBRANCH   5  20
TORSDOF 3
ENDMDL
MODEL 4
REMARK VINA RESULT:      -7.5      0.902      1.078
REMARK  Name = 
REMARK  5 active torsions:
REMARK  status: ('A' for Active; 'I' for Inactive)
REMARK    1  A    between atoms: C_1  and  C_2
REMARK    2  A    between atoms: C_5  and  N_6
REMARK    3  A    between atoms: C_11  and  C_12
REMARK    4  A    between atoms: C_18  and  S_19
REMARK    5  A    between atoms: S_19  and  C_20
REMARK                            x       y       z     vdW  Elec       q    Type
REMARK                         _______ _______ _______ _____ _____    ______ ____
ROOT
ATOM      1  C   UNL     1       1.823  10.032  18.058  0.00  0.00    +0.000 C 
ATOM      2  C   UNL     1       1.847   8.676  18.692  0.00  0.00    +0.000 A 
ATOM      3  C   UNL     1       1.325   8.443  19.956  0.00  0.00    +0.000 A 
ATOM      4  C   UNL     1       1.444   7.176  20.537  0.00  0.00    +0.000 A 
ATOM      5  C   UNL     1       2.114   6.096  19.913  0.00  0.00    +0.000 A 
ATOM      6  C   UNL     1       2.615   6.336  18.611  0.00  0.00    +0.000 A 
ATOM      7  C   UNL     1       2.431   7.605  18.013  0.00  0.00    +0.000 A 
ENDROOT
BRANCH   6   8
ATOM      8  C   UNL     1       3.137   5.271  17.699  0.00  0.00    +0.000 C 
ATOM      9  O   UNL     1       2.498   4.221  17.617  0.00  0.00    +0.000 OA
ATOM     10  N   UNL     1       4.259   5.512  16.878  0.00  0.00    +0.000 N 
ATOM     11  C   UNL     1       4.491   4.601  15.759  0.00  0.00    +0.000 C 
ATOM     12  C   UNL     1       5.943   4.143  15.705  0.00  0.00    +0.000 C 
ATOM     13  C   UNL     1       6.909   5.326  15.707  0.00  0.00    +0.000 C 
ATOM     14  C   UNL     1       6.631   6.335  16.823  0.00  0.00    +0.000 C 
ATOM     15  C   UNL     1       5.146   6.682  16.937  0.00  0.00    +0.000 C 
BRANCH  14  16
ATOM     16  S   UNL     1       7.252   5.867  18.445  0.00  0.00    +0.000 S 
ATOM     17  C   UNL     1       8.164   4.373  18.163  0.00  0.00    +0.000 C 
ATOM     18  O   UNL     1       8.237   6.866  18.830  0.00  0.00    +0.000 OA
ATOM     19  O   UNL     1       6.150   5.540  19.324  0.00  0.00    +0.000 OA
ENDBRANCH  14  16
ENDBRANCH   6   8
BRANCH   5  20
ATOM     20  N   UNL     1       2.206   4.933  20.667  0.00  0.00    +0.000 N 
ATOM     21  C   UNL     1       3.429   4.159  20.877  0.00  0.00    +0.000 C 
ATOM     22  C   UNL     1       3.002   2.709  20.668  0.00  0.00    +0.000 C 
ATOM     23  C   UNL     1       1.556   2.697  21.133  0.00  0.00    +0.000 C 
ATOM     24  C   UNL     1       1.025   4.059  20.691  0.00  0.00    +0.000 C 
ENDBRANCH   5  20
TORSDOF 3
ENDMDL
MODEL 5
REMARK VINA RESULT:      -6.4     10.135     13.623
REMARK  Name = 
REMARK  5 active torsions:
REMARK  status: ('A' for Active; 'I' for Inactive)
REMARK    1  A    between atoms: C_1  and  C_2
REMARK    2  A    between atoms: C_5  and  N_6
REMARK    3  A    between atoms: C_11  and  C_12
REMARK    4  A    between atoms: C_18  and  S_19
REMARK    5  A    between atoms: S_19  and  C_20
REMARK                            x       y       z     vdW  Elec       q    Type
REMARK                         _______ _______ _______ _____ _____    ______ ____
ROOT
ATOM      1  C   UNL     1      -0.554  10.810  21.416  0.00  0.00    +0.000 C 
ATOM      2  C   UNL     1      -1.146  12.001  22.105  0.00  0.00    +0.000 A 
ATOM      3  C   UNL     1      -0.492  13.222  22.158  0.00  0.00    +0.000 A 
ATOM      4  C   UNL     1      -1.050  14.281  22.883  0.00  0.00    +0.000 A 
ATOM      5  C   UNL     1      -2.256  14.169  23.615  0.00  0.00    +0.000 A 
ATOM      6  C   UNL     1      -2.931  12.928  23.528  0.00  0.00    +0.000 A 
ATOM      7  C   UNL     1      -2.385  11.888  22.739  0.00  0.00    +0.000 A 
ENDROOT
BRANCH   6   8
ATOM      8  C   UNL     1      -4.321  12.687  24.026  0.00  0.00    +0.000 C 
ATOM      9  O   UNL     1      -4.454  12.050  25.072  0.00  0.00    +0.000 OA
ATOM     10  N   UNL     1      -5.431  13.268  23.376  0.00  0.00    +0.000 N 
ATOM     11  C   UNL     1      -6.698  13.314  24.103  0.00  0.00    +0.000 C 
ATOM     12  C   UNL     1      -7.854  12.829  23.239  0.00  0.00    +0.000 C 
ATOM     13  C   UNL     1      -7.916  13.574  21.908  0.00  0.00    +0.000 C 
ATOM     14  C   UNL     1      -6.577  13.608  21.168  0.00  0.00    +0.000 C 
ATOM     15  C   UNL     1      -5.413  13.976  22.089  0.00  0.00    +0.000 C 
BRANCH  14  16
ATOM     16  S   UNL     1      -6.165  12.106  20.270  0.00  0.00    +0.000 S 
ATOM     17  C   UNL     1      -6.981  12.279  18.705  0.00  0.00    +0.000 C 
ATOM     18  O   UNL     1      -4.740  12.157  19.981  0.00  0.00    +0.000 OA
ATOM     19  O   UNL     1      -6.742  10.955  20.932  0.00  0.00    +0.000 OA
ENDBRANCH  14  16
ENDBRANCH   6   8
BRANCH   5  20
ATOM     20  N   UNL     1      -2.622  15.296  24.341  0.00  0.00    +0.000 N 
ATOM     21  C   UNL     1      -3.212  16.509  23.775  0.00  0.00    +0.000 C 
ATOM     22  C   UNL     1      -2.449  17.649  24.441  0.00  0.00    +0.000 C 
ATOM     23  C   UNL     1      -2.097  17.088  25.808  0.00  0.00    +0.000 C 
ATOM     24  C   UNL     1      -1.818  15.613  25.529  0.00  0.00    +0.000 C 
ENDBRANCH   5  20
TORSDOF 3
ENDMDL
MODEL 6
REMARK VINA RESULT:      -6.4      7.232     10.032
REMARK  Name = 
REMARK  5 active torsions:
REMARK  status: ('A' for Active; 'I' for Inactive)
REMARK    1  A    between atoms: C_1  and  C_2
REMARK    2  A    between atoms: C_5  and  N_6
REMARK    3  A    between atoms: C_11  and  C_12
REMARK    4  A    between atoms: C_18  and  S_19
REMARK    5  A    between atoms: S_19  and  C_20
REMARK                            x       y       z     vdW  Elec       q    Type
REMARK                         _______ _______ _______ _____ _____    ______ ____
ROOT
ATOM      1  C   UNL     1       1.151   8.581  21.396  0.00  0.00    +0.000 C 
ATOM      2  C   UNL     1       0.273   9.747  21.729  0.00  0.00    +0.000 A 
ATOM      3  C   UNL     1      -0.428   9.824  22.924  0.00  0.00    +0.000 A 
ATOM      4  C   UNL     1      -1.298  10.896  23.154  0.00  0.00    +0.000 A 
ATOM      5  C   UNL     1      -1.541  11.915  22.201  0.00  0.00    +0.000 A 
ATOM      6  C   UNL     1      -0.797  11.843  21.000  0.00  0.00    +0.000 A 
ATOM      7  C   UNL     1       0.125  10.787  20.810  0.00  0.00    +0.000 A 
ENDROOT
BRANCH   6   8
ATOM      8  C   UNL     1      -0.732  12.937  19.981  0.00  0.00    +0.000 C 
ATOM      9  O   UNL     1      -1.314  12.759  18.909  0.00  0.00    +0.000 OA
ATOM     10  N   UNL     1      -0.121  14.171  20.287  0.00  0.00    +0.000 N 
ATOM     11  C   UNL     1      -0.411  15.308  19.416  0.00  0.00    +0.000 C 
ATOM     12  C   UNL     1       0.862  16.043  19.016  0.00  0.00    +0.000 C 
ATOM     13  C   UNL     1       1.694  16.436  20.234  0.00  0.00    +0.000 C 
ATOM     14  C   UNL     1       1.940  15.277  21.202  0.00  0.00    +0.000 C 
ATOM     15  C   UNL     1       0.667  14.478  21.488  0.00  0.00    +0.000 C 
BRANCH  14  16
ATOM     16  S   UNL     1       3.249  14.144  20.715  0.00  0.00    +0.000 S 
ATOM     17  C   UNL     1       4.512  15.184  20.032  0.00  0.00    +0.000 C 
ATOM     18  O   UNL     1       3.810  13.589  21.936  0.00  0.00    +0.000 OA
ATOM     19  O   UNL     1       2.786  13.275  19.654  0.00  0.00    +0.000 OA
ENDBRANCH  14  16
ENDBRANCH   6   8
BRANCH   5  20
ATOM     20  N   UNL     1      -2.495  12.858  22.565  0.00  0.00    +0.000 N 
ATOM     21  C   UNL     1      -2.475  13.646  23.797  0.00  0.00    +0.000 C 
ATOM     22  C   UNL     1      -3.907  13.576  24.317  0.00  0.00    +0.000 C 
ATOM     23  C   UNL     1      -4.738  13.470  23.050  0.00  0.00    +0.000 C 
ATOM     24  C   UNL     1      -3.876  12.612  22.127  0.00  0.00    +0.000 C 
ENDBRANCH   5  20
TORSDOF 3
ENDMDL
MODEL 7
REMARK VINA RESULT:      -6.4      2.867      6.011
REMARK  Name = 
REMARK  5 active torsions:
REMARK  status: ('A' for Active; 'I' for Inactive)
REMARK    1  A    between atoms: C_1  and  C_2
REMARK    2  A    between atoms: C_5  and  N_6
REMARK    3  A    between atoms: C_11  and  C_12
REMARK    4  A    between atoms: C_18  and  S_19
REMARK    5  A    between atoms: S_19  and  C_20
REMARK                            x       y       z     vdW  Elec       q    Type
REMARK                         _______ _______ _______ _____ _____    ______ ____
ROOT
ATOM      1  C   UNL     1       7.934   5.467  20.578  0.00  0.00    +0.000 C 
ATOM      2  C   UNL     1       7.410   5.219  19.198  0.00  0.00    +0.000 A 
ATOM      3  C   UNL     1       8.238   4.837  18.152  0.00  0.00    +0.000 A 
ATOM      4  C   UNL     1       7.713   4.696  16.863  0.00  0.00    +0.000 A 
ATOM      5  C   UNL     1       6.359   4.961  16.544  0.00  0.00    +0.000 A 
ATOM      6  C   UNL     1       5.517   5.319  17.623  0.00  0.00    +0.000 A 
ATOM      7  C   UNL     1       6.051   5.396  18.932  0.00  0.00    +0.000 A 
ENDROOT
BRANCH   6   8
ATOM      8  C   UNL     1       4.026   5.406  17.538  0.00  0.00    +0.000 C 
ATOM      9  O   UNL     1       3.531   6.493  17.235  0.00  0.00    +0.000 OA
ATOM     10  N   UNL     1       3.227   4.252  17.688  0.00  0.00    +0.000 N 
ATOM     11  C   UNL     1       1.841   4.321  17.230  0.00  0.00    +0.000 C 
ATOM     12  C   UNL     1       0.881   3.767  18.275  0.00  0.00    +0.000 C 
ATOM     13  C   UNL     1       1.281   2.364  18.723  0.00  0.00    +0.000 C 
ATOM     14  C   UNL     1       2.752   2.252  19.130  0.00  0.00    +0.000 C 
ATOM     15  C   UNL     1       3.686   2.927  18.124  0.00  0.00    +0.000 C 
BRANCH  14  16
ATOM     16  S   UNL     1       3.133   2.851  20.781  0.00  0.00    +0.000 S 
ATOM     17  C   UNL     1       1.693   2.466  21.742  0.00  0.00    +0.000 C 
ATOM     18  O   UNL     1       4.197   2.010  21.307  0.00  0.00    +0.000 OA
ATOM     19  O   UNL     1       3.269   4.292  20.769  0.00  0.00    +0.000 OA
ENDBRANCH  14  16
ENDBRANCH   6   8
BRANCH   5  20
ATOM     20  N   UNL     1       6.028   4.846  15.199  0.00  0.00    +0.000 N 
ATOM     21  C   UNL     1       5.049   3.910  14.649  0.00  0.00    +0.000 C 
ATOM     22  C   UNL     1       5.735   3.317  13.423  0.00  0.00    +0.000 C 
ATOM     23  C   UNL     1       6.625   4.448  12.935  0.00  0.00    +0.000 C 
ATOM     24  C   UNL     1       7.095   5.116  14.225  0.00  0.00    +0.000 C 
ENDBRANCH   5  20
TORSDOF 3
ENDMDL
MODEL 8
REMARK VINA RESULT:      -6.2      9.423     12.971
REMARK  Name = 
REMARK  5 active torsions:
REMARK  status: ('A' for Active; 'I' for Inactive)
REMARK    1  A    between atoms: C_1  and  C_2
REMARK    2  A    between atoms: C_5  and  N_6
REMARK    3  A    between atoms: C_11  and  C_12
REMARK    4  A    between atoms: C_18  and  S_19
REMARK    5  A    between atoms: S_19  and  C_20
REMARK                            x       y       z     vdW  Elec       q    Type
REMARK                         _______ _______ _______ _____ _____    ______ ____
ROOT
ATOM      1  C   UNL     1      -0.631   9.485  22.784  0.00  0.00    +0.000 C 
ATOM      2  C   UNL     1      -0.576  10.877  22.237  0.00  0.00    +0.000 A 
ATOM      3  C   UNL     1      -0.051  11.158  20.984  0.00  0.00    +0.000 A 
ATOM      4  C   UNL     1       0.052  12.484  20.552  0.00  0.00    +0.000 A 
ATOM      5  C   UNL     1      -0.324  13.591  21.351  0.00  0.00    +0.000 A 
ATOM      6  C   UNL     1      -0.886  13.292  22.614  0.00  0.00    +0.000 A 
ATOM      7  C   UNL     1      -1.042  11.943  23.010  0.00  0.00    +0.000 A 
ENDROOT
BRANCH   6   8
ATOM      8  C   UNL     1      -1.557  14.296  23.498  0.00  0.00    +0.000 C 
ATOM      9  O   UNL     1      -0.956  14.664  24.509  0.00  0.00    +0.000 OA
ATOM     10  N   UNL     1      -2.784  14.883  23.121  0.00  0.00    +0.000 N 
ATOM     11  C   UNL     1      -3.197  16.102  23.813  0.00  0.00    +0.000 C 
ATOM     12  C   UNL     1      -4.648  16.022  24.268  0.00  0.00    +0.000 C 
ATOM     13  C   UNL     1      -5.581  15.659  23.115  0.00  0.00    +0.000 C 
ATOM     14  C   UNL     1      -5.123  14.431  22.326  0.00  0.00    +0.000 C 
ATOM     15  C   UNL     1      -3.631  14.478  21.991  0.00  0.00    +0.000 C 
BRANCH  14  16
ATOM     16  S   UNL     1      -5.504  12.848  23.089  0.00  0.00    +0.000 S 
ATOM     17  C   UNL     1      -6.981  13.146  24.025  0.00  0.00    +0.000 C 
ATOM     18  O   UNL     1      -5.889  11.939  22.021  0.00  0.00    +0.000 OA
ATOM     19  O   UNL     1      -4.465  12.485  24.029  0.00  0.00    +0.000 OA
ENDBRANCH  14  16
ENDBRANCH   6   8
BRANCH   5  20
ATOM     20  N   UNL     1      -0.080  14.841  20.794  0.00  0.00    +0.000 N 
ATOM     21  C   UNL     1      -0.990  15.559  19.904  0.00  0.00    +0.000 C 
ATOM     22  C   UNL     1      -0.097  16.077  18.781  0.00  0.00    +0.000 C 
ATOM     23  C   UNL     1       1.237  16.309  19.471  0.00  0.00    +0.000 C 
ATOM     24  C   UNL     1       1.319  15.171  20.486  0.00  0.00    +0.000 C 
ENDBRANCH   5  20
TORSDOF 3
ENDMDL
MODEL 9
REMARK VINA RESULT:      -6.1      6.374      8.925
REMARK  Name = 
REMARK  5 active torsions:
REMARK  status: ('A' for Active; 'I' for Inactive)
REMARK    1  A    between atoms: C_1  and  C_2
REMARK    2  A    between atoms: C_5  and  N_6
REMARK    3  A    between atoms: C_11  and  C_12
REMARK    4  A    between atoms: C_18  and  S_19
REMARK    5  A    between atoms: S_19  and  C_20
REMARK                            x       y       z     vdW  Elec       q    Type
REMARK                         _______ _______ _______ _____ _____    ______ ____
ROOT
ATOM      1  C   UNL     1      -3.691  12.041  18.428  0.00  0.00    +0.000 C 
ATOM      2  C   UNL     1      -2.335  11.412  18.511  0.00  0.00    +0.000 A 
ATOM      3  C   UNL     1      -1.955  10.365  17.685  0.00  0.00    +0.000 A 
ATOM      4  C   UNL     1      -0.706   9.758  17.857  0.00  0.00    +0.000 A 
ATOM      5  C   UNL     1       0.205  10.134  18.872  0.00  0.00    +0.000 A 
ATOM      6  C   UNL     1      -0.178  11.225  19.689  0.00  0.00    +0.000 A 
ATOM      7  C   UNL     1      -1.418  11.868  19.461  0.00  0.00    +0.000 A 
ENDROOT
BRANCH   6   8
ATOM      8  C   UNL     1       0.733  11.921  20.650  0.00  0.00    +0.000 C 
ATOM      9  O   UNL     1       0.725  11.544  21.824  0.00  0.00    +0.000 OA
ATOM     10  N   UNL     1       1.648  12.895  20.199  0.00  0.00    +0.000 N 
ATOM     11  C   UNL     1       2.747  13.261  21.090  0.00  0.00    +0.000 C 
ATOM     12  C   UNL     1       2.898  14.773  21.199  0.00  0.00    +0.000 C 
ATOM     13  C   UNL     1       3.015  15.429  19.826  0.00  0.00    +0.000 C 
ATOM     14  C   UNL     1       1.918  14.997  18.851  0.00  0.00    +0.000 C 
ATOM     15  C   UNL     1       1.701  13.482  18.854  0.00  0.00    +0.000 C 
BRANCH  14  16
ATOM     16  S   UNL     1       0.334  15.819  19.072  0.00  0.00    +0.000 S 
ATOM     17  C   UNL     1       0.410  17.233  18.005  0.00  0.00    +0.000 C 
ATOM     18  O   UNL     1      -0.683  14.948  18.504  0.00  0.00    +0.000 OA
ATOM     19  O   UNL     1       0.213  16.308  20.429  0.00  0.00    +0.000 OA
ENDBRANCH  14  16
ENDBRANCH   6   8
BRANCH   5  20
ATOM     20  N   UNL     1       1.365   9.373  18.947  0.00  0.00    +0.000 N 
ATOM     21  C   UNL     1       2.208   9.007  17.810  0.00  0.00    +0.000 C 
ATOM     22  C   UNL     1       2.506   7.525  18.018  0.00  0.00    +0.000 C 
ATOM     23  C   UNL     1       2.509   7.375  19.529  0.00  0.00    +0.000 C 
ATOM     24  C   UNL     1       1.415   8.336  19.988  0.00  0.00    +0.000 C 
ENDBRANCH   5  20
TORSDOF 3
ENDMDL
