MODEL 1
REMARK VINA RESULT:      -7.5      0.000      0.000
REMARK  Name = 
REMARK  5 active torsions:
REMARK  status: ('A' for Active; 'I' for Inactive)
REMARK    1  A    between atoms: C_1  and  C_2
REMARK    2  A    between atoms: C_2  and  N_3
REMARK    3  A    between atoms: N_6  and  C_7
REMARK    4  A    between atoms: C_9  and  C_10
REMARK    5  A    between atoms: C_11  and  C_12
REMARK                            x       y       z     vdW  Elec       q    Type
REMARK                         _______ _______ _______ _____ _____    ______ ____
ROOT
ATOM      1  C   UNL     1       3.626   6.806  17.955  0.00  0.00    +0.000 A 
ATOM      2  C   UNL     1       3.154   8.061  17.752  0.00  0.00    +0.000 A 
ATOM      3  C   UNL     1       2.161   8.660  18.629  0.00  0.00    +0.000 A 
ATOM      4  C   UNL     1       1.727  10.065  18.306  0.00  0.00    +0.000 C 
ATOM      5  C   UNL     1       1.667   7.956  19.672  0.00  0.00    +0.000 A 
ATOM      6  C   UNL     1       2.108   6.622  19.908  0.00  0.00    +0.000 A 
ATOM      7  N   UNL     1       1.705   5.761  20.821  0.00  0.00    +0.000 NA
ATOM      8  C   UNL     1       2.474   4.653  20.641  0.00  0.00    +0.000 A 
ATOM      9  C   UNL     1       2.448   3.450  21.368  0.00  0.00    +0.000 A 
ATOM     10  C   UNL     1       3.336   2.428  21.028  0.00  0.00    +0.000 A 
ATOM     11  C   UNL     1       4.270   2.619  20.016  0.00  0.00    +0.000 A 
ATOM     12  C   UNL     1       4.338   3.830  19.315  0.00  0.00    +0.000 A 
ATOM     13  C   UNL     1       3.390   4.826  19.603  0.00  0.00    +0.000 A 
ATOM     14  N   UNL     1       3.098   6.086  19.075  0.00  0.00    +0.000 N 
ENDROOT
BRANCH   1  18
ATOM     15  N   UNL     1       6.622   4.197  16.386  0.00  0.00    +0.000 NA
ATOM     16  C   UNL     1       6.853   5.204  17.446  0.00  0.00    +0.000 C 
ATOM     17  C   UNL     1       6.042   6.505  17.277  0.00  0.00    +0.000 C 
ATOM     18  N   UNL     1       4.592   6.254  17.099  0.00  0.00    +0.000 N 
ATOM     19  C   UNL     1       4.261   5.140  16.176  0.00  0.00    +0.000 C 
ATOM     20  C   UNL     1       5.166   3.904  16.387  0.00  0.00    +0.000 C 
BRANCH  15  22
ATOM     21  C   UNL     1       6.363   3.903  13.890  0.00  0.00    +0.000 C 
ATOM     22  C   UNL     1       7.047   4.631  15.040  0.00  0.00    +0.000 C 
ENDBRANCH  15  22
ENDBRANCH   1  18
BRANCH   5  23
ATOM     23  C   UNL     1       0.630   8.570  20.597  0.00  0.00    +0.000 C 
ATOM     24  N   UNL     1      -0.231   9.079  21.366  0.00  0.00    +0.000 NA
ENDBRANCH   5  23
TORSDOF 3
ENDMDL
MODEL 2
REMARK VINA RESULT:      -7.4      1.782      5.701
REMARK  Name = 
REMARK  5 active torsions:
REMARK  status: ('A' for Active; 'I' for Inactive)
REMARK    1  A    between atoms: C_1  and  C_2
REMARK    2  A    between atoms: C_2  and  N_3
REMARK    3  A    between atoms: N_6  and  C_7
REMARK    4  A    between atoms: C_9  and  C_10
REMARK    5  A    between atoms: C_11  and  C_12
REMARK                            x       y       z     vdW  Elec       q    Type
REMARK                         _______ _______ _______ _____ _____    ______ ____
ROOT
ATOM      1  C   UNL     1       3.566   6.886  18.549  0.00  0.00    +0.000 A 
ATOM      2  C   UNL     1       4.621   7.458  17.917  0.00  0.00    +0.000 A 
ATOM      3  C   UNL     1       5.865   6.739  17.693  0.00  0.00    +0.000 A 
ATOM      4  C   UNL     1       6.957   7.479  16.966  0.00  0.00    +0.000 C 
ATOM      5  C   UNL     1       6.001   5.469  18.136  0.00  0.00    +0.000 A 
ATOM      6  C   UNL     1       4.933   4.836  18.834  0.00  0.00    +0.000 A 
ATOM      7  N   UNL     1       4.895   3.644  19.393  0.00  0.00    +0.000 NA
ATOM      8  C   UNL     1       3.633   3.512  19.885  0.00  0.00    +0.000 A 
ATOM      9  C   UNL     1       3.076   2.415  20.566  0.00  0.00    +0.000 A 
ATOM     10  C   UNL     1       1.745   2.476  20.983  0.00  0.00    +0.000 A 
ATOM     11  C   UNL     1       0.966   3.587  20.682  0.00  0.00    +0.000 A 
ATOM     12  C   UNL     1       1.495   4.667  19.963  0.00  0.00    +0.000 A 
ATOM     13  C   UNL     1       2.857   4.639  19.616  0.00  0.00    +0.000 A 
ATOM     14  N   UNL     1       3.730   5.536  18.996  0.00  0.00    +0.000 N 
ENDROOT
BRANCH   1  18
ATOM     15  N   UNL     1       0.851  10.069  19.411  0.00  0.00    +0.000 NA
ATOM     16  C   UNL     1       1.597   9.298  20.431  0.00  0.00    +0.000 C 
ATOM     17  C   UNL     1       1.786   7.806  20.090  0.00  0.00    +0.000 C 
ATOM     18  N   UNL     1       2.372   7.599  18.744  0.00  0.00    +0.000 N 
ATOM     19  C   UNL     1       1.801   8.457  17.677  0.00  0.00    +0.000 C 
ATOM     20  C   UNL     1       1.597   9.920  18.135  0.00  0.00    +0.000 C 
BRANCH  15  22
ATOM     21  C   UNL     1      -1.303  10.360  18.124  0.00  0.00    +0.000 C 
ATOM     22  C   UNL     1      -0.548   9.633  19.230  0.00  0.00    +0.000 C 
ENDBRANCH  15  22
ENDBRANCH   1  18
BRANCH   5  23
ATOM     23  C   UNL     1       7.295   4.706  17.908  0.00  0.00    +0.000 C 
ATOM     24  N   UNL     1       8.370   4.073  17.720  0.00  0.00    +0.000 NA
ENDBRANCH   5  23
TORSDOF 3
ENDMDL
MODEL 3
REMARK VINA RESULT:      -7.0      0.750      1.211
REMARK  Name = 
REMARK  5 active torsions:
REMARK  status: ('A' for Active; 'I' for Inactive)
REMARK    1  A    between atoms: C_1  and  C_2
REMARK    2  A    between atoms: C_2  and  N_3
REMARK    3  A    between atoms: N_6  and  C_7
REMARK    4  A    between atoms: C_9  and  C_10
REMARK    5  A    between atoms: C_11  and  C_12
REMARK                            x       y       z     vdW  Elec       q    Type
REMARK                         _______ _______ _______ _____ _____    ______ ____
ROOT
ATOM      1  C   UNL     1       3.630   6.605  18.134  0.00  0.00    +0.000 A 
ATOM      2  C   UNL     1       3.277   7.880  17.832  0.00  0.00    +0.000 A 
ATOM      3  C   UNL     1       2.291   8.609  18.612  0.00  0.00    +0.000 A 
ATOM      4  C   UNL     1       1.996  10.023  18.186  0.00  0.00    +0.000 C 
ATOM      5  C   UNL     1       1.681   8.012  19.661  0.00  0.00    +0.000 A 
ATOM      6  C   UNL     1       1.994   6.664  19.997  0.00  0.00    +0.000 A 
ATOM      7  N   UNL     1       1.469   5.895  20.930  0.00  0.00    +0.000 NA
ATOM      8  C   UNL     1       2.151   4.719  20.859  0.00  0.00    +0.000 A 
ATOM      9  C   UNL     1       1.982   3.568  21.648  0.00  0.00    +0.000 A 
ATOM     10  C   UNL     1       2.798   2.459  21.421  0.00  0.00    +0.000 A 
ATOM     11  C   UNL     1       3.801   2.512  20.459  0.00  0.00    +0.000 A 
ATOM     12  C   UNL     1       4.011   3.669  19.698  0.00  0.00    +0.000 A 
ATOM     13  C   UNL     1       3.135   4.755  19.872  0.00  0.00    +0.000 A 
ATOM     14  N   UNL     1       2.981   6.000  19.257  0.00  0.00    +0.000 N 
ENDROOT
BRANCH   1  18
ATOM     15  N   UNL     1       6.954   5.852  15.559  0.00  0.00    +0.000 NA
ATOM     16  C   UNL     1       5.619   6.299  15.102  0.00  0.00    +0.000 C 
ATOM     17  C   UNL     1       4.441   5.718  15.910  0.00  0.00    +0.000 C 
ATOM     18  N   UNL     1       4.593   5.926  17.370  0.00  0.00    +0.000 N 
ATOM     19  C   UNL     1       5.954   5.664  17.899  0.00  0.00    +0.000 C 
ATOM     20  C   UNL     1       7.066   6.237  16.989  0.00  0.00    +0.000 C 
BRANCH  15  22
ATOM     21  C   UNL     1       6.469   3.759  14.229  0.00  0.00    +0.000 C 
ATOM     22  C   UNL     1       7.187   4.401  15.409  0.00  0.00    +0.000 C 
ENDBRANCH  15  22
ENDBRANCH   1  18
BRANCH   5  23
ATOM     23  C   UNL     1       0.649   8.763  20.485  0.00  0.00    +0.000 C 
ATOM     24  N   UNL     1      -0.208   9.386  21.169  0.00  0.00    +0.000 NA
ENDBRANCH   5  23
TORSDOF 3
ENDMDL
MODEL 4
REMARK VINA RESULT:      -6.6      1.284      4.254
REMARK  Name = 
REMARK  5 active torsions:
REMARK  status: ('A' for Active; 'I' for Inactive)
REMARK    1  A    between atoms: C_1  and  C_2
REMARK    2  A    between atoms: C_2  and  N_3
REMARK    3  A    between atoms: N_6  and  C_7
REMARK    4  A    between atoms: C_9  and  C_10
REMARK    5  A    between atoms: C_11  and  C_12
REMARK                            x       y       z     vdW  Elec       q    Type
REMARK                         _______ _______ _______ _____ _____    ______ ____
ROOT
ATOM      1  C   UNL     1       4.373   4.407  18.187  0.00  0.00    +0.000 A 
ATOM      2  C   UNL     1       4.485   3.147  18.675  0.00  0.00    +0.000 A 
ATOM      3  C   UNL     1       3.671   2.677  19.784  0.00  0.00    +0.000 A 
ATOM      4  C   UNL     1       3.878   1.253  20.225  0.00  0.00    +0.000 C 
ATOM      5  C   UNL     1       2.783   3.510  20.372  0.00  0.00    +0.000 A 
ATOM      6  C   UNL     1       2.652   4.853  19.916  0.00  0.00    +0.000 A 
ATOM      7  N   UNL     1       1.901   5.825  20.393  0.00  0.00    +0.000 NA
ATOM      8  C   UNL     1       2.113   6.888  19.570  0.00  0.00    +0.000 A 
ATOM      9  C   UNL     1       1.540   8.169  19.639  0.00  0.00    +0.000 A 
ATOM     10  C   UNL     1       1.886   9.125  18.682  0.00  0.00    +0.000 A 
ATOM     11  C   UNL     1       2.749   8.795  17.643  0.00  0.00    +0.000 A 
ATOM     12  C   UNL     1       3.291   7.508  17.535  0.00  0.00    +0.000 A 
ATOM     13  C   UNL     1       3.006   6.573  18.545  0.00  0.00    +0.000 A 
ATOM     14  N   UNL     1       3.416   5.266  18.816  0.00  0.00    +0.000 N 
ENDROOT
BRANCH   1  18
ATOM     15  N   UNL     1       7.412   4.492  15.186  0.00  0.00    +0.000 NA
ATOM     16  C   UNL     1       7.633   4.795  16.618  0.00  0.00    +0.000 C 
ATOM     17  C   UNL     1       6.461   5.525  17.303  0.00  0.00    +0.000 C 
ATOM     18  N   UNL     1       5.165   4.833  17.108  0.00  0.00    +0.000 N 
ATOM     19  C   UNL     1       4.925   4.337  15.730  0.00  0.00    +0.000 C 
ATOM     20  C   UNL     1       6.176   3.672  15.110  0.00  0.00    +0.000 C 
BRANCH  15  22
ATOM     21  C   UNL     1       7.907   5.560  12.951  0.00  0.00    +0.000 C 
ATOM     22  C   UNL     1       7.276   5.688  14.332  0.00  0.00    +0.000 C 
ENDBRANCH  15  22
ENDBRANCH   1  18
BRANCH   5  23
ATOM     23  C   UNL     1       1.925   3.033  21.532  0.00  0.00    +0.000 C 
ATOM     24  N   UNL     1       1.213   2.638  22.495  0.00  0.00    +0.000 NA
ENDBRANCH   5  23
TORSDOF 3
ENDMDL
MODEL 5
REMARK VINA RESULT:      -6.3      7.367     10.440
REMARK  Name = 
REMARK  5 active torsions:
REMARK  status: ('A' for Active; 'I' for Inactive)
REMARK    1  A    between atoms: C_1  and  C_2
REMARK    2  A    between atoms: C_2  and  N_3
REMARK    3  A    between atoms: N_6  and  C_7
REMARK    4  A    between atoms: C_9  and  C_10
REMARK    5  A    between atoms: C_11  and  C_12
REMARK                            x       y       z     vdW  Elec       q    Type
REMARK                         _______ _______ _______ _____ _____    ______ ____
ROOT
ATOM      1  C   UNL     1      -2.839  12.603  21.353  0.00  0.00    +0.000 A 
ATOM      2  C   UNL     1      -2.806  12.845  22.687  0.00  0.00    +0.000 A 
ATOM      3  C   UNL     1      -4.021  12.984  23.473  0.00  0.00    +0.000 A 
ATOM      4  C   UNL     1      -3.852  13.237  24.948  0.00  0.00    +0.000 C 
ATOM      5  C   UNL     1      -5.229  12.892  22.873  0.00  0.00    +0.000 A 
ATOM      6  C   UNL     1      -5.315  12.671  21.469  0.00  0.00    +0.000 A 
ATOM      7  N   UNL     1      -6.383  12.616  20.699  0.00  0.00    +0.000 NA
ATOM      8  C   UNL     1      -5.918  12.339  19.450  0.00  0.00    +0.000 A 
ATOM      9  C   UNL     1      -6.657  12.168  18.266  0.00  0.00    +0.000 A 
ATOM     10  C   UNL     1      -5.984  11.876  17.078  0.00  0.00    +0.000 A 
ATOM     11  C   UNL     1      -4.603  11.706  17.078  0.00  0.00    +0.000 A 
ATOM     12  C   UNL     1      -3.861  11.828  18.260  0.00  0.00    +0.000 A 
ATOM     13  C   UNL     1      -4.530  12.203  19.437  0.00  0.00    +0.000 A 
ATOM     14  N   UNL     1      -4.130  12.495  20.743  0.00  0.00    +0.000 N 
ENDROOT
BRANCH   1  18
ATOM     15  N   UNL     1       1.316  12.384  20.386  0.00  0.00    +0.000 NA
ATOM     16  C   UNL     1       0.574  13.640  20.635  0.00  0.00    +0.000 C 
ATOM     17  C   UNL     1      -0.882  13.632  20.127  0.00  0.00    +0.000 C 
ATOM     18  N   UNL     1      -1.651  12.463  20.619  0.00  0.00    +0.000 N 
ATOM     19  C   UNL     1      -0.921  11.172  20.567  0.00  0.00    +0.000 C 
ATOM     20  C   UNL     1       0.545  11.297  21.042  0.00  0.00    +0.000 C 
BRANCH  15  22
ATOM     21  C   UNL     1       2.554  12.928  18.252  0.00  0.00    +0.000 C 
ATOM     22  C   UNL     1       1.509  12.072  18.956  0.00  0.00    +0.000 C 
ENDBRANCH  15  22
ENDBRANCH   1  18
BRANCH   5  23
ATOM     23  C   UNL     1      -6.507  13.035  23.683  0.00  0.00    +0.000 C 
ATOM     24  N   UNL     1      -7.569  13.153  24.353  0.00  0.00    +0.000 NA
ENDBRANCH   5  23
TORSDOF 3
ENDMDL
MODEL 6
REMARK VINA RESULT:      -6.3      1.708      5.895
REMARK  Name = 
REMARK  5 active torsions:
REMARK  status: ('A' for Active; 'I' for Inactive)
REMARK    1  A    between atoms: C_1  and  C_2
REMARK    2  A    between atoms: C_2  and  N_3
REMARK    3  A    between atoms: N_6  and  C_7
REMARK    4  A    between atoms: C_9  and  C_10
REMARK    5  A    between atoms: C_11  and  C_12
REMARK                            x       y       z     vdW  Elec       q    Type
REMARK                         _______ _______ _______ _____ _____    ______ ____
ROOT
ATOM      1  C   UNL     1       3.449   6.743  18.443  0.00  0.00    +0.000 A 
ATOM      2  C   UNL     1       4.528   7.442  18.011  0.00  0.00    +0.000 A 
ATOM      3  C   UNL     1       5.709   6.781  17.479  0.00  0.00    +0.000 A 
ATOM      4  C   UNL     1       6.836   7.668  17.019  0.00  0.00    +0.000 C 
ATOM      5  C   UNL     1       5.760   5.431  17.421  0.00  0.00    +0.000 A 
ATOM      6  C   UNL     1       4.665   4.653  17.893  0.00  0.00    +0.000 A 
ATOM      7  N   UNL     1       4.550   3.343  17.980  0.00  0.00    +0.000 NA
ATOM      8  C   UNL     1       3.294   3.117  18.452  0.00  0.00    +0.000 A 
ATOM      9  C   UNL     1       2.673   1.884  18.714  0.00  0.00    +0.000 A 
ATOM     10  C   UNL     1       1.361   1.868  19.190  0.00  0.00    +0.000 A 
ATOM     11  C   UNL     1       0.660   3.058  19.354  0.00  0.00    +0.000 A 
ATOM     12  C   UNL     1       1.252   4.291  19.052  0.00  0.00    +0.000 A 
ATOM     13  C   UNL     1       2.599   4.310  18.652  0.00  0.00    +0.000 A 
ATOM     14  N   UNL     1       3.522   5.316  18.358  0.00  0.00    +0.000 N 
ENDROOT
BRANCH   1  18
ATOM     15  N   UNL     1       0.956   9.764  20.148  0.00  0.00    +0.000 NA
ATOM     16  C   UNL     1       1.893   8.913  20.915  0.00  0.00    +0.000 C 
ATOM     17  C   UNL     1       2.013   7.467  20.394  0.00  0.00    +0.000 C 
ATOM     18  N   UNL     1       2.317   7.407  18.944  0.00  0.00    +0.000 N 
ATOM     19  C   UNL     1       1.542   8.353  18.105  0.00  0.00    +0.000 C 
ATOM     20  C   UNL     1       1.430   9.758  18.741  0.00  0.00    +0.000 C 
BRANCH  15  22
ATOM     21  C   UNL     1      -0.869   8.704  21.538  0.00  0.00    +0.000 C 
ATOM     22  C   UNL     1      -0.450   9.316  20.207  0.00  0.00    +0.000 C 
ENDBRANCH  15  22
ENDBRANCH   1  18
BRANCH   5  23
ATOM     23  C   UNL     1       6.987   4.728  16.866  0.00  0.00    +0.000 C 
ATOM     24  N   UNL     1       8.007   4.144  16.407  0.00  0.00    +0.000 NA
ENDBRANCH   5  23
TORSDOF 3
ENDMDL
MODEL 7
REMARK VINA RESULT:      -6.3      7.398     11.725
REMARK  Name = 
REMARK  5 active torsions:
REMARK  status: ('A' for Active; 'I' for Inactive)
REMARK    1  A    between atoms: C_1  and  C_2
REMARK    2  A    between atoms: C_2  and  N_3
REMARK    3  A    between atoms: N_6  and  C_7
REMARK    4  A    between atoms: C_9  and  C_10
REMARK    5  A    between atoms: C_11  and  C_12
REMARK                            x       y       z     vdW  Elec       q    Type
REMARK                         _______ _______ _______ _____ _____    ______ ____
ROOT
ATOM      1  C   UNL     1      -2.845  12.287  19.979  0.00  0.00    +0.000 A 
ATOM      2  C   UNL     1      -1.762  11.604  19.531  0.00  0.00    +0.000 A 
ATOM      3  C   UNL     1      -1.771  10.899  18.260  0.00  0.00    +0.000 A 
ATOM      4  C   UNL     1      -0.502  10.190  17.866  0.00  0.00    +0.000 C 
ATOM      5  C   UNL     1      -2.886  10.895  17.495  0.00  0.00    +0.000 A 
ATOM      6  C   UNL     1      -4.059  11.571  17.939  0.00  0.00    +0.000 A 
ATOM      7  N   UNL     1      -5.249  11.629  17.376  0.00  0.00    +0.000 NA
ATOM      8  C   UNL     1      -5.994  12.436  18.181  0.00  0.00    +0.000 A 
ATOM      9  C   UNL     1      -7.334  12.827  18.018  0.00  0.00    +0.000 A 
ATOM     10  C   UNL     1      -7.916  13.678  18.959  0.00  0.00    +0.000 A 
ATOM     11  C   UNL     1      -7.161  14.173  20.017  0.00  0.00    +0.000 A 
ATOM     12  C   UNL     1      -5.812  13.828  20.165  0.00  0.00    +0.000 A 
ATOM     13  C   UNL     1      -5.251  12.907  19.263  0.00  0.00    +0.000 A 
ATOM     14  N   UNL     1      -4.009  12.280  19.146  0.00  0.00    +0.000 N 
ENDROOT
BRANCH   1  18
ATOM     15  N   UNL     1      -1.400  13.949  23.639  0.00  0.00    +0.000 NA
ATOM     16  C   UNL     1      -1.721  12.519  23.432  0.00  0.00    +0.000 C 
ATOM     17  C   UNL     1      -2.927  12.265  22.506  0.00  0.00    +0.000 C 
ATOM     18  N   UNL     1      -2.807  12.968  21.206  0.00  0.00    +0.000 N 
ATOM     19  C   UNL     1      -2.324  14.368  21.299  0.00  0.00    +0.000 C 
ATOM     20  C   UNL     1      -1.152  14.529  22.295  0.00  0.00    +0.000 C 
BRANCH  15  22
ATOM     21  C   UNL     1      -2.023  15.391  25.618  0.00  0.00    +0.000 C 
ATOM     22  C   UNL     1      -2.462  14.711  24.328  0.00  0.00    +0.000 C 
ENDBRANCH  15  22
ENDBRANCH   1  18
BRANCH   5  23
ATOM     23  C   UNL     1      -2.909  10.162  16.165  0.00  0.00    +0.000 C 
ATOM     24  N   UNL     1      -2.927   9.553  15.060  0.00  0.00    +0.000 NA
ENDBRANCH   5  23
TORSDOF 3
ENDMDL
MODEL 8
REMARK VINA RESULT:      -6.2      8.224      9.821
REMARK  Name = 
REMARK  5 active torsions:
REMARK  status: ('A' for Active; 'I' for Inactive)
REMARK    1  A    between atoms: C_1  and  C_2
REMARK    2  A    between atoms: C_2  and  N_3
REMARK    3  A    between atoms: N_6  and  C_7
REMARK    4  A    between atoms: C_9  and  C_10
REMARK    5  A    between atoms: C_11  and  C_12
REMARK                            x       y       z     vdW  Elec       q    Type
REMARK                         _______ _______ _______ _____ _____    ______ ____
ROOT
ATOM      1  C   UNL     1      -1.788  13.143  20.456  0.00  0.00    +0.000 A 
ATOM      2  C   UNL     1      -2.015  13.568  21.723  0.00  0.00    +0.000 A 
ATOM      3  C   UNL     1      -3.310  13.410  22.365  0.00  0.00    +0.000 A 
ATOM      4  C   UNL     1      -3.433  13.910  23.780  0.00  0.00    +0.000 C 
ATOM      5  C   UNL     1      -4.335  12.842  21.691  0.00  0.00    +0.000 A 
ATOM      6  C   UNL     1      -4.154  12.408  20.347  0.00  0.00    +0.000 A 
ATOM      7  N   UNL     1      -5.035  11.897  19.511  0.00  0.00    +0.000 NA
ATOM      8  C   UNL     1      -4.339  11.615  18.375  0.00  0.00    +0.000 A 
ATOM      9  C   UNL     1      -4.817  11.045  17.183  0.00  0.00    +0.000 A 
ATOM     10  C   UNL     1      -3.930  10.825  16.128  0.00  0.00    +0.000 A 
ATOM     11  C   UNL     1      -2.579  11.121  16.275  0.00  0.00    +0.000 A 
ATOM     12  C   UNL     1      -2.082  11.646  17.475  0.00  0.00    +0.000 A 
ATOM     13  C   UNL     1      -2.990  11.942  18.505  0.00  0.00    +0.000 A 
ATOM     14  N   UNL     1      -2.884  12.531  19.768  0.00  0.00    +0.000 N 
ENDROOT
BRANCH   1  18
ATOM     15  N   UNL     1       2.327  14.150  19.906  0.00  0.00    +0.000 NA
ATOM     16  C   UNL     1       1.211  15.121  19.878  0.00  0.00    +0.000 C 
ATOM     17  C   UNL     1      -0.090  14.579  19.253  0.00  0.00    +0.000 C 
ATOM     18  N   UNL     1      -0.525  13.299  19.861  0.00  0.00    +0.000 N 
ATOM     19  C   UNL     1       0.563  12.316  20.088  0.00  0.00    +0.000 C 
ATOM     20  C   UNL     1       1.843  12.967  20.663  0.00  0.00    +0.000 C 
BRANCH  15  22
ATOM     21  C   UNL     1       3.392  14.855  17.726  0.00  0.00    +0.000 C 
ATOM     22  C   UNL     1       2.798  13.734  18.570  0.00  0.00    +0.000 C 
ENDBRANCH  15  22
ENDBRANCH   1  18
BRANCH   5  23
ATOM     23  C   UNL     1      -5.693  12.670  22.351  0.00  0.00    +0.000 C 
ATOM     24  N   UNL     1      -6.820  12.528  22.899  0.00  0.00    +0.000 NA
ENDBRANCH   5  23
TORSDOF 3
ENDMDL
MODEL 9
REMARK VINA RESULT:      -6.1      5.857      9.696
REMARK  Name = 
REMARK  5 active torsions:
REMARK  status: ('A' for Active; 'I' for Inactive)
REMARK    1  A    between atoms: C_1  and  C_2
REMARK    2  A    between atoms: C_2  and  N_3
REMARK    3  A    between atoms: N_6  and  C_7
REMARK    4  A    between atoms: C_9  and  C_10
REMARK    5  A    between atoms: C_11  and  C_12
REMARK                            x       y       z     vdW  Elec       q    Type
REMARK                         _______ _______ _______ _____ _____    ______ ____
ROOT
ATOM      1  C   UNL     1      -1.984  12.463  20.735  0.00  0.00    +0.000 A 
ATOM      2  C   UNL     1      -1.491  13.012  21.873  0.00  0.00    +0.000 A 
ATOM      3  C   UNL     1      -2.312  13.835  22.747  0.00  0.00    +0.000 A 
ATOM      4  C   UNL     1      -1.653  14.375  23.989  0.00  0.00    +0.000 C 
ATOM      5  C   UNL     1      -3.600  14.088  22.424  0.00  0.00    +0.000 A 
ATOM      6  C   UNL     1      -4.153  13.561  21.223  0.00  0.00    +0.000 A 
ATOM      7  N   UNL     1      -5.352  13.744  20.707  0.00  0.00    +0.000 NA
ATOM      8  C   UNL     1      -5.384  12.985  19.578  0.00  0.00    +0.000 A 
ATOM      9  C   UNL     1      -6.444  12.824  18.669  0.00  0.00    +0.000 A 
ATOM     10  C   UNL     1      -6.277  11.982  17.568  0.00  0.00    +0.000 A 
ATOM     11  C   UNL     1      -5.093  11.272  17.402  0.00  0.00    +0.000 A 
ATOM     12  C   UNL     1      -4.046  11.388  18.326  0.00  0.00    +0.000 A 
ATOM     13  C   UNL     1      -4.186  12.297  19.388  0.00  0.00    +0.000 A 
ATOM     14  N   UNL     1      -3.354  12.734  20.423  0.00  0.00    +0.000 N 
ENDROOT
BRANCH   1  18
ATOM     15  N   UNL     1       1.465  10.582  19.057  0.00  0.00    +0.000 NA
ATOM     16  C   UNL     1       1.066  11.985  18.808  0.00  0.00    +0.000 C 
ATOM     17  C   UNL     1      -0.458  12.210  18.735  0.00  0.00    +0.000 C 
ATOM     18  N   UNL     1      -1.173  11.664  19.914  0.00  0.00    +0.000 N 
ATOM     19  C   UNL     1      -0.720  10.319  20.348  0.00  0.00    +0.000 C 
ATOM     20  C   UNL     1       0.819  10.175  20.332  0.00  0.00    +0.000 C 
BRANCH  15  22
ATOM     21  C   UNL     1       2.029   8.465  17.798  0.00  0.00    +0.000 C 
ATOM     22  C   UNL     1       1.084   9.646  17.980  0.00  0.00    +0.000 C 
ENDBRANCH  15  22
ENDBRANCH   1  18
BRANCH   5  23
ATOM     23  C   UNL     1      -4.469  14.946  23.328  0.00  0.00    +0.000 C 
ATOM     24  N   UNL     1      -5.191  15.659  24.078  0.00  0.00    +0.000 NA
ENDBRANCH   5  23
TORSDOF 3
ENDMDL
