MODEL 1
REMARK VINA RESULT:      -9.1      0.000      0.000
REMARK  Name = 
REMARK  6 active torsions:
REMARK  status: ('A' for Active; 'I' for Inactive)
REMARK    1  A    between atoms: C_1  and  N_2
REMARK    2  A    between atoms: N_6  and  C_7
REMARK    3  A    between atoms: C_7  and  C_8
REMARK    4  A    between atoms: C_11  and  N_12
REMARK    5  A    between atoms: C_13  and  C_15
REMARK    6  A    between atoms: C_27  and  C_28
REMARK                            x       y       z     vdW  Elec       q    Type
REMARK                         _______ _______ _______ _____ _____    ______ ____
ROOT
ATOM      1  C   UNL     1       1.746   9.437  18.712  0.00  0.00    +0.000 A 
ATOM      2  C   UNL     1       1.029   8.881  19.777  0.00  0.00    +0.000 A 
ATOM      3  C   UNL     1       0.030   9.616  20.422  0.00  0.00    +0.000 A 
ATOM      4  C   UNL     1      -0.283  10.913  20.012  0.00  0.00    +0.000 A 
ATOM      5  C   UNL     1       0.419  11.464  18.934  0.00  0.00    +0.000 A 
ATOM      6  C   UNL     1       1.425  10.734  18.291  0.00  0.00    +0.000 A 
ENDROOT
BRANCH   4   7
ATOM      7  N   UNL     1      -1.290  11.696  20.617  0.00  0.00    +0.000 N 
ATOM      8  C   UNL     1      -1.299  12.161  21.917  0.00  0.00    +0.000 C 
ATOM      9  O   UNL     1      -0.407  11.990  22.744  0.00  0.00    +0.000 OA
ATOM     10  H   UNL     1      -2.037  12.002  20.004  0.00  0.00    +0.000 HD
BRANCH   8  11
ATOM     11  C   UNL     1      -2.498  12.928  22.373  0.00  0.00    +0.000 A 
ATOM     12  C   UNL     1      -3.265  12.308  23.382  0.00  0.00    +0.000 A 
ATOM     13  C   UNL     1      -4.381  12.939  23.934  0.00  0.00    +0.000 A 
ATOM     14  C   UNL     1      -4.744  14.203  23.483  0.00  0.00    +0.000 A 
ATOM     15 CL   UNL     1      -6.103  14.998  24.175  0.00  0.00    +0.000 Cl
ATOM     16  C   UNL     1      -4.006  14.832  22.483  0.00  0.00    +0.000 A 
ATOM     17  C   UNL     1      -2.884  14.200  21.925  0.00  0.00    +0.000 A 
ATOM     18 CL   UNL     1      -2.027  15.096  20.720  0.00  0.00    +0.000 Cl
ENDBRANCH   8  11
ENDBRANCH   4   7
BRANCH   1  19
ATOM     19  C   UNL     1       2.789   8.621  17.988  0.00  0.00    +0.000 C 
BRANCH  19  25
ATOM     20  C   UNL     1       7.293   7.620  17.269  0.00  0.00    +0.000 C 
ATOM     21  N   UNL     1       6.871   6.355  16.717  0.00  0.00    +0.000 N 
ATOM     22  C   UNL     1       5.630   5.907  17.149  0.00  0.00    +0.000 A 
ATOM     23  N   UNL     1       4.668   6.783  17.451  0.00  0.00    +0.000 NA
ATOM     24  C   UNL     1       3.478   6.304  17.846  0.00  0.00    +0.000 A 
ATOM     25  N   UNL     1       2.442   7.215  18.134  0.00  0.00    +0.000 N 
ATOM     26  C   UNL     1       3.223   4.928  17.935  0.00  0.00    +0.000 A 
ATOM     27  C   UNL     1       1.981   4.355  18.312  0.00  0.00    +0.000 A 
ATOM     28  C   UNL     1       1.808   2.970  18.367  0.00  0.00    +0.000 A 
ATOM     29  C   UNL     1       0.497   2.372  18.782  0.00  0.00    +0.000 C 
ATOM     30  C   UNL     1       2.889   2.155  18.039  0.00  0.00    +0.000 A 
ATOM     31  C   UNL     1       4.111   2.725  17.662  0.00  0.00    +0.000 A 
ATOM     32  C   UNL     1       4.298   4.101  17.604  0.00  0.00    +0.000 A 
ATOM     33  N   UNL     1       5.490   4.580  17.229  0.00  0.00    +0.000 NA
ATOM     34  H   UNL     1       7.514   5.581  16.838  0.00  0.00    +0.000 HD
ATOM     35  H   UNL     1       2.066   7.020  19.058  0.00  0.00    +0.000 HD
ENDBRANCH  19  25
ENDBRANCH   1  19
TORSDOF 4
ENDMDL
MODEL 2
REMARK VINA RESULT:      -9.0      4.263     10.899
REMARK  Name = 
REMARK  6 active torsions:
REMARK  status: ('A' for Active; 'I' for Inactive)
REMARK    1  A    between atoms: C_1  and  N_2
REMARK    2  A    between atoms: N_6  and  C_7
REMARK    3  A    between atoms: C_7  and  C_8
REMARK    4  A    between atoms: C_11  and  N_12
REMARK    5  A    between atoms: C_13  and  C_15
REMARK    6  A    between atoms: C_27  and  C_28
REMARK                            x       y       z     vdW  Elec       q    Type
REMARK                         _______ _______ _______ _____ _____    ______ ____
ROOT
ATOM      1  C   UNL     1       0.033  12.086  18.990  0.00  0.00    +0.000 A 
ATOM      2  C   UNL     1       1.423  12.153  18.851  0.00  0.00    +0.000 A 
ATOM      3  C   UNL     1       2.148  11.043  18.409  0.00  0.00    +0.000 A 
ATOM      4  C   UNL     1       1.504   9.848  18.086  0.00  0.00    +0.000 A 
ATOM      5  C   UNL     1       0.110   9.784  18.206  0.00  0.00    +0.000 A 
ATOM      6  C   UNL     1      -0.619  10.892  18.655  0.00  0.00    +0.000 A 
ENDROOT
BRANCH   4   7
ATOM      7  N   UNL     1       2.182   8.700  17.624  0.00  0.00    +0.000 N 
ATOM      8  C   UNL     1       2.591   7.624  18.386  0.00  0.00    +0.000 C 
ATOM      9  O   UNL     1       2.393   7.485  19.590  0.00  0.00    +0.000 OA
ATOM     10  H   UNL     1       2.310   8.640  16.620  0.00  0.00    +0.000 HD
BRANCH   8  11
ATOM     11  C   UNL     1       3.350   6.534  17.701  0.00  0.00    +0.000 A 
ATOM     12  C   UNL     1       4.473   6.955  16.958  0.00  0.00    +0.000 A 
ATOM     13  C   UNL     1       5.299   6.035  16.311  0.00  0.00    +0.000 A 
ATOM     14  C   UNL     1       5.013   4.678  16.401  0.00  0.00    +0.000 A 
ATOM     15 CL   UNL     1       6.039   3.536  15.627  0.00  0.00    +0.000 Cl
ATOM     16  C   UNL     1       3.906   4.239  17.123  0.00  0.00    +0.000 A 
ATOM     17  C   UNL     1       3.072   5.162  17.774  0.00  0.00    +0.000 A 
ATOM     18 CL   UNL     1       1.753   4.494  18.671  0.00  0.00    +0.000 Cl
ENDBRANCH   8  11
ENDBRANCH   4   7
BRANCH   1  19
ATOM     19  C   UNL     1      -0.750  13.302  19.420  0.00  0.00    +0.000 C 
BRANCH  19  25
ATOM     20  C   UNL     1      -1.267  14.626  23.868  0.00  0.00    +0.000 C 
ATOM     21  N   UNL     1      -2.378  13.710  23.958  0.00  0.00    +0.000 N 
ATOM     22  C   UNL     1      -2.995  13.408  22.751  0.00  0.00    +0.000 A 
ATOM     23  N   UNL     1      -2.280  13.379  21.623  0.00  0.00    +0.000 NA
ATOM     24  C   UNL     1      -2.913  13.064  20.482  0.00  0.00    +0.000 A 
ATOM     25  N   UNL     1      -2.167  12.995  19.288  0.00  0.00    +0.000 N 
ATOM     26  C   UNL     1      -4.281  12.757  20.451  0.00  0.00    +0.000 A 
ATOM     27  C   UNL     1      -5.004  12.384  19.288  0.00  0.00    +0.000 A 
ATOM     28  C   UNL     1      -6.367  12.085  19.347  0.00  0.00    +0.000 A 
ATOM     29  C   UNL     1      -7.128  11.706  18.111  0.00  0.00    +0.000 C 
ATOM     30  C   UNL     1      -7.009  12.158  20.581  0.00  0.00    +0.000 A 
ATOM     31  C   UNL     1      -6.290  12.522  21.727  0.00  0.00    +0.000 A 
ATOM     32  C   UNL     1      -4.934  12.824  21.684  0.00  0.00    +0.000 A 
ATOM     33  N   UNL     1      -4.305  13.157  22.817  0.00  0.00    +0.000 NA
ATOM     34  H   UNL     1      -3.118  13.971  24.600  0.00  0.00    +0.000 HD
ATOM     35  H   UNL     1      -2.607  13.574  18.578  0.00  0.00    +0.000 HD
ENDBRANCH  19  25
ENDBRANCH   1  19
TORSDOF 4
ENDMDL
MODEL 3
REMARK VINA RESULT:      -8.9      2.930      5.260
REMARK  Name = 
REMARK  6 active torsions:
REMARK  status: ('A' for Active; 'I' for Inactive)
REMARK    1  A    between atoms: C_1  and  N_2
REMARK    2  A    between atoms: N_6  and  C_7
REMARK    3  A    between atoms: C_7  and  C_8
REMARK    4  A    between atoms: C_11  and  N_12
REMARK    5  A    between atoms: C_13  and  C_15
REMARK    6  A    between atoms: C_27  and  C_28
REMARK                            x       y       z     vdW  Elec       q    Type
REMARK                         _______ _______ _______ _____ _____    ______ ____
ROOT
ATOM      1  C   UNL     1       3.627   4.505  18.371  0.00  0.00    +0.000 A 
ATOM      2  C   UNL     1       4.115   5.332  19.388  0.00  0.00    +0.000 A 
ATOM      3  C   UNL     1       3.480   6.539  19.690  0.00  0.00    +0.000 A 
ATOM      4  C   UNL     1       2.340   6.943  18.993  0.00  0.00    +0.000 A 
ATOM      5  C   UNL     1       1.837   6.109  17.987  0.00  0.00    +0.000 A 
ATOM      6  C   UNL     1       2.476   4.902  17.677  0.00  0.00    +0.000 A 
ENDROOT
BRANCH   4   7
ATOM      7  N   UNL     1       1.651   8.145  19.263  0.00  0.00    +0.000 N 
ATOM      8  C   UNL     1       1.592   9.259  18.449  0.00  0.00    +0.000 C 
ATOM      9  O   UNL     1       2.108   9.362  17.340  0.00  0.00    +0.000 OA
ATOM     10  H   UNL     1       1.087   8.149  20.105  0.00  0.00    +0.000 HD
BRANCH   8  11
ATOM     11  C   UNL     1       0.849  10.453  18.956  0.00  0.00    +0.000 A 
ATOM     12  C   UNL     1      -0.333  10.169  19.673  0.00  0.00    +0.000 A 
ATOM     13  C   UNL     1      -1.095  11.189  20.245  0.00  0.00    +0.000 A 
ATOM     14  C   UNL     1      -0.681  12.509  20.109  0.00  0.00    +0.000 A 
ATOM     15 CL   UNL     1      -1.601  13.770  20.831  0.00  0.00    +0.000 Cl
ATOM     16  C   UNL     1       0.478  12.814  19.400  0.00  0.00    +0.000 A 
ATOM     17  C   UNL     1       1.246  11.791  18.823  0.00  0.00    +0.000 A 
ATOM     18 CL   UNL     1       2.684  12.290  18.001  0.00  0.00    +0.000 Cl
ENDBRANCH   8  11
ENDBRANCH   4   7
BRANCH   1  19
ATOM     19  C   UNL     1       4.287   3.179  18.083  0.00  0.00    +0.000 C 
BRANCH  19  25
ATOM     20  C   UNL     1       7.904   5.974  19.040  0.00  0.00    +0.000 C 
ATOM     21  N   UNL     1       7.792   6.493  17.698  0.00  0.00    +0.000 N 
ATOM     22  C   UNL     1       7.184   5.642  16.784  0.00  0.00    +0.000 A 
ATOM     23  N   UNL     1       6.228   4.800  17.186  0.00  0.00    +0.000 NA
ATOM     24  C   UNL     1       5.654   4.010  16.265  0.00  0.00    +0.000 A 
ATOM     25  N   UNL     1       4.620   3.141  16.666  0.00  0.00    +0.000 N 
ATOM     26  C   UNL     1       6.021   4.057  14.912  0.00  0.00    +0.000 A 
ATOM     27  C   UNL     1       5.434   3.276  13.883  0.00  0.00    +0.000 A 
ATOM     28  C   UNL     1       5.854   3.391  12.556  0.00  0.00    +0.000 A 
ATOM     29  C   UNL     1       5.239   2.551  11.477  0.00  0.00    +0.000 C 
ATOM     30  C   UNL     1       6.868   4.299  12.259  0.00  0.00    +0.000 A 
ATOM     31  C   UNL     1       7.440   5.071  13.277  0.00  0.00    +0.000 A 
ATOM     32  C   UNL     1       7.035   4.966  14.602  0.00  0.00    +0.000 A 
ATOM     33  N   UNL     1       7.619   5.739  15.524  0.00  0.00    +0.000 NA
ATOM     34  H   UNL     1       8.656   6.804  17.269  0.00  0.00    +0.000 HD
ATOM     35  H   UNL     1       4.833   2.195  16.361  0.00  0.00    +0.000 HD
ENDBRANCH  19  25
ENDBRANCH   1  19
TORSDOF 4
ENDMDL
MODEL 4
REMARK VINA RESULT:      -8.9      3.058      5.284
REMARK  Name = 
REMARK  6 active torsions:
REMARK  status: ('A' for Active; 'I' for Inactive)
REMARK    1  A    between atoms: C_1  and  N_2
REMARK    2  A    between atoms: N_6  and  C_7
REMARK    3  A    between atoms: C_7  and  C_8
REMARK    4  A    between atoms: C_11  and  N_12
REMARK    5  A    between atoms: C_13  and  C_15
REMARK    6  A    between atoms: C_27  and  C_28
REMARK                            x       y       z     vdW  Elec       q    Type
REMARK                         _______ _______ _______ _____ _____    ______ ____
ROOT
ATOM      1  C   UNL     1       3.483   4.483  18.528  0.00  0.00    +0.000 A 
ATOM      2  C   UNL     1       2.422   4.832  17.685  0.00  0.00    +0.000 A 
ATOM      3  C   UNL     1       1.714   6.019  17.887  0.00  0.00    +0.000 A 
ATOM      4  C   UNL     1       2.054   6.889  18.926  0.00  0.00    +0.000 A 
ATOM      5  C   UNL     1       3.127   6.552  19.759  0.00  0.00    +0.000 A 
ATOM      6  C   UNL     1       3.835   5.359  19.563  0.00  0.00    +0.000 A 
ENDROOT
BRANCH   4   7
ATOM      7  N   UNL     1       1.382   8.106  19.170  0.00  0.00    +0.000 N 
ATOM      8  C   UNL     1       1.461   9.255  18.407  0.00  0.00    +0.000 C 
ATOM      9  O   UNL     1       2.108   9.382  17.371  0.00  0.00    +0.000 OA
ATOM     10  H   UNL     1       0.724   8.098  19.941  0.00  0.00    +0.000 HD
BRANCH   8  11
ATOM     11  C   UNL     1       0.709  10.456  18.881  0.00  0.00    +0.000 A 
ATOM     12  C   UNL     1       1.406  11.290  19.780  0.00  0.00    +0.000 A 
ATOM     13  C   UNL     1       0.839  12.472  20.260  0.00  0.00    +0.000 A 
ATOM     14  C   UNL     1      -0.435  12.837  19.843  0.00  0.00    +0.000 A 
ATOM     15 CL   UNL     1      -1.132  14.303  20.410  0.00  0.00    +0.000 Cl
ATOM     16  C   UNL     1      -1.146  12.026  18.961  0.00  0.00    +0.000 A 
ATOM     17  C   UNL     1      -0.579  10.836  18.477  0.00  0.00    +0.000 A 
ATOM     18 CL   UNL     1      -1.542   9.935  17.359  0.00  0.00    +0.000 Cl
ENDBRANCH   8  11
ENDBRANCH   4   7
BRANCH   1  19
ATOM     19  C   UNL     1       4.276   3.225  18.274  0.00  0.00    +0.000 C 
BRANCH  19  25
ATOM     20  C   UNL     1       7.863   6.045  19.269  0.00  0.00    +0.000 C 
ATOM     21  N   UNL     1       7.761   6.563  17.926  0.00  0.00    +0.000 N 
ATOM     22  C   UNL     1       7.169   5.709  17.006  0.00  0.00    +0.000 A 
ATOM     23  N   UNL     1       6.215   4.860  17.398  0.00  0.00    +0.000 NA
ATOM     24  C   UNL     1       5.656   4.066  16.471  0.00  0.00    +0.000 A 
ATOM     25  N   UNL     1       4.623   3.189  16.861  0.00  0.00    +0.000 N 
ATOM     26  C   UNL     1       6.036   4.116  15.121  0.00  0.00    +0.000 A 
ATOM     27  C   UNL     1       5.465   3.331  14.086  0.00  0.00    +0.000 A 
ATOM     28  C   UNL     1       5.897   3.451  12.764  0.00  0.00    +0.000 A 
ATOM     29  C   UNL     1       5.300   2.606  11.678  0.00  0.00    +0.000 C 
ATOM     30  C   UNL     1       6.908   4.365  12.477  0.00  0.00    +0.000 A 
ATOM     31  C   UNL     1       7.465   5.141  13.501  0.00  0.00    +0.000 A 
ATOM     32  C   UNL     1       7.046   5.033  14.822  0.00  0.00    +0.000 A 
ATOM     33  N   UNL     1       7.615   5.810  15.751  0.00  0.00    +0.000 NA
ATOM     34  H   UNL     1       8.627   6.881  17.506  0.00  0.00    +0.000 HD
ATOM     35  H   UNL     1       4.847   2.245  16.557  0.00  0.00    +0.000 HD
ENDBRANCH  19  25
ENDBRANCH   1  19
TORSDOF 4
ENDMDL
MODEL 5
REMARK VINA RESULT:      -8.8      1.048      1.121
REMARK  Name = 
REMARK  6 active torsions:
REMARK  status: ('A' for Active; 'I' for Inactive)
REMARK    1  A    between atoms: C_1  and  N_2
REMARK    2  A    between atoms: N_6  and  C_7
REMARK    3  A    between atoms: C_7  and  C_8
REMARK    4  A    between atoms: C_11  and  N_12
REMARK    5  A    between atoms: C_13  and  C_15
REMARK    6  A    between atoms: C_27  and  C_28
REMARK                            x       y       z     vdW  Elec       q    Type
REMARK                         _______ _______ _______ _____ _____    ______ ____
ROOT
ATOM      1  C   UNL     1       1.519   9.257  18.755  0.00  0.00    +0.000 A 
ATOM      2  C   UNL     1       1.373   9.077  20.134  0.00  0.00    +0.000 A 
ATOM      3  C   UNL     1       0.365   9.744  20.836  0.00  0.00    +0.000 A 
ATOM      4  C   UNL     1      -0.523  10.596  20.177  0.00  0.00    +0.000 A 
ATOM      5  C   UNL     1      -0.391  10.763  18.794  0.00  0.00    +0.000 A 
ATOM      6  C   UNL     1       0.622  10.102  18.089  0.00  0.00    +0.000 A 
ENDROOT
BRANCH   4   7
ATOM      7  N   UNL     1      -1.566  11.286  20.831  0.00  0.00    +0.000 N 
ATOM      8  C   UNL     1      -1.712  12.656  20.926  0.00  0.00    +0.000 C 
ATOM      9  O   UNL     1      -0.967  13.491  20.421  0.00  0.00    +0.000 OA
ATOM     10  H   UNL     1      -2.313  10.707  21.199  0.00  0.00    +0.000 HD
BRANCH   8  11
ATOM     11  C   UNL     1      -2.866  13.179  21.719  0.00  0.00    +0.000 A 
ATOM     12  C   UNL     1      -4.140  12.945  21.159  0.00  0.00    +0.000 A 
ATOM     13  C   UNL     1      -5.305  13.336  21.821  0.00  0.00    +0.000 A 
ATOM     14  C   UNL     1      -5.210  13.965  23.057  0.00  0.00    +0.000 A 
ATOM     15 CL   UNL     1      -6.641  14.429  23.891  0.00  0.00    +0.000 Cl
ATOM     16  C   UNL     1      -3.963  14.213  23.626  0.00  0.00    +0.000 A 
ATOM     17  C   UNL     1      -2.789  13.823  22.963  0.00  0.00    +0.000 A 
ATOM     18 CL   UNL     1      -1.305  14.149  23.787  0.00  0.00    +0.000 Cl
ENDBRANCH   8  11
ENDBRANCH   4   7
BRANCH   1  19
ATOM     19  C   UNL     1       2.577   8.495  17.994  0.00  0.00    +0.000 C 
BRANCH  19  25
ATOM     20  C   UNL     1       7.131   7.706  17.328  0.00  0.00    +0.000 C 
ATOM     21  N   UNL     1       6.775   6.425  16.766  0.00  0.00    +0.000 N 
ATOM     22  C   UNL     1       5.551   5.918  17.181  0.00  0.00    +0.000 A 
ATOM     23  N   UNL     1       4.546   6.748  17.474  0.00  0.00    +0.000 NA
ATOM     24  C   UNL     1       3.375   6.213  17.853  0.00  0.00    +0.000 A 
ATOM     25  N   UNL     1       2.294   7.074  18.131  0.00  0.00    +0.000 N 
ATOM     26  C   UNL     1       3.182   4.826  17.934  0.00  0.00    +0.000 A 
ATOM     27  C   UNL     1       1.963   4.195  18.294  0.00  0.00    +0.000 A 
ATOM     28  C   UNL     1       1.855   2.803  18.342  0.00  0.00    +0.000 A 
ATOM     29  C   UNL     1       0.568   2.143  18.739  0.00  0.00    +0.000 C 
ATOM     30  C   UNL     1       2.976   2.040  18.024  0.00  0.00    +0.000 A 
ATOM     31  C   UNL     1       4.174   2.668  17.664  0.00  0.00    +0.000 A 
ATOM     32  C   UNL     1       4.299   4.051  17.614  0.00  0.00    +0.000 A 
ATOM     33  N   UNL     1       5.471   4.587  17.255  0.00  0.00    +0.000 NA
ATOM     34  H   UNL     1       7.451   5.681  16.893  0.00  0.00    +0.000 HD
ATOM     35  H   UNL     1       1.916   6.858  19.050  0.00  0.00    +0.000 HD
ENDBRANCH  19  25
ENDBRANCH   1  19
TORSDOF 4
ENDMDL
MODEL 6
REMARK VINA RESULT:      -8.7      2.983      5.423
REMARK  Name = 
REMARK  6 active torsions:
REMARK  status: ('A' for Active; 'I' for Inactive)
REMARK    1  A    between atoms: C_1  and  N_2
REMARK    2  A    between atoms: N_6  and  C_7
REMARK    3  A    between atoms: C_7  and  C_8
REMARK    4  A    between atoms: C_11  and  N_12
REMARK    5  A    between atoms: C_13  and  C_15
REMARK    6  A    between atoms: C_27  and  C_28
REMARK                            x       y       z     vdW  Elec       q    Type
REMARK                         _______ _______ _______ _____ _____    ______ ____
ROOT
ATOM      1  C   UNL     1       3.786   4.180  18.389  0.00  0.00    +0.000 A 
ATOM      2  C   UNL     1       4.184   5.029  19.427  0.00  0.00    +0.000 A 
ATOM      3  C   UNL     1       3.424   6.155  19.756  0.00  0.00    +0.000 A 
ATOM      4  C   UNL     1       2.248   6.452  19.065  0.00  0.00    +0.000 A 
ATOM      5  C   UNL     1       1.837   5.594  18.039  0.00  0.00    +0.000 A 
ATOM      6  C   UNL     1       2.600   4.469  17.702  0.00  0.00    +0.000 A 
ENDROOT
BRANCH   4   7
ATOM      7  N   UNL     1       1.435   7.567  19.362  0.00  0.00    +0.000 N 
ATOM      8  C   UNL     1       1.558   8.837  18.833  0.00  0.00    +0.000 C 
ATOM      9  O   UNL     1       2.381   9.184  17.990  0.00  0.00    +0.000 OA
ATOM     10  H   UNL     1       0.643   7.385  19.966  0.00  0.00    +0.000 HD
BRANCH   8  11
ATOM     11  C   UNL     1       0.622   9.891  19.331  0.00  0.00    +0.000 A 
ATOM     12  C   UNL     1      -0.132  10.549  18.336  0.00  0.00    +0.000 A 
ATOM     13  C   UNL     1      -1.079  11.518  18.668  0.00  0.00    +0.000 A 
ATOM     14  C   UNL     1      -1.287  11.841  20.004  0.00  0.00    +0.000 A 
ATOM     15 CL   UNL     1      -2.470  13.017  20.423  0.00  0.00    +0.000 Cl
ATOM     16  C   UNL     1      -0.549  11.211  21.003  0.00  0.00    +0.000 A 
ATOM     17  C   UNL     1       0.405  10.236  20.672  0.00  0.00    +0.000 A 
ATOM     18 CL   UNL     1       1.229   9.497  22.001  0.00  0.00    +0.000 Cl
ENDBRANCH   8  11
ENDBRANCH   4   7
BRANCH   1  19
ATOM     19  C   UNL     1       4.584   2.938  18.071  0.00  0.00    +0.000 C 
BRANCH  19  25
ATOM     20  C   UNL     1       7.961   6.035  18.971  0.00  0.00    +0.000 C 
ATOM     21  N   UNL     1       7.767   6.557  17.639  0.00  0.00    +0.000 N 
ATOM     22  C   UNL     1       7.212   5.665  16.730  0.00  0.00    +0.000 A 
ATOM     23  N   UNL     1       6.347   4.737  17.146  0.00  0.00    +0.000 NA
ATOM     24  C   UNL     1       5.821   3.909  16.230  0.00  0.00    +0.000 A 
ATOM     25  N   UNL     1       4.879   2.946  16.646  0.00  0.00    +0.000 N 
ATOM     26  C   UNL     1       6.144   4.004  14.868  0.00  0.00    +0.000 A 
ATOM     27  C   UNL     1       5.601   3.185  13.845  0.00  0.00    +0.000 A 
ATOM     28  C   UNL     1       5.972   3.353  12.509  0.00  0.00    +0.000 A 
ATOM     29  C   UNL     1       5.405   2.473  11.435  0.00  0.00    +0.000 C 
ATOM     30  C   UNL     1       6.892   4.350  12.197  0.00  0.00    +0.000 A 
ATOM     31  C   UNL     1       7.421   5.159  13.210  0.00  0.00    +0.000 A 
ATOM     32  C   UNL     1       7.063   5.004  14.544  0.00  0.00    +0.000 A 
ATOM     33  N   UNL     1       7.602   5.816  15.461  0.00  0.00    +0.000 NA
ATOM     34  H   UNL     1       8.588   6.949  17.192  0.00  0.00    +0.000 HD
ATOM     35  H   UNL     1       5.167   2.027  16.322  0.00  0.00    +0.000 HD
ENDBRANCH  19  25
ENDBRANCH   1  19
TORSDOF 4
ENDMDL
MODEL 7
REMARK VINA RESULT:      -8.7      1.333      1.660
REMARK  Name = 
REMARK  6 active torsions:
REMARK  status: ('A' for Active; 'I' for Inactive)
REMARK    1  A    between atoms: C_1  and  N_2
REMARK    2  A    between atoms: N_6  and  C_7
REMARK    3  A    between atoms: C_7  and  C_8
REMARK    4  A    between atoms: C_11  and  N_12
REMARK    5  A    between atoms: C_13  and  C_15
REMARK    6  A    between atoms: C_27  and  C_28
REMARK                            x       y       z     vdW  Elec       q    Type
REMARK                         _______ _______ _______ _____ _____    ______ ____
ROOT
ATOM      1  C   UNL     1       1.687   9.477  18.653  0.00  0.00    +0.000 A 
ATOM      2  C   UNL     1       1.450  10.807  18.290  0.00  0.00    +0.000 A 
ATOM      3  C   UNL     1       0.518  11.580  18.987  0.00  0.00    +0.000 A 
ATOM      4  C   UNL     1      -0.190  11.047  20.067  0.00  0.00    +0.000 A 
ATOM      5  C   UNL     1       0.059   9.723  20.445  0.00  0.00    +0.000 A 
ATOM      6  C   UNL     1       0.988   8.944  19.744  0.00  0.00    +0.000 A 
ENDROOT
BRANCH   4   7
ATOM      7  N   UNL     1      -1.134  11.783  20.815  0.00  0.00    +0.000 N 
ATOM      8  C   UNL     1      -2.331  12.294  20.352  0.00  0.00    +0.000 C 
ATOM      9  O   UNL     1      -2.776  12.155  19.216  0.00  0.00    +0.000 OA
ATOM     10  H   UNL     1      -0.935  11.874  21.804  0.00  0.00    +0.000 HD
BRANCH   8  11
ATOM     11  C   UNL     1      -3.157  13.097  21.303  0.00  0.00    +0.000 A 
ATOM     12  C   UNL     1      -2.437  13.987  22.129  0.00  0.00    +0.000 A 
ATOM     13  C   UNL     1      -3.091  14.832  23.026  0.00  0.00    +0.000 A 
ATOM     14  C   UNL     1      -4.478  14.801  23.107  0.00  0.00    +0.000 A 
ATOM     15 CL   UNL     1      -5.293  15.857  24.193  0.00  0.00    +0.000 Cl
ATOM     16  C   UNL     1      -5.210  13.927  22.308  0.00  0.00    +0.000 A 
ATOM     17  C   UNL     1      -4.556  13.074  21.405  0.00  0.00    +0.000 A 
ATOM     18 CL   UNL     1      -5.573  12.063  20.440  0.00  0.00    +0.000 Cl
ENDBRANCH   8  11
ENDBRANCH   4   7
BRANCH   1  19
ATOM     19  C   UNL     1       2.732   8.664  17.928  0.00  0.00    +0.000 C 
BRANCH  19  25
ATOM     20  C   UNL     1       7.255   7.696  17.284  0.00  0.00    +0.000 C 
ATOM     21  N   UNL     1       6.852   6.421  16.743  0.00  0.00    +0.000 N 
ATOM     22  C   UNL     1       5.609   5.966  17.163  0.00  0.00    +0.000 A 
ATOM     23  N   UNL     1       4.635   6.837  17.441  0.00  0.00    +0.000 NA
ATOM     24  C   UNL     1       3.444   6.352  17.825  0.00  0.00    +0.000 A 
ATOM     25  N   UNL     1       2.396   7.256  18.088  0.00  0.00    +0.000 N 
ATOM     26  C   UNL     1       3.201   4.974  17.928  0.00  0.00    +0.000 A 
ATOM     27  C   UNL     1       1.959   4.394  18.296  0.00  0.00    +0.000 A 
ATOM     28  C   UNL     1       1.799   3.009  18.365  0.00  0.00    +0.000 A 
ATOM     29  C   UNL     1       0.488   2.403  18.770  0.00  0.00    +0.000 C 
ATOM     30  C   UNL     1       2.891   2.199  18.063  0.00  0.00    +0.000 A 
ATOM     31  C   UNL     1       4.113   2.777  17.695  0.00  0.00    +0.000 A 
ATOM     32  C   UNL     1       4.288   4.154  17.623  0.00  0.00    +0.000 A 
ATOM     33  N   UNL     1       5.480   4.639  17.258  0.00  0.00    +0.000 NA
ATOM     34  H   UNL     1       7.500   5.654  16.883  0.00  0.00    +0.000 HD
ATOM     35  H   UNL     1       2.009   7.070  19.008  0.00  0.00    +0.000 HD
ENDBRANCH  19  25
ENDBRANCH   1  19
TORSDOF 4
ENDMDL
MODEL 8
REMARK VINA RESULT:      -8.7      1.143      1.190
REMARK  Name = 
REMARK  6 active torsions:
REMARK  status: ('A' for Active; 'I' for Inactive)
REMARK    1  A    between atoms: C_1  and  N_2
REMARK    2  A    between atoms: N_6  and  C_7
REMARK    3  A    between atoms: C_7  and  C_8
REMARK    4  A    between atoms: C_11  and  N_12
REMARK    5  A    between atoms: C_13  and  C_15
REMARK    6  A    between atoms: C_27  and  C_28
REMARK                            x       y       z     vdW  Elec       q    Type
REMARK                         _______ _______ _______ _____ _____    ______ ____
ROOT
ATOM      1  C   UNL     1       1.466   9.308  18.689  0.00  0.00    +0.000 A 
ATOM      2  C   UNL     1       1.420   9.386  20.085  0.00  0.00    +0.000 A 
ATOM      3  C   UNL     1       0.373  10.053  20.726  0.00  0.00    +0.000 A 
ATOM      4  C   UNL     1      -0.654  10.649  19.992  0.00  0.00    +0.000 A 
ATOM      5  C   UNL     1      -0.621  10.556  18.595  0.00  0.00    +0.000 A 
ATOM      6  C   UNL     1       0.431   9.894  17.949  0.00  0.00    +0.000 A 
ENDROOT
BRANCH   4   7
ATOM      7  N   UNL     1      -1.741  11.325  20.585  0.00  0.00    +0.000 N 
ATOM      8  C   UNL     1      -1.826  12.679  20.842  0.00  0.00    +0.000 C 
ATOM      9  O   UNL     1      -0.971  13.514  20.559  0.00  0.00    +0.000 OA
ATOM     10  H   UNL     1      -2.563  10.760  20.768  0.00  0.00    +0.000 HD
BRANCH   8  11
ATOM     11  C   UNL     1      -3.051  13.180  21.535  0.00  0.00    +0.000 A 
ATOM     12  C   UNL     1      -2.832  13.777  22.795  0.00  0.00    +0.000 A 
ATOM     13  C   UNL     1      -3.883  14.332  23.525  0.00  0.00    +0.000 A 
ATOM     14  C   UNL     1      -5.171  14.300  23.003  0.00  0.00    +0.000 A 
ATOM     15 CL   UNL     1      -6.468  15.004  23.885  0.00  0.00    +0.000 Cl
ATOM     16  C   UNL     1      -5.413  13.711  21.764  0.00  0.00    +0.000 A 
ATOM     17  C   UNL     1      -4.358  13.150  21.027  0.00  0.00    +0.000 A 
ATOM     18 CL   UNL     1      -4.776  12.483  19.488  0.00  0.00    +0.000 Cl
ENDBRANCH   8  11
ENDBRANCH   4   7
BRANCH   1  19
ATOM     19  C   UNL     1       2.572   8.543  18.004  0.00  0.00    +0.000 C 
BRANCH  19  25
ATOM     20  C   UNL     1       7.122   7.746  17.317  0.00  0.00    +0.000 C 
ATOM     21  N   UNL     1       6.760   6.467  16.753  0.00  0.00    +0.000 N 
ATOM     22  C   UNL     1       5.537   5.962  17.173  0.00  0.00    +0.000 A 
ATOM     23  N   UNL     1       4.535   6.793  17.471  0.00  0.00    +0.000 NA
ATOM     24  C   UNL     1       3.364   6.260  17.854  0.00  0.00    +0.000 A 
ATOM     25  N   UNL     1       2.286   7.122  18.139  0.00  0.00    +0.000 N 
ATOM     26  C   UNL     1       3.169   4.873  17.932  0.00  0.00    +0.000 A 
ATOM     27  C   UNL     1       1.950   4.243  18.296  0.00  0.00    +0.000 A 
ATOM     28  C   UNL     1       1.838   2.852  18.340  0.00  0.00    +0.000 A 
ATOM     29  C   UNL     1       0.552   2.194  18.741  0.00  0.00    +0.000 C 
ATOM     30  C   UNL     1       2.957   2.087  18.016  0.00  0.00    +0.000 A 
ATOM     31  C   UNL     1       4.155   2.713  17.653  0.00  0.00    +0.000 A 
ATOM     32  C   UNL     1       4.282   4.096  17.605  0.00  0.00    +0.000 A 
ATOM     33  N   UNL     1       5.454   4.630  17.243  0.00  0.00    +0.000 NA
ATOM     34  H   UNL     1       7.436   5.722  16.875  0.00  0.00    +0.000 HD
ATOM     35  H   UNL     1       1.911   6.905  19.058  0.00  0.00    +0.000 HD
ENDBRANCH  19  25
ENDBRANCH   1  19
TORSDOF 4
ENDMDL
MODEL 9
REMARK VINA RESULT:      -8.7      1.043      1.043
REMARK  Name = 
REMARK  6 active torsions:
REMARK  status: ('A' for Active; 'I' for Inactive)
REMARK    1  A    between atoms: C_1  and  N_2
REMARK    2  A    between atoms: N_6  and  C_7
REMARK    3  A    between atoms: C_7  and  C_8
REMARK    4  A    between atoms: C_11  and  N_12
REMARK    5  A    between atoms: C_13  and  C_15
REMARK    6  A    between atoms: C_27  and  C_28
REMARK                            x       y       z     vdW  Elec       q    Type
REMARK                         _______ _______ _______ _____ _____    ______ ____
ROOT
ATOM      1  C   UNL     1       1.805   9.533  18.602  0.00  0.00    +0.000 A 
ATOM      2  C   UNL     1       1.076   8.970  19.654  0.00  0.00    +0.000 A 
ATOM      3  C   UNL     1       0.133   9.729  20.353  0.00  0.00    +0.000 A 
ATOM      4  C   UNL     1      -0.109  11.061  20.012  0.00  0.00    +0.000 A 
ATOM      5  C   UNL     1       0.605  11.622  18.947  0.00  0.00    +0.000 A 
ATOM      6  C   UNL     1       1.555  10.866  18.249  0.00  0.00    +0.000 A 
ENDROOT
BRANCH   4   7
ATOM      7  N   UNL     1      -1.056  11.871  20.674  0.00  0.00    +0.000 N 
ATOM      8  C   UNL     1      -2.268  12.299  20.168  0.00  0.00    +0.000 C 
ATOM      9  O   UNL     1      -2.725  12.009  19.066  0.00  0.00    +0.000 OA
ATOM     10  H   UNL     1      -0.847  12.090  21.641  0.00  0.00    +0.000 HD
BRANCH   8  11
ATOM     11  C   UNL     1      -3.097  13.204  21.021  0.00  0.00    +0.000 A 
ATOM     12  C   UNL     1      -4.208  12.597  21.645  0.00  0.00    +0.000 A 
ATOM     13  C   UNL     1      -5.036  13.315  22.508  0.00  0.00    +0.000 A 
ATOM     14  C   UNL     1      -4.761  14.654  22.761  0.00  0.00    +0.000 A 
ATOM     15 CL   UNL     1      -5.762  15.541  23.843  0.00  0.00    +0.000 Cl
ATOM     16  C   UNL     1      -3.674  15.277  22.152  0.00  0.00    +0.000 A 
ATOM     17  C   UNL     1      -2.840  14.557  21.282  0.00  0.00    +0.000 A 
ATOM     18 CL   UNL     1      -1.502  15.428  20.618  0.00  0.00    +0.000 Cl
ENDBRANCH   8  11
ENDBRANCH   4   7
BRANCH   1  19
ATOM     19  C   UNL     1       2.785   8.694  17.818  0.00  0.00    +0.000 C 
BRANCH  19  25
ATOM     20  C   UNL     1       7.306   7.665  17.263  0.00  0.00    +0.000 C 
ATOM     21  N   UNL     1       6.897   6.380  16.748  0.00  0.00    +0.000 N 
ATOM     22  C   UNL     1       5.644   5.948  17.163  0.00  0.00    +0.000 A 
ATOM     23  N   UNL     1       4.676   6.836  17.404  0.00  0.00    +0.000 NA
ATOM     24  C   UNL     1       3.474   6.374  17.784  0.00  0.00    +0.000 A 
ATOM     25  N   UNL     1       2.432   7.295  18.008  0.00  0.00    +0.000 N 
ATOM     26  C   UNL     1       3.215   5.002  17.919  0.00  0.00    +0.000 A 
ATOM     27  C   UNL     1       1.962   4.444  18.283  0.00  0.00    +0.000 A 
ATOM     28  C   UNL     1       1.786   3.062  18.386  0.00  0.00    +0.000 A 
ATOM     29  C   UNL     1       0.463   2.481  18.788  0.00  0.00    +0.000 C 
ATOM     30  C   UNL     1       2.874   2.235  18.120  0.00  0.00    +0.000 A 
ATOM     31  C   UNL     1       4.107   2.790  17.755  0.00  0.00    +0.000 A 
ATOM     32  C   UNL     1       4.298   4.162  17.650  0.00  0.00    +0.000 A 
ATOM     33  N   UNL     1       5.500   4.626  17.290  0.00  0.00    +0.000 NA
ATOM     34  H   UNL     1       7.535   5.610  16.917  0.00  0.00    +0.000 HD
ATOM     35  H   UNL     1       2.030   7.136  18.928  0.00  0.00    +0.000 HD
ENDBRANCH  19  25
ENDBRANCH   1  19
TORSDOF 4
ENDMDL
