MODEL 1
REMARK VINA RESULT:      -7.6      0.000      0.000
REMARK  Name = 
REMARK  2 active torsions:
REMARK  status: ('A' for Active; 'I' for Inactive)
REMARK    1  A    between atoms: C_5  and  C_6
REMARK    2  A    between atoms: C_8  and  C_9
REMARK                            x       y       z     vdW  Elec       q    Type
REMARK                         _______ _______ _______ _____ _____    ______ ____
ROOT
ATOM      1  C   UNL     1       2.233   8.202  18.709  0.00  0.00    +0.000 C 
ATOM      2  C   UNL     1       2.044   6.947  19.139  0.00  0.00    +0.000 C 
ATOM      3  C   UNL     1       3.157   5.948  19.126  0.00  0.00    +0.000 C 
ATOM      4  N   UNL     1       3.883   6.156  17.912  0.00  0.00    +0.000 N 
ATOM      5  C   UNL     1       4.039   7.407  17.335  0.00  0.00    +0.000 C 
ATOM      6  N   UNL     1       4.784   7.432  16.242  0.00  0.00    +0.000 NA
ATOM      7  C   UNL     1       4.834   5.948  15.966  0.00  0.00    +0.000 C 
ATOM      8  C   UNL     1       5.883   5.407  15.025  0.00  0.00    +0.000 C 
ATOM      9  C   UNL     1       5.690   3.879  14.931  0.00  0.00    +0.000 C 
ATOM     10  C   UNL     1       5.726   3.190  16.302  0.00  0.00    +0.000 C 
ATOM     11  C   UNL     1       4.737   3.819  17.286  0.00  0.00    +0.000 C 
ATOM     12  C   UNL     1       4.919   5.321  17.357  0.00  0.00    +0.000 C 
ATOM     13  N   UNL     1       3.373   8.456  17.945  0.00  0.00    +0.000 N 
ATOM     14  H   UNL     1       3.989   9.149  18.362  0.00  0.00    +0.000 HD
ENDROOT
BRANCH   1  19
ATOM     15 CL   UNL     1      -2.428  11.887  19.733  0.00  0.00    +0.000 Cl
ATOM     16  C   UNL     1      -1.063  10.897  19.404  0.00  0.00    +0.000 A 
ATOM     17  C   UNL     1      -0.260  10.490  20.450  0.00  0.00    +0.000 A 
ATOM     18  C   UNL     1       0.835   9.674  20.181  0.00  0.00    +0.000 A 
ATOM     19  C   UNL     1       1.125   9.181  18.883  0.00  0.00    +0.000 A 
ATOM     20  C   UNL     1       0.314   9.638  17.837  0.00  0.00    +0.000 A 
ATOM     21  C   UNL     1      -0.768  10.500  18.099  0.00  0.00    +0.000 A 
ENDBRANCH   1  19
BRANCH   3  22
ATOM     22  C   UNL     1       2.533   4.578  19.285  0.00  0.00    +0.000 A 
ATOM     23  C   UNL     1       1.550   4.110  18.389  0.00  0.00    +0.000 A 
ATOM     24  C   UNL     1       0.891   2.911  18.615  0.00  0.00    +0.000 A 
ATOM     25  C   UNL     1       1.184   2.171  19.771  0.00  0.00    +0.000 A 
ATOM     26  C   UNL     1       2.150   2.622  20.663  0.00  0.00    +0.000 A 
ATOM     27  C   UNL     1       2.827   3.821  20.424  0.00  0.00    +0.000 A 
ENDBRANCH   3  22
TORSDOF 2
ENDMDL
MODEL 2
REMARK VINA RESULT:      -7.5      0.822      1.271
REMARK  Name = 
REMARK  2 active torsions:
REMARK  status: ('A' for Active; 'I' for Inactive)
REMARK    1  A    between atoms: C_5  and  C_6
REMARK    2  A    between atoms: C_8  and  C_9
REMARK                            x       y       z     vdW  Elec       q    Type
REMARK                         _______ _______ _______ _____ _____    ______ ____
ROOT
ATOM      1  C   UNL     1       1.740   8.592  18.982  0.00  0.00    +0.000 C 
ATOM      2  C   UNL     1       1.587   7.413  19.602  0.00  0.00    +0.000 C 
ATOM      3  C   UNL     1       2.730   6.459  19.741  0.00  0.00    +0.000 C 
ATOM      4  N   UNL     1       3.452   6.497  18.506  0.00  0.00    +0.000 N 
ATOM      5  C   UNL     1       3.571   7.649  17.742  0.00  0.00    +0.000 C 
ATOM      6  N   UNL     1       4.316   7.527  16.657  0.00  0.00    +0.000 NA
ATOM      7  C   UNL     1       4.412   6.020  16.614  0.00  0.00    +0.000 C 
ATOM      8  C   UNL     1       5.478   5.372  15.764  0.00  0.00    +0.000 C 
ATOM      9  C   UNL     1       5.332   3.842  15.909  0.00  0.00    +0.000 C 
ATOM     10  C   UNL     1       5.386   3.376  17.369  0.00  0.00    +0.000 C 
ATOM     11  C   UNL     1       4.377   4.119  18.248  0.00  0.00    +0.000 C 
ATOM     12  C   UNL     1       4.514   5.618  18.085  0.00  0.00    +0.000 C 
ATOM     13  N   UNL     1       2.872   8.758  18.185  0.00  0.00    +0.000 N 
ATOM     14  H   UNL     1       3.466   9.526  18.488  0.00  0.00    +0.000 HD
ENDROOT
BRANCH   1  19
ATOM     15 CL   UNL     1      -3.019  12.264  19.453  0.00  0.00    +0.000 Cl
ATOM     16  C   UNL     1      -1.630  11.270  19.269  0.00  0.00    +0.000 A 
ATOM     17  C   UNL     1      -0.781  11.098  20.343  0.00  0.00    +0.000 A 
ATOM     18  C   UNL     1       0.335  10.278  20.195  0.00  0.00    +0.000 A 
ATOM     19  C   UNL     1       0.602   9.552  19.006  0.00  0.00    +0.000 A 
ATOM     20  C   UNL     1      -0.258   9.773  17.924  0.00  0.00    +0.000 A 
ATOM     21  C   UNL     1      -1.362  10.636  18.055  0.00  0.00    +0.000 A 
ENDBRANCH   1  19
BRANCH   3  22
ATOM     22  C   UNL     1       2.148   5.111  20.111  0.00  0.00    +0.000 A 
ATOM     23  C   UNL     1       2.506   4.459  21.308  0.00  0.00    +0.000 A 
ATOM     24  C   UNL     1       2.070   3.171  21.578  0.00  0.00    +0.000 A 
ATOM     25  C   UNL     1       1.289   2.495  20.627  0.00  0.00    +0.000 A 
ATOM     26  C   UNL     1       0.930   3.126  19.442  0.00  0.00    +0.000 A 
ATOM     27  C   UNL     1       1.354   4.431  19.181  0.00  0.00    +0.000 A 
ENDBRANCH   3  22
TORSDOF 2
ENDMDL
MODEL 3
REMARK VINA RESULT:      -7.4      3.812      8.598
REMARK  Name = 
REMARK  2 active torsions:
REMARK  status: ('A' for Active; 'I' for Inactive)
REMARK    1  A    between atoms: C_5  and  C_6
REMARK    2  A    between atoms: C_8  and  C_9
REMARK                            x       y       z     vdW  Elec       q    Type
REMARK                         _______ _______ _______ _____ _____    ______ ____
ROOT
ATOM      1  C   UNL     1       1.283   9.978  18.850  0.00  0.00    +0.000 C 
ATOM      2  C   UNL     1       0.261  10.410  19.600  0.00  0.00    +0.000 C 
ATOM      3  C   UNL     1      -0.390  11.730  19.335  0.00  0.00    +0.000 C 
ATOM      4  N   UNL     1       0.658  12.648  19.008  0.00  0.00    +0.000 N 
ATOM      5  C   UNL     1       1.804  12.266  18.327  0.00  0.00    +0.000 C 
ATOM      6  N   UNL     1       2.649  13.247  18.057  0.00  0.00    +0.000 NA
ATOM      7  C   UNL     1       2.063  14.307  18.959  0.00  0.00    +0.000 C 
ATOM      8  C   UNL     1       2.441  15.753  18.743  0.00  0.00    +0.000 C 
ATOM      9  C   UNL     1       1.705  16.597  19.804  0.00  0.00    +0.000 C 
ATOM     10  C   UNL     1       0.186  16.383  19.785  0.00  0.00    +0.000 C 
ATOM     11  C   UNL     1      -0.186  14.902  19.893  0.00  0.00    +0.000 C 
ATOM     12  C   UNL     1       0.556  14.078  18.862  0.00  0.00    +0.000 C 
ATOM     13  N   UNL     1       1.938  10.916  18.052  0.00  0.00    +0.000 N 
ATOM     14  H   UNL     1       1.905  10.692  17.061  0.00  0.00    +0.000 HD
ENDROOT
BRANCH   1  19
ATOM     15 CL   UNL     1       3.095   4.253  19.394  0.00  0.00    +0.000 Cl
ATOM     16  C   UNL     1       2.636   5.905  19.289  0.00  0.00    +0.000 A 
ATOM     17  C   UNL     1       2.838   6.585  18.105  0.00  0.00    +0.000 A 
ATOM     18  C   UNL     1       2.449   7.919  18.020  0.00  0.00    +0.000 A 
ATOM     19  C   UNL     1       1.788   8.595  19.076  0.00  0.00    +0.000 A 
ATOM     20  C   UNL     1       1.628   7.891  20.276  0.00  0.00    +0.000 A 
ATOM     21  C   UNL     1       2.060   6.556  20.381  0.00  0.00    +0.000 A 
ENDBRANCH   1  19
BRANCH   3  22
ATOM     22  C   UNL     1      -1.204  12.084  20.561  0.00  0.00    +0.000 A 
ATOM     23  C   UNL     1      -0.706  11.867  21.863  0.00  0.00    +0.000 A 
ATOM     24  C   UNL     1      -1.506  12.072  22.977  0.00  0.00    +0.000 A 
ATOM     25  C   UNL     1      -2.842  12.467  22.803  0.00  0.00    +0.000 A 
ATOM     26  C   UNL     1      -3.345  12.683  21.525  0.00  0.00    +0.000 A 
ATOM     27  C   UNL     1      -2.532  12.495  20.405  0.00  0.00    +0.000 A 
ENDBRANCH   3  22
TORSDOF 2
ENDMDL
MODEL 4
REMARK VINA RESULT:      -7.4      3.557      8.746
REMARK  Name = 
REMARK  2 active torsions:
REMARK  status: ('A' for Active; 'I' for Inactive)
REMARK    1  A    between atoms: C_5  and  C_6
REMARK    2  A    between atoms: C_8  and  C_9
REMARK                            x       y       z     vdW  Elec       q    Type
REMARK                         _______ _______ _______ _____ _____    ______ ____
ROOT
ATOM      1  C   UNL     1       1.131   9.140  19.911  0.00  0.00    +0.000 C 
ATOM      2  C   UNL     1       0.225   9.511  18.996  0.00  0.00    +0.000 C 
ATOM      3  C   UNL     1      -0.426  10.856  19.054  0.00  0.00    +0.000 C 
ATOM      4  N   UNL     1      -0.693  11.126  20.433  0.00  0.00    +0.000 N 
ATOM      5  C   UNL     1       0.134  10.688  21.457  0.00  0.00    +0.000 C 
ATOM      6  N   UNL     1      -0.227  11.068  22.671  0.00  0.00    +0.000 NA
ATOM      7  C   UNL     1      -1.622  11.552  22.353  0.00  0.00    +0.000 C 
ATOM      8  C   UNL     1      -2.338  12.441  23.340  0.00  0.00    +0.000 C 
ATOM      9  C   UNL     1      -3.730  12.768  22.758  0.00  0.00    +0.000 C 
ATOM     10  C   UNL     1      -3.657  13.392  21.359  0.00  0.00    +0.000 C 
ATOM     11  C   UNL     1      -2.834  12.537  20.392  0.00  0.00    +0.000 C 
ATOM     12  C   UNL     1      -1.478  12.204  20.978  0.00  0.00    +0.000 C 
ATOM     13  N   UNL     1       1.199   9.883  21.089  0.00  0.00    +0.000 N 
ATOM     14  H   UNL     1       2.109  10.309  21.243  0.00  0.00    +0.000 HD
ENDROOT
BRANCH   1  19
ATOM     15 CL   UNL     1       3.811   3.876  18.697  0.00  0.00    +0.000 Cl
ATOM     16  C   UNL     1       3.101   5.388  19.101  0.00  0.00    +0.000 A 
ATOM     17  C   UNL     1       3.200   6.436  18.209  0.00  0.00    +0.000 A 
ATOM     18  C   UNL     1       2.608   7.654  18.532  0.00  0.00    +0.000 A 
ATOM     19  C   UNL     1       1.844   7.848  19.711  0.00  0.00    +0.000 A 
ATOM     20  C   UNL     1       1.791   6.778  20.613  0.00  0.00    +0.000 A 
ATOM     21  C   UNL     1       2.426   5.558  20.310  0.00  0.00    +0.000 A 
ENDBRANCH   1  19
BRANCH   3  22
ATOM     22  C   UNL     1      -1.643  10.804  18.155  0.00  0.00    +0.000 A 
ATOM     23  C   UNL     1      -2.602   9.777  18.273  0.00  0.00    +0.000 A 
ATOM     24  C   UNL     1      -3.642   9.663  17.364  0.00  0.00    +0.000 A 
ATOM     25  C   UNL     1      -3.721  10.565  16.290  0.00  0.00    +0.000 A 
ATOM     26  C   UNL     1      -2.781  11.580  16.161  0.00  0.00    +0.000 A 
ATOM     27  C   UNL     1      -1.745  11.706  17.089  0.00  0.00    +0.000 A 
ENDBRANCH   3  22
TORSDOF 2
ENDMDL
MODEL 5
REMARK VINA RESULT:      -7.4      0.358      1.365
REMARK  Name = 
REMARK  2 active torsions:
REMARK  status: ('A' for Active; 'I' for Inactive)
REMARK    1  A    between atoms: C_5  and  C_6
REMARK    2  A    between atoms: C_8  and  C_9
REMARK                            x       y       z     vdW  Elec       q    Type
REMARK                         _______ _______ _______ _____ _____    ______ ____
ROOT
ATOM      1  C   UNL     1       2.261   8.091  18.868  0.00  0.00    +0.000 C 
ATOM      2  C   UNL     1       2.122   6.816  19.254  0.00  0.00    +0.000 C 
ATOM      3  C   UNL     1       3.261   5.851  19.161  0.00  0.00    +0.000 C 
ATOM      4  N   UNL     1       3.935   6.126  17.930  0.00  0.00    +0.000 N 
ATOM      5  C   UNL     1       4.035   7.403  17.398  0.00  0.00    +0.000 C 
ATOM      6  N   UNL     1       4.737   7.492  16.280  0.00  0.00    +0.000 NA
ATOM      7  C   UNL     1       4.817   6.022  15.944  0.00  0.00    +0.000 C 
ATOM      8  C   UNL     1       5.844   5.548  14.944  0.00  0.00    +0.000 C 
ATOM      9  C   UNL     1       5.689   4.020  14.796  0.00  0.00    +0.000 C 
ATOM     10  C   UNL     1       5.796   3.280  16.136  0.00  0.00    +0.000 C 
ATOM     11  C   UNL     1       4.827   3.841  17.180  0.00  0.00    +0.000 C 
ATOM     12  C   UNL     1       4.971   5.343  17.304  0.00  0.00    +0.000 C 
ATOM     13  N   UNL     1       3.364   8.407  18.073  0.00  0.00    +0.000 N 
ATOM     14  H   UNL     1       3.976   9.101  18.495  0.00  0.00    +0.000 HD
ENDROOT
BRANCH   1  19
ATOM     15 CL   UNL     1      -2.078  12.205  19.645  0.00  0.00    +0.000 Cl
ATOM     16  C   UNL     1      -0.893  10.977  19.448  0.00  0.00    +0.000 A 
ATOM     17  C   UNL     1      -0.476  10.644  18.176  0.00  0.00    +0.000 A 
ATOM     18  C   UNL     1       0.497   9.660  18.022  0.00  0.00    +0.000 A 
ATOM     19  C   UNL     1       1.134   9.031  19.122  0.00  0.00    +0.000 A 
ATOM     20  C   UNL     1       0.666   9.364  20.398  0.00  0.00    +0.000 A 
ATOM     21  C   UNL     1      -0.350  10.326  20.556  0.00  0.00    +0.000 A 
ENDBRANCH   1  19
BRANCH   3  22
ATOM     22  C   UNL     1       2.681   4.458  19.287  0.00  0.00    +0.000 A 
ATOM     23  C   UNL     1       3.298   3.473  20.085  0.00  0.00    +0.000 A 
ATOM     24  C   UNL     1       2.835   2.167  20.093  0.00  0.00    +0.000 A 
ATOM     25  C   UNL     1       1.758   1.813  19.266  0.00  0.00    +0.000 A 
ATOM     26  C   UNL     1       1.142   2.773  18.472  0.00  0.00    +0.000 A 
ATOM     27  C   UNL     1       1.597   4.094  18.481  0.00  0.00    +0.000 A 
ENDBRANCH   3  22
TORSDOF 2
ENDMDL
MODEL 6
REMARK VINA RESULT:      -7.4      3.479      8.610
REMARK  Name = 
REMARK  2 active torsions:
REMARK  status: ('A' for Active; 'I' for Inactive)
REMARK    1  A    between atoms: C_5  and  C_6
REMARK    2  A    between atoms: C_8  and  C_9
REMARK                            x       y       z     vdW  Elec       q    Type
REMARK                         _______ _______ _______ _____ _____    ______ ____
ROOT
ATOM      1  C   UNL     1       1.316   9.352  19.279  0.00  0.00    +0.000 C 
ATOM      2  C   UNL     1       0.300   9.661  18.461  0.00  0.00    +0.000 C 
ATOM      3  C   UNL     1      -0.439  10.954  18.601  0.00  0.00    +0.000 C 
ATOM      4  N   UNL     1      -0.590  11.192  20.004  0.00  0.00    +0.000 N 
ATOM      5  C   UNL     1       0.362  10.809  20.936  0.00  0.00    +0.000 C 
ATOM      6  N   UNL     1       0.094  11.152  22.185  0.00  0.00    +0.000 NA
ATOM      7  C   UNL     1      -1.357  11.533  22.010  0.00  0.00    +0.000 C 
ATOM      8  C   UNL     1      -2.037  12.359  23.076  0.00  0.00    +0.000 C 
ATOM      9  C   UNL     1      -3.498  12.585  22.636  0.00  0.00    +0.000 C 
ATOM     10  C   UNL     1      -3.608  13.224  21.245  0.00  0.00    +0.000 C 
ATOM     11  C   UNL     1      -2.823  12.441  20.190  0.00  0.00    +0.000 C 
ATOM     12  C   UNL     1      -1.395  12.205  20.639  0.00  0.00    +0.000 C 
ATOM     13  N   UNL     1       1.443  10.089  20.456  0.00  0.00    +0.000 N 
ATOM     14  H   UNL     1       2.330  10.581  20.527  0.00  0.00    +0.000 HD
ENDROOT
BRANCH   1  19
ATOM     15 CL   UNL     1       4.687   4.410  18.527  0.00  0.00    +0.000 Cl
ATOM     16  C   UNL     1       3.680   5.793  18.682  0.00  0.00    +0.000 A 
ATOM     17  C   UNL     1       2.892   5.928  19.806  0.00  0.00    +0.000 A 
ATOM     18  C   UNL     1       2.090   7.059  19.935  0.00  0.00    +0.000 A 
ATOM     19  C   UNL     1       2.099   8.118  18.992  0.00  0.00    +0.000 A 
ATOM     20  C   UNL     1       2.882   7.937  17.846  0.00  0.00    +0.000 A 
ATOM     21  C   UNL     1       3.660   6.775  17.690  0.00  0.00    +0.000 A 
ENDBRANCH   1  19
BRANCH   3  22
ATOM     22  C   UNL     1      -1.731  10.818  17.823  0.00  0.00    +0.000 A 
ATOM     23  C   UNL     1      -2.621   9.750  18.056  0.00  0.00    +0.000 A 
ATOM     24  C   UNL     1      -3.735   9.561  17.253  0.00  0.00    +0.000 A 
ATOM     25  C   UNL     1      -3.959  10.427  16.170  0.00  0.00    +0.000 A 
ATOM     26  C   UNL     1      -3.088  11.483  15.929  0.00  0.00    +0.000 A 
ATOM     27  C   UNL     1      -1.977  11.684  16.752  0.00  0.00    +0.000 A 
ENDBRANCH   3  22
TORSDOF 2
ENDMDL
MODEL 7
REMARK VINA RESULT:      -7.3      3.753      8.416
REMARK  Name = 
REMARK  2 active torsions:
REMARK  status: ('A' for Active; 'I' for Inactive)
REMARK    1  A    between atoms: C_5  and  C_6
REMARK    2  A    between atoms: C_8  and  C_9
REMARK                            x       y       z     vdW  Elec       q    Type
REMARK                         _______ _______ _______ _____ _____    ______ ____
ROOT
ATOM      1  C   UNL     1       1.513   9.882  18.600  0.00  0.00    +0.000 C 
ATOM      2  C   UNL     1       0.472  10.218  19.374  0.00  0.00    +0.000 C 
ATOM      3  C   UNL     1      -0.206  11.542  19.225  0.00  0.00    +0.000 C 
ATOM      4  N   UNL     1       0.823  12.510  19.000  0.00  0.00    +0.000 N 
ATOM      5  C   UNL     1       1.985  12.220  18.301  0.00  0.00    +0.000 C 
ATOM      6  N   UNL     1       2.810  13.241  18.136  0.00  0.00    +0.000 NA
ATOM      7  C   UNL     1       2.189  14.198  19.126  0.00  0.00    +0.000 C 
ATOM      8  C   UNL     1       2.535  15.665  19.051  0.00  0.00    +0.000 C 
ATOM      9  C   UNL     1       1.767  16.390  20.176  0.00  0.00    +0.000 C 
ATOM     10  C   UNL     1       0.254  16.144  20.117  0.00  0.00    +0.000 C 
ATOM     11  C   UNL     1      -0.084  14.652  20.081  0.00  0.00    +0.000 C 
ATOM     12  C   UNL     1       0.688  13.945  18.986  0.00  0.00    +0.000 C 
ATOM     13  N   UNL     1       2.155  10.905  17.903  0.00  0.00    +0.000 N 
ATOM     14  H   UNL     1       2.138  10.775  16.895  0.00  0.00    +0.000 HD
ENDROOT
BRANCH   1  19
ATOM     15 CL   UNL     1       3.857   4.387  19.422  0.00  0.00    +0.000 Cl
ATOM     16  C   UNL     1       3.143   5.922  19.131  0.00  0.00    +0.000 A 
ATOM     17  C   UNL     1       2.326   6.477  20.095  0.00  0.00    +0.000 A 
ATOM     18  C   UNL     1       1.763   7.729  19.862  0.00  0.00    +0.000 A 
ATOM     19  C   UNL     1       2.048   8.496  18.703  0.00  0.00    +0.000 A 
ATOM     20  C   UNL     1       2.852   7.893  17.729  0.00  0.00    +0.000 A 
ATOM     21  C   UNL     1       3.388   6.609  17.941  0.00  0.00    +0.000 A 
ENDBRANCH   1  19
BRANCH   3  22
ATOM     22  C   UNL     1      -1.043  11.761  20.468  0.00  0.00    +0.000 A 
ATOM     23  C   UNL     1      -2.329  12.335  20.398  0.00  0.00    +0.000 A 
ATOM     24  C   UNL     1      -3.034  12.651  21.549  0.00  0.00    +0.000 A 
ATOM     25  C   UNL     1      -2.442  12.427  22.802  0.00  0.00    +0.000 A 
ATOM     26  C   UNL     1      -1.173  11.865  22.886  0.00  0.00    +0.000 A 
ATOM     27  C   UNL     1      -0.473  11.528  21.725  0.00  0.00    +0.000 A 
ENDBRANCH   3  22
TORSDOF 2
ENDMDL
MODEL 8
REMARK VINA RESULT:      -7.3      4.027      8.965
REMARK  Name = 
REMARK  2 active torsions:
REMARK  status: ('A' for Active; 'I' for Inactive)
REMARK    1  A    between atoms: C_5  and  C_6
REMARK    2  A    between atoms: C_8  and  C_9
REMARK                            x       y       z     vdW  Elec       q    Type
REMARK                         _______ _______ _______ _____ _____    ______ ____
ROOT
ATOM      1  C   UNL     1       0.888  10.559  18.788  0.00  0.00    +0.000 C 
ATOM      2  C   UNL     1      -0.160  10.879  19.558  0.00  0.00    +0.000 C 
ATOM      3  C   UNL     1      -0.877  12.181  19.386  0.00  0.00    +0.000 C 
ATOM      4  N   UNL     1       0.124  13.173  19.142  0.00  0.00    +0.000 N 
ATOM      5  C   UNL     1       1.293  12.904  18.446  0.00  0.00    +0.000 C 
ATOM      6  N   UNL     1       2.088  13.945  18.261  0.00  0.00    +0.000 NA
ATOM      7  C   UNL     1       1.441  14.902  19.234  0.00  0.00    +0.000 C 
ATOM      8  C   UNL     1       1.745  16.377  19.132  0.00  0.00    +0.000 C 
ATOM      9  C   UNL     1       0.958  17.099  20.246  0.00  0.00    +0.000 C 
ATOM     10  C   UNL     1      -0.547  16.809  20.194  0.00  0.00    +0.000 C 
ATOM     11  C   UNL     1      -0.843  15.308  20.186  0.00  0.00    +0.000 C 
ATOM     12  C   UNL     1      -0.052  14.603  19.103  0.00  0.00    +0.000 C 
ATOM     13  N   UNL     1       1.499  11.588  18.071  0.00  0.00    +0.000 N 
ATOM     14  H   UNL     1       1.485  11.439  17.065  0.00  0.00    +0.000 HD
ENDROOT
BRANCH   1  19
ATOM     15 CL   UNL     1       3.440   5.168  19.671  0.00  0.00    +0.000 Cl
ATOM     16  C   UNL     1       2.660   6.669  19.371  0.00  0.00    +0.000 A 
ATOM     17  C   UNL     1       1.957   7.277  20.391  0.00  0.00    +0.000 A 
ATOM     18  C   UNL     1       1.341   8.501  20.148  0.00  0.00    +0.000 A 
ATOM     19  C   UNL     1       1.463   9.191  18.915  0.00  0.00    +0.000 A 
ATOM     20  C   UNL     1       2.153   8.534  17.889  0.00  0.00    +0.000 A 
ATOM     21  C   UNL     1       2.740   7.275  18.117  0.00  0.00    +0.000 A 
ENDBRANCH   1  19
BRANCH   3  22
ATOM     22  C   UNL     1      -1.717  12.398  20.627  0.00  0.00    +0.000 A 
ATOM     23  C   UNL     1      -1.203  12.149  21.916  0.00  0.00    +0.000 A 
ATOM     24  C   UNL     1      -2.017  12.225  23.036  0.00  0.00    +0.000 A 
ATOM     25  C   UNL     1      -3.380  12.520  22.879  0.00  0.00    +0.000 A 
ATOM     26  C   UNL     1      -3.900  12.766  21.613  0.00  0.00    +0.000 A 
ATOM     27  C   UNL     1      -3.074  12.709  20.488  0.00  0.00    +0.000 A 
ENDBRANCH   3  22
TORSDOF 2
ENDMDL
MODEL 9
REMARK VINA RESULT:      -7.2      3.835      8.720
REMARK  Name = 
REMARK  2 active torsions:
REMARK  status: ('A' for Active; 'I' for Inactive)
REMARK    1  A    between atoms: C_5  and  C_6
REMARK    2  A    between atoms: C_8  and  C_9
REMARK                            x       y       z     vdW  Elec       q    Type
REMARK                         _______ _______ _______ _____ _____    ______ ____
ROOT
ATOM      1  C   UNL     1       1.171  10.122  18.810  0.00  0.00    +0.000 C 
ATOM      2  C   UNL     1       0.105  10.453  19.551  0.00  0.00    +0.000 C 
ATOM      3  C   UNL     1      -0.639  11.728  19.309  0.00  0.00    +0.000 C 
ATOM      4  N   UNL     1       0.342  12.731  19.030  0.00  0.00    +0.000 N 
ATOM      5  C   UNL     1       1.527  12.458  18.364  0.00  0.00    +0.000 C 
ATOM      6  N   UNL     1       2.300  13.507  18.139  0.00  0.00    +0.000 NA
ATOM      7  C   UNL     1       1.618  14.493  19.058  0.00  0.00    +0.000 C 
ATOM      8  C   UNL     1       1.889  15.968  18.891  0.00  0.00    +0.000 C 
ATOM      9  C   UNL     1       1.071  16.723  19.959  0.00  0.00    +0.000 C 
ATOM     10  C   UNL     1      -0.427  16.396  19.902  0.00  0.00    +0.000 C 
ATOM     11  C   UNL     1      -0.688  14.889  19.960  0.00  0.00    +0.000 C 
ATOM     12  C   UNL     1       0.134  14.153  18.922  0.00  0.00    +0.000 C 
ATOM     13  N   UNL     1       1.768  11.130  18.054  0.00  0.00    +0.000 N 
ATOM     14  H   UNL     1       1.772  10.934  17.056  0.00  0.00    +0.000 HD
ENDROOT
BRANCH   1  19
ATOM     15 CL   UNL     1       3.394   4.534  19.238  0.00  0.00    +0.000 Cl
ATOM     16  C   UNL     1       2.817   6.150  19.167  0.00  0.00    +0.000 A 
ATOM     17  C   UNL     1       2.969   6.867  17.998  0.00  0.00    +0.000 A 
ATOM     18  C   UNL     1       2.485   8.171  17.940  0.00  0.00    +0.000 A 
ATOM     19  C   UNL     1       1.775   8.775  19.009  0.00  0.00    +0.000 A 
ATOM     20  C   UNL     1       1.666   8.036  20.193  0.00  0.00    +0.000 A 
ATOM     21  C   UNL     1       2.194   6.734  20.271  0.00  0.00    +0.000 A 
ENDBRANCH   1  19
BRANCH   3  22
ATOM     22  C   UNL     1      -1.501  11.983  20.527  0.00  0.00    +0.000 A 
ATOM     23  C   UNL     1      -2.824  12.457  20.406  0.00  0.00    +0.000 A 
ATOM     24  C   UNL     1      -3.561  12.811  21.525  0.00  0.00    +0.000 A 
ATOM     25  C   UNL     1      -2.968  12.729  22.795  0.00  0.00    +0.000 A 
ATOM     26  C   UNL     1      -1.664  12.265  22.928  0.00  0.00    +0.000 A 
ATOM     27  C   UNL     1      -0.930  11.890  21.800  0.00  0.00    +0.000 A 
ENDBRANCH   3  22
TORSDOF 2
ENDMDL
