MODEL 1
REMARK VINA RESULT:      -6.2      0.000      0.000
REMARK  Name = 
REMARK  14 active torsions:
REMARK  status: ('A' for Active; 'I' for Inactive)
REMARK    1  A    between atoms: C_1  and  C_2
REMARK    2  A    between atoms: C_2  and  C_3
REMARK    3  A    between atoms: C_2  and  C_4
REMARK    4  A    between atoms: C_6  and  C_7
REMARK    5  A    between atoms: C_13  and  C_14
REMARK    6  A    between atoms: C_19  and  C_20
REMARK    7  A    between atoms: C_21  and  C_22
REMARK    8  A    between atoms: C_22  and  O_23
REMARK    9  A    between atoms: C_22  and  C_24
REMARK   10  A    between atoms: C_24  and  C_25
REMARK   11  A    between atoms: C_25  and  O_26
REMARK   12  A    between atoms: C_25  and  C_27
REMARK   13  A    between atoms: C_27  and  C_28
REMARK   14  A    between atoms: C_28  and  O_30
REMARK                            x       y       z     vdW  Elec       q    Type
REMARK                         _______ _______ _______ _____ _____    ______ ____
ROOT
ATOM      1  C   UNL     1       3.112   7.147  18.418  0.00  0.00    +0.000 A 
ATOM      2  S   UNL     1       2.847   8.598  17.557  0.00  0.00    +0.000 S 
ATOM      3  C   UNL     1       1.868   9.300  18.788  0.00  0.00    +0.000 A 
ATOM      4  C   UNL     1       1.726   8.414  19.859  0.00  0.00    +0.000 A 
ATOM      5  C   UNL     1       2.477   7.192  19.650  0.00  0.00    +0.000 A 
ENDROOT
BRANCH   3   6
ATOM      6  C   UNL     1       1.386  10.692  18.575  0.00  0.00    +0.000 A 
ATOM      7  C   UNL     1       0.021  11.021  18.651  0.00  0.00    +0.000 A 
ATOM      8  C   UNL     1      -0.417  12.344  18.530  0.00  0.00    +0.000 A 
ATOM      9  C   UNL     1       0.506  13.372  18.364  0.00  0.00    +0.000 A 
ATOM     10  C   UNL     1       1.857  13.070  18.250  0.00  0.00    +0.000 A 
ATOM     11  C   UNL     1       2.283  11.739  18.308  0.00  0.00    +0.000 A 
ENDBRANCH   3   6
BRANCH   4  12
ATOM     12  C   UNL     1       0.897   8.713  21.099  0.00  0.00    +0.000 A 
ATOM     13  C   UNL     1       1.375   9.330  22.240  0.00  0.00    +0.000 A 
ATOM     14  C   UNL     1       0.428   9.326  23.306  0.00  0.00    +0.000 A 
ATOM     15  C   UNL     1      -0.778   8.791  22.918  0.00  0.00    +0.000 A 
ATOM     16  S   UNL     1      -0.756   8.294  21.284  0.00  0.00    +0.000 S 
ENDBRANCH   4  12
BRANCH   1  18
ATOM     17  C   UNL     1       4.344   6.378  16.370  0.00  0.00    +0.000 C 
ATOM     18  C   UNL     1       3.912   6.010  17.793  0.00  0.00    +0.000 C 
ATOM     19  C   UNL     1       5.133   5.578  18.613  0.00  0.00    +0.000 C 
ENDBRANCH   1  18
BRANCH   5  20
ATOM     20  C   UNL     1       2.532   6.092  20.569  0.00  0.00    +0.000 C 
ATOM     21  C   UNL     1       1.949   4.903  20.364  0.00  0.00    +0.000 C 
BRANCH  21  22
ATOM     22  C   UNL     1       1.977   3.788  21.371  0.00  0.00    +0.000 C 
BRANCH  22  23
ATOM     23  O   UNL     1       0.763   3.048  21.266  0.00  0.00    +0.000 OA
ATOM     24  H   UNL     1       0.414   3.170  20.365  0.00  0.00    +0.000 HD
ENDBRANCH  22  23
BRANCH  22  25
ATOM     25  C   UNL     1       3.140   2.814  21.164  0.00  0.00    +0.000 C 
BRANCH  25  26
ATOM     26  C   UNL     1       3.649   2.764  19.717  0.00  0.00    +0.000 C 
BRANCH  26  27
ATOM     27  O   UNL     1       5.043   2.439  19.703  0.00  0.00    +0.000 OA
ATOM     28  H   UNL     1       5.392   2.509  20.609  0.00  0.00    +0.000 HD
ENDBRANCH  26  27
BRANCH  26  29
ATOM     29  C   UNL     1       2.912   1.730  18.869  0.00  0.00    +0.000 C 
BRANCH  29  30
ATOM     30  C   UNL     1       1.805   2.355  18.060  0.00  0.00    +0.000 C 
ATOM     31  O   UNL     1       0.619   2.297  18.342  0.00  0.00    +0.000 OA
BRANCH  30  32
ATOM     32  O   UNL     1       2.255   3.017  16.970  0.00  0.00    +0.000 OA
ATOM     33  H   UNL     1       2.787   3.812  17.167  0.00  0.00    +0.000 HD
ENDBRANCH  30  32
ENDBRANCH  29  30
ENDBRANCH  26  29
ENDBRANCH  25  26
ENDBRANCH  22  25
ENDBRANCH  21  22
ENDBRANCH   5  20
TORSDOF 12
ENDMDL
MODEL 2
REMARK VINA RESULT:      -6.1      1.075      1.686
REMARK  Name = 
REMARK  14 active torsions:
REMARK  status: ('A' for Active; 'I' for Inactive)
REMARK    1  A    between atoms: C_1  and  C_2
REMARK    2  A    between atoms: C_2  and  C_3
REMARK    3  A    between atoms: C_2  and  C_4
REMARK    4  A    between atoms: C_6  and  C_7
REMARK    5  A    between atoms: C_13  and  C_14
REMARK    6  A    between atoms: C_19  and  C_20
REMARK    7  A    between atoms: C_21  and  C_22
REMARK    8  A    between atoms: C_22  and  O_23
REMARK    9  A    between atoms: C_22  and  C_24
REMARK   10  A    between atoms: C_24  and  C_25
REMARK   11  A    between atoms: C_25  and  O_26
REMARK   12  A    between atoms: C_25  and  C_27
REMARK   13  A    between atoms: C_27  and  C_28
REMARK   14  A    between atoms: C_28  and  O_30
REMARK                            x       y       z     vdW  Elec       q    Type
REMARK                         _______ _______ _______ _____ _____    ______ ____
ROOT
ATOM      1  C   UNL     1       2.722   7.021  18.509  0.00  0.00    +0.000 A 
ATOM      2  S   UNL     1       2.355   8.458  17.663  0.00  0.00    +0.000 S 
ATOM      3  C   UNL     1       1.517   9.175  18.986  0.00  0.00    +0.000 A 
ATOM      4  C   UNL     1       1.501   8.303  20.079  0.00  0.00    +0.000 A 
ATOM      5  C   UNL     1       2.229   7.081  19.804  0.00  0.00    +0.000 A 
ENDROOT
BRANCH   3   6
ATOM      6  C   UNL     1       1.008  10.561  18.809  0.00  0.00    +0.000 A 
ATOM      7  C   UNL     1       1.880  11.657  18.679  0.00  0.00    +0.000 A 
ATOM      8  C   UNL     1       1.397  12.946  18.432  0.00  0.00    +0.000 A 
ATOM      9  C   UNL     1       0.032  13.162  18.277  0.00  0.00    +0.000 A 
ATOM     10  C   UNL     1      -0.853  12.103  18.437  0.00  0.00    +0.000 A 
ATOM     11  C   UNL     1      -0.369  10.828  18.746  0.00  0.00    +0.000 A 
ENDBRANCH   3   6
BRANCH   4  12
ATOM     12  C   UNL     1       0.816   8.618  21.400  0.00  0.00    +0.000 A 
ATOM     13  C   UNL     1      -0.529   8.429  21.659  0.00  0.00    +0.000 A 
ATOM     14  C   UNL     1      -0.930   8.971  22.916  0.00  0.00    +0.000 A 
ATOM     15  C   UNL     1       0.139   9.473  23.621  0.00  0.00    +0.000 A 
ATOM     16  S   UNL     1       1.606   9.294  22.764  0.00  0.00    +0.000 S 
ENDBRANCH   4  12
BRANCH   1  18
ATOM     17  C   UNL     1       2.450   4.917  17.165  0.00  0.00    +0.000 C 
ATOM     18  C   UNL     1       3.452   5.877  17.814  0.00  0.00    +0.000 C 
ATOM     19  C   UNL     1       4.486   6.331  16.777  0.00  0.00    +0.000 C 
ENDBRANCH   1  18
BRANCH   5  20
ATOM     20  C   UNL     1       2.394   5.994  20.726  0.00  0.00    +0.000 C 
ATOM     21  C   UNL     1       1.983   4.739  20.499  0.00  0.00    +0.000 C 
BRANCH  21  22
ATOM     22  C   UNL     1       2.119   3.634  21.508  0.00  0.00    +0.000 C 
BRANCH  22  23
ATOM     23  O   UNL     1       0.815   3.195  21.882  0.00  0.00    +0.000 OA
ATOM     24  H   UNL     1       0.906   2.343  22.345  0.00  0.00    +0.000 HD
ENDBRANCH  22  23
BRANCH  22  25
ATOM     25  C   UNL     1       2.888   2.421  20.978  0.00  0.00    +0.000 C 
BRANCH  25  26
ATOM     26  C   UNL     1       4.324   2.744  20.548  0.00  0.00    +0.000 C 
BRANCH  26  27
ATOM     27  O   UNL     1       5.222   1.757  21.068  0.00  0.00    +0.000 OA
ATOM     28  H   UNL     1       5.144   0.948  20.533  0.00  0.00    +0.000 HD
ENDBRANCH  26  27
BRANCH  26  29
ATOM     29  C   UNL     1       4.491   2.783  19.031  0.00  0.00    +0.000 C 
BRANCH  29  30
ATOM     30  C   UNL     1       3.789   1.630  18.362  0.00  0.00    +0.000 C 
ATOM     31  O   UNL     1       2.757   1.723  17.716  0.00  0.00    +0.000 OA
BRANCH  30  32
ATOM     32  O   UNL     1       4.427   0.450  18.532  0.00  0.00    +0.000 OA
ATOM     33  H   UNL     1       4.223  -0.007  19.370  0.00  0.00    +0.000 HD
ENDBRANCH  30  32
ENDBRANCH  29  30
ENDBRANCH  26  29
ENDBRANCH  25  26
ENDBRANCH  22  25
ENDBRANCH  21  22
ENDBRANCH   5  20
TORSDOF 12
ENDMDL
MODEL 3
REMARK VINA RESULT:      -5.9      3.847      7.635
REMARK  Name = 
REMARK  14 active torsions:
REMARK  status: ('A' for Active; 'I' for Inactive)
REMARK    1  A    between atoms: C_1  and  C_2
REMARK    2  A    between atoms: C_2  and  C_3
REMARK    3  A    between atoms: C_2  and  C_4
REMARK    4  A    between atoms: C_6  and  C_7
REMARK    5  A    between atoms: C_13  and  C_14
REMARK    6  A    between atoms: C_19  and  C_20
REMARK    7  A    between atoms: C_21  and  C_22
REMARK    8  A    between atoms: C_22  and  O_23
REMARK    9  A    between atoms: C_22  and  C_24
REMARK   10  A    between atoms: C_24  and  C_25
REMARK   11  A    between atoms: C_25  and  O_26
REMARK   12  A    between atoms: C_25  and  C_27
REMARK   13  A    between atoms: C_27  and  C_28
REMARK   14  A    between atoms: C_28  and  O_30
REMARK                            x       y       z     vdW  Elec       q    Type
REMARK                         _______ _______ _______ _____ _____    ______ ____
ROOT
ATOM      1  C   UNL     1       1.755   8.915  18.843  0.00  0.00    +0.000 A 
ATOM      2  S   UNL     1       2.821   8.339  17.640  0.00  0.00    +0.000 S 
ATOM      3  C   UNL     1       2.871   6.736  18.269  0.00  0.00    +0.000 A 
ATOM      4  C   UNL     1       2.081   6.643  19.418  0.00  0.00    +0.000 A 
ATOM      5  C   UNL     1       1.415   7.894  19.718  0.00  0.00    +0.000 A 
ENDROOT
BRANCH   3   6
ATOM      6  C   UNL     1       3.655   5.723  17.513  0.00  0.00    +0.000 A 
ATOM      7  C   UNL     1       4.687   6.095  16.633  0.00  0.00    +0.000 A 
ATOM      8  C   UNL     1       5.474   5.135  15.986  0.00  0.00    +0.000 A 
ATOM      9  C   UNL     1       5.267   3.782  16.234  0.00  0.00    +0.000 A 
ATOM     10  C   UNL     1       4.231   3.388  17.072  0.00  0.00    +0.000 A 
ATOM     11  C   UNL     1       3.407   4.350  17.665  0.00  0.00    +0.000 A 
ENDBRANCH   3   6
BRANCH   4  12
ATOM     12  C   UNL     1       1.929   5.369  20.237  0.00  0.00    +0.000 A 
ATOM     13  C   UNL     1       2.746   5.004  21.291  0.00  0.00    +0.000 A 
ATOM     14  C   UNL     1       2.482   3.683  21.760  0.00  0.00    +0.000 A 
ATOM     15  C   UNL     1       1.410   3.115  21.114  0.00  0.00    +0.000 A 
ATOM     16  S   UNL     1       0.738   4.169  19.950  0.00  0.00    +0.000 S 
ENDBRANCH   4  12
BRANCH   1  18
ATOM     17  C   UNL     1       2.286  11.222  18.008  0.00  0.00    +0.000 C 
ATOM     18  C   UNL     1       1.345  10.383  18.877  0.00  0.00    +0.000 C 
ATOM     19  C   UNL     1      -0.110  10.637  18.466  0.00  0.00    +0.000 C 
ENDBRANCH   1  18
BRANCH   5  20
ATOM     20  C   UNL     1       0.536   8.114  20.830  0.00  0.00    +0.000 C 
ATOM     21  C   UNL     1       0.807   8.926  21.861  0.00  0.00    +0.000 C 
BRANCH  21  22
ATOM     22  C   UNL     1      -0.109   9.094  23.040  0.00  0.00    +0.000 C 
BRANCH  22  23
ATOM     23  O   UNL     1       0.648   9.601  24.137  0.00  0.00    +0.000 OA
ATOM     24  H   UNL     1       0.606   8.948  24.858  0.00  0.00    +0.000 HD
ENDBRANCH  22  23
BRANCH  22  25
ATOM     25  C   UNL     1      -1.263  10.065  22.778  0.00  0.00    +0.000 C 
BRANCH  25  26
ATOM     26  C   UNL     1      -0.820  11.529  22.666  0.00  0.00    +0.000 C 
BRANCH  26  27
ATOM     27  O   UNL     1      -0.851  11.943  21.296  0.00  0.00    +0.000 OA
ATOM     28  H   UNL     1      -0.457  11.243  20.746  0.00  0.00    +0.000 HD
ENDBRANCH  26  27
BRANCH  26  29
ATOM     29  C   UNL     1      -1.710  12.477  23.467  0.00  0.00    +0.000 C 
BRANCH  29  30
ATOM     30  C   UNL     1      -3.157  12.360  23.063  0.00  0.00    +0.000 C 
ATOM     31  O   UNL     1      -3.583  12.549  21.935  0.00  0.00    +0.000 OA
BRANCH  30  32
ATOM     32  O   UNL     1      -3.966  12.003  24.087  0.00  0.00    +0.000 OA
ATOM     33  H   UNL     1      -4.116  11.043  24.172  0.00  0.00    +0.000 HD
ENDBRANCH  30  32
ENDBRANCH  29  30
ENDBRANCH  26  29
ENDBRANCH  25  26
ENDBRANCH  22  25
ENDBRANCH  21  22
ENDBRANCH   5  20
TORSDOF 12
ENDMDL
MODEL 4
REMARK VINA RESULT:      -5.9      3.919      7.532
REMARK  Name = 
REMARK  14 active torsions:
REMARK  status: ('A' for Active; 'I' for Inactive)
REMARK    1  A    between atoms: C_1  and  C_2
REMARK    2  A    between atoms: C_2  and  C_3
REMARK    3  A    between atoms: C_2  and  C_4
REMARK    4  A    between atoms: C_6  and  C_7
REMARK    5  A    between atoms: C_13  and  C_14
REMARK    6  A    between atoms: C_19  and  C_20
REMARK    7  A    between atoms: C_21  and  C_22
REMARK    8  A    between atoms: C_22  and  O_23
REMARK    9  A    between atoms: C_22  and  C_24
REMARK   10  A    between atoms: C_24  and  C_25
REMARK   11  A    between atoms: C_25  and  O_26
REMARK   12  A    between atoms: C_25  and  C_27
REMARK   13  A    between atoms: C_27  and  C_28
REMARK   14  A    between atoms: C_28  and  O_30
REMARK                            x       y       z     vdW  Elec       q    Type
REMARK                         _______ _______ _______ _____ _____    ______ ____
ROOT
ATOM      1  C   UNL     1       1.620   9.074  18.992  0.00  0.00    +0.000 A 
ATOM      2  S   UNL     1       2.689   8.543  17.771  0.00  0.00    +0.000 S 
ATOM      3  C   UNL     1       2.785   6.933  18.376  0.00  0.00    +0.000 A 
ATOM      4  C   UNL     1       2.008   6.803  19.531  0.00  0.00    +0.000 A 
ATOM      5  C   UNL     1       1.313   8.033  19.854  0.00  0.00    +0.000 A 
ENDROOT
BRANCH   3   6
ATOM      6  C   UNL     1       3.587   5.951  17.598  0.00  0.00    +0.000 A 
ATOM      7  C   UNL     1       3.276   4.579  17.597  0.00  0.00    +0.000 A 
ATOM      8  C   UNL     1       3.985   3.673  16.800  0.00  0.00    +0.000 A 
ATOM      9  C   UNL     1       4.998   4.125  15.961  0.00  0.00    +0.000 A 
ATOM     10  C   UNL     1       5.348   5.470  15.970  0.00  0.00    +0.000 A 
ATOM     11  C   UNL     1       4.678   6.361  16.816  0.00  0.00    +0.000 A 
ENDBRANCH   3   6
BRANCH   4  12
ATOM     12  C   UNL     1       1.896   5.514  20.332  0.00  0.00    +0.000 A 
ATOM     13  C   UNL     1       2.784   5.113  21.313  0.00  0.00    +0.000 A 
ATOM     14  C   UNL     1       2.532   3.787  21.774  0.00  0.00    +0.000 A 
ATOM     15  C   UNL     1       1.404   3.250  21.200  0.00  0.00    +0.000 A 
ATOM     16  S   UNL     1       0.665   4.340  20.111  0.00  0.00    +0.000 S 
ENDBRANCH   4  12
BRANCH   1  18
ATOM     17  C   UNL     1       2.212  11.437  18.384  0.00  0.00    +0.000 C 
ATOM     18  C   UNL     1       1.173  10.531  19.051  0.00  0.00    +0.000 C 
ATOM     19  C   UNL     1      -0.210  10.787  18.442  0.00  0.00    +0.000 C 
ENDBRANCH   1  18
BRANCH   5  20
ATOM     20  C   UNL     1       0.440   8.214  20.978  0.00  0.00    +0.000 C 
ATOM     21  C   UNL     1       0.491   9.258  21.816  0.00  0.00    +0.000 C 
BRANCH  21  22
ATOM     22  C   UNL     1      -0.401   9.393  23.018  0.00  0.00    +0.000 C 
BRANCH  22  23
ATOM     23  O   UNL     1       0.413   9.427  24.189  0.00  0.00    +0.000 OA
ATOM     24  H   UNL     1       0.885  10.278  24.202  0.00  0.00    +0.000 HD
ENDBRANCH  22  23
BRANCH  22  25
ATOM     25  C   UNL     1      -1.251  10.666  23.002  0.00  0.00    +0.000 C 
BRANCH  25  26
ATOM     26  C   UNL     1      -0.851  11.658  21.901  0.00  0.00    +0.000 C 
BRANCH  26  27
ATOM     27  O   UNL     1      -1.964  11.895  21.032  0.00  0.00    +0.000 OA
ATOM     28  H   UNL     1      -2.573  11.138  21.086  0.00  0.00    +0.000 HD
ENDBRANCH  26  27
BRANCH  26  29
ATOM     29  C   UNL     1      -0.391  13.002  22.459  0.00  0.00    +0.000 C 
BRANCH  29  30
ATOM     30  C   UNL     1       0.511  13.729  21.496  0.00  0.00    +0.000 C 
ATOM     31  O   UNL     1       0.335  13.792  20.290  0.00  0.00    +0.000 OA
BRANCH  30  32
ATOM     32  O   UNL     1       1.557  14.335  22.103  0.00  0.00    +0.000 OA
ATOM     33  H   UNL     1       2.409  14.242  21.637  0.00  0.00    +0.000 HD
ENDBRANCH  30  32
ENDBRANCH  29  30
ENDBRANCH  26  29
ENDBRANCH  25  26
ENDBRANCH  22  25
ENDBRANCH  21  22
ENDBRANCH   5  20
TORSDOF 12
ENDMDL
MODEL 5
REMARK VINA RESULT:      -5.8      3.863      7.561
REMARK  Name = 
REMARK  14 active torsions:
REMARK  status: ('A' for Active; 'I' for Inactive)
REMARK    1  A    between atoms: C_1  and  C_2
REMARK    2  A    between atoms: C_2  and  C_3
REMARK    3  A    between atoms: C_2  and  C_4
REMARK    4  A    between atoms: C_6  and  C_7
REMARK    5  A    between atoms: C_13  and  C_14
REMARK    6  A    between atoms: C_19  and  C_20
REMARK    7  A    between atoms: C_21  and  C_22
REMARK    8  A    between atoms: C_22  and  O_23
REMARK    9  A    between atoms: C_22  and  C_24
REMARK   10  A    between atoms: C_24  and  C_25
REMARK   11  A    between atoms: C_25  and  O_26
REMARK   12  A    between atoms: C_25  and  C_27
REMARK   13  A    between atoms: C_27  and  C_28
REMARK   14  A    between atoms: C_28  and  O_30
REMARK                            x       y       z     vdW  Elec       q    Type
REMARK                         _______ _______ _______ _____ _____    ______ ____
ROOT
ATOM      1  C   UNL     1       1.746   8.936  18.950  0.00  0.00    +0.000 A 
ATOM      2  S   UNL     1       2.809   8.398  17.726  0.00  0.00    +0.000 S 
ATOM      3  C   UNL     1       2.888   6.785  18.326  0.00  0.00    +0.000 A 
ATOM      4  C   UNL     1       2.111   6.659  19.481  0.00  0.00    +0.000 A 
ATOM      5  C   UNL     1       1.429   7.895  19.809  0.00  0.00    +0.000 A 
ENDROOT
BRANCH   3   6
ATOM      6  C   UNL     1       3.680   5.798  17.544  0.00  0.00    +0.000 A 
ATOM      7  C   UNL     1       3.363   4.427  17.549  0.00  0.00    +0.000 A 
ATOM      8  C   UNL     1       4.061   3.516  16.750  0.00  0.00    +0.000 A 
ATOM      9  C   UNL     1       5.069   3.961  15.901  0.00  0.00    +0.000 A 
ATOM     10  C   UNL     1       5.425   5.305  15.903  0.00  0.00    +0.000 A 
ATOM     11  C   UNL     1       4.767   6.200  16.752  0.00  0.00    +0.000 A 
ENDBRANCH   3   6
BRANCH   4  12
ATOM     12  C   UNL     1       1.987   5.369  20.278  0.00  0.00    +0.000 A 
ATOM     13  C   UNL     1       2.894   4.933  21.226  0.00  0.00    +0.000 A 
ATOM     14  C   UNL     1       2.618   3.613  21.687  0.00  0.00    +0.000 A 
ATOM     15  C   UNL     1       1.455   3.115  21.149  0.00  0.00    +0.000 A 
ATOM     16  S   UNL     1       0.713   4.235  20.093  0.00  0.00    +0.000 S 
ENDBRANCH   4  12
BRANCH   1  18
ATOM     17  C   UNL     1       2.260  11.272  18.186  0.00  0.00    +0.000 C 
ATOM     18  C   UNL     1       1.314  10.397  19.014  0.00  0.00    +0.000 C 
ATOM     19  C   UNL     1      -0.136  10.642  18.581  0.00  0.00    +0.000 C 
ENDBRANCH   1  18
BRANCH   5  20
ATOM     20  C   UNL     1       0.559   8.081  20.934  0.00  0.00    +0.000 C 
ATOM     21  C   UNL     1       0.640   9.106  21.794  0.00  0.00    +0.000 C 
BRANCH  21  22
ATOM     22  C   UNL     1      -0.250   9.246  22.995  0.00  0.00    +0.000 C 
BRANCH  22  23
ATOM     23  O   UNL     1       0.543   9.660  24.106  0.00  0.00    +0.000 OA
ATOM     24  H   UNL     1       0.894   8.862  24.538  0.00  0.00    +0.000 HD
ENDBRANCH  22  23
BRANCH  22  25
ATOM     25  C   UNL     1      -1.367  10.276  22.806  0.00  0.00    +0.000 C 
BRANCH  25  26
ATOM     26  C   UNL     1      -0.930  11.716  23.106  0.00  0.00    +0.000 C 
BRANCH  26  27
ATOM     27  O   UNL     1      -0.061  12.187  22.070  0.00  0.00    +0.000 OA
ATOM     28  H   UNL     1       0.001  11.505  21.378  0.00  0.00    +0.000 HD
ENDBRANCH  26  27
BRANCH  26  29
ATOM     29  C   UNL     1      -2.110  12.680  23.208  0.00  0.00    +0.000 C 
BRANCH  29  30
ATOM     30  C   UNL     1      -3.005  12.599  21.999  0.00  0.00    +0.000 C 
ATOM     31  O   UNL     1      -2.641  12.785  20.849  0.00  0.00    +0.000 OA
BRANCH  30  32
ATOM     32  O   UNL     1      -4.283  12.279  22.306  0.00  0.00    +0.000 OA
ATOM     33  H   UNL     1      -4.633  11.499  21.835  0.00  0.00    +0.000 HD
ENDBRANCH  30  32
ENDBRANCH  29  30
ENDBRANCH  26  29
ENDBRANCH  25  26
ENDBRANCH  22  25
ENDBRANCH  21  22
ENDBRANCH   5  20
TORSDOF 12
ENDMDL
MODEL 6
REMARK VINA RESULT:      -5.7      4.064      7.690
REMARK  Name = 
REMARK  14 active torsions:
REMARK  status: ('A' for Active; 'I' for Inactive)
REMARK    1  A    between atoms: C_1  and  C_2
REMARK    2  A    between atoms: C_2  and  C_3
REMARK    3  A    between atoms: C_2  and  C_4
REMARK    4  A    between atoms: C_6  and  C_7
REMARK    5  A    between atoms: C_13  and  C_14
REMARK    6  A    between atoms: C_19  and  C_20
REMARK    7  A    between atoms: C_21  and  C_22
REMARK    8  A    between atoms: C_22  and  O_23
REMARK    9  A    between atoms: C_22  and  C_24
REMARK   10  A    between atoms: C_24  and  C_25
REMARK   11  A    between atoms: C_25  and  O_26
REMARK   12  A    between atoms: C_25  and  C_27
REMARK   13  A    between atoms: C_27  and  C_28
REMARK   14  A    between atoms: C_28  and  O_30
REMARK                            x       y       z     vdW  Elec       q    Type
REMARK                         _______ _______ _______ _____ _____    ______ ____
ROOT
ATOM      1  C   UNL     1       1.682   9.134  18.962  0.00  0.00    +0.000 A 
ATOM      2  S   UNL     1       2.750   8.589  17.747  0.00  0.00    +0.000 S 
ATOM      3  C   UNL     1       2.826   6.979  18.356  0.00  0.00    +0.000 A 
ATOM      4  C   UNL     1       2.043   6.861  19.508  0.00  0.00    +0.000 A 
ATOM      5  C   UNL     1       1.361   8.099  19.826  0.00  0.00    +0.000 A 
ENDROOT
BRANCH   3   6
ATOM      6  C   UNL     1       3.621   5.987  17.584  0.00  0.00    +0.000 A 
ATOM      7  C   UNL     1       3.318   4.614  17.615  0.00  0.00    +0.000 A 
ATOM      8  C   UNL     1       4.018   3.697  16.824  0.00  0.00    +0.000 A 
ATOM      9  C   UNL     1       5.014   4.138  15.959  0.00  0.00    +0.000 A 
ATOM     10  C   UNL     1       5.357   5.484  15.936  0.00  0.00    +0.000 A 
ATOM     11  C   UNL     1       4.697   6.387  16.776  0.00  0.00    +0.000 A 
ENDBRANCH   3   6
BRANCH   4  12
ATOM     12  C   UNL     1       1.915   5.576  20.313  0.00  0.00    +0.000 A 
ATOM     13  C   UNL     1       2.784   5.176  21.311  0.00  0.00    +0.000 A 
ATOM     14  C   UNL     1       2.522   3.853  21.772  0.00  0.00    +0.000 A 
ATOM     15  C   UNL     1       1.403   3.316  21.180  0.00  0.00    +0.000 A 
ATOM     16  S   UNL     1       0.686   4.403  20.075  0.00  0.00    +0.000 S 
ENDBRANCH   4  12
BRANCH   1  18
ATOM     17  C   UNL     1       2.272  11.483  18.296  0.00  0.00    +0.000 C 
ATOM     18  C   UNL     1       1.250  10.596  19.015  0.00  0.00    +0.000 C 
ATOM     19  C   UNL     1      -0.152  10.857  18.455  0.00  0.00    +0.000 C 
ENDBRANCH   1  18
BRANCH   5  20
ATOM     20  C   UNL     1       0.485   8.293  20.946  0.00  0.00    +0.000 C 
ATOM     21  C   UNL     1       0.588   9.301  21.822  0.00  0.00    +0.000 C 
BRANCH  21  22
ATOM     22  C   UNL     1      -0.310   9.447  23.018  0.00  0.00    +0.000 C 
BRANCH  22  23
ATOM     23  O   UNL     1       0.490   9.404  24.198  0.00  0.00    +0.000 OA
ATOM     24  H   UNL     1      -0.094   9.555  24.962  0.00  0.00    +0.000 HD
ENDBRANCH  22  23
BRANCH  22  25
ATOM     25  C   UNL     1      -1.094  10.763  23.031  0.00  0.00    +0.000 C 
BRANCH  25  26
ATOM     26  C   UNL     1      -0.911  11.598  21.757  0.00  0.00    +0.000 C 
BRANCH  26  27
ATOM     27  O   UNL     1      -2.188  11.877  21.171  0.00  0.00    +0.000 OA
ATOM     28  H   UNL     1      -2.071  12.017  20.215  0.00  0.00    +0.000 HD
ENDBRANCH  26  27
BRANCH  26  29
ATOM     29  C   UNL     1      -0.211  12.929  22.022  0.00  0.00    +0.000 C 
BRANCH  29  30
ATOM     30  C   UNL     1      -1.079  13.870  22.816  0.00  0.00    +0.000 C 
ATOM     31  O   UNL     1      -0.934  14.118  24.002  0.00  0.00    +0.000 OA
BRANCH  30  32
ATOM     32  O   UNL     1      -2.054  14.444  22.075  0.00  0.00    +0.000 OA
ATOM     33  H   UNL     1      -2.406  15.278  22.441  0.00  0.00    +0.000 HD
ENDBRANCH  30  32
ENDBRANCH  29  30
ENDBRANCH  26  29
ENDBRANCH  25  26
ENDBRANCH  22  25
ENDBRANCH  21  22
ENDBRANCH   5  20
TORSDOF 12
ENDMDL
MODEL 7
REMARK VINA RESULT:      -5.6      6.262      9.257
REMARK  Name = 
REMARK  14 active torsions:
REMARK  status: ('A' for Active; 'I' for Inactive)
REMARK    1  A    between atoms: C_1  and  C_2
REMARK    2  A    between atoms: C_2  and  C_3
REMARK    3  A    between atoms: C_2  and  C_4
REMARK    4  A    between atoms: C_6  and  C_7
REMARK    5  A    between atoms: C_13  and  C_14
REMARK    6  A    between atoms: C_19  and  C_20
REMARK    7  A    between atoms: C_21  and  C_22
REMARK    8  A    between atoms: C_22  and  O_23
REMARK    9  A    between atoms: C_22  and  C_24
REMARK   10  A    between atoms: C_24  and  C_25
REMARK   11  A    between atoms: C_25  and  O_26
REMARK   12  A    between atoms: C_25  and  C_27
REMARK   13  A    between atoms: C_27  and  C_28
REMARK   14  A    between atoms: C_28  and  O_30
REMARK                            x       y       z     vdW  Elec       q    Type
REMARK                         _______ _______ _______ _____ _____    ______ ____
ROOT
ATOM      1  C   UNL     1      -4.844  11.893  18.602  0.00  0.00    +0.000 A 
ATOM      2  S   UNL     1      -5.101  12.731  20.068  0.00  0.00    +0.000 S 
ATOM      3  C   UNL     1      -3.423  12.864  20.435  0.00  0.00    +0.000 A 
ATOM      4  C   UNL     1      -2.660  12.247  19.440  0.00  0.00    +0.000 A 
ATOM      5  C   UNL     1      -3.487  11.723  18.372  0.00  0.00    +0.000 A 
ENDROOT
BRANCH   3   6
ATOM      6  C   UNL     1      -3.043  13.621  21.658  0.00  0.00    +0.000 A 
ATOM      7  C   UNL     1      -3.249  13.095  22.946  0.00  0.00    +0.000 A 
ATOM      8  C   UNL     1      -2.816  13.776  24.088  0.00  0.00    +0.000 A 
ATOM      9  C   UNL     1      -2.137  14.984  23.965  0.00  0.00    +0.000 A 
ATOM     10  C   UNL     1      -1.953  15.543  22.706  0.00  0.00    +0.000 A 
ATOM     11  C   UNL     1      -2.444  14.887  21.572  0.00  0.00    +0.000 A 
ENDBRANCH   3   6
BRANCH   4  12
ATOM     12  C   UNL     1      -1.141  12.159  19.474  0.00  0.00    +0.000 A 
ATOM     13  C   UNL     1      -0.416  11.273  20.250  0.00  0.00    +0.000 A 
ATOM     14  C   UNL     1       0.986  11.530  20.215  0.00  0.00    +0.000 A 
ATOM     15  C   UNL     1       1.299  12.543  19.340  0.00  0.00    +0.000 A 
ATOM     16  S   UNL     1      -0.092  13.178  18.578  0.00  0.00    +0.000 S 
ENDBRANCH   4  12
BRANCH   1  18
ATOM     17  C   UNL     1      -6.922  10.482  18.607  0.00  0.00    +0.000 C 
ATOM     18  C   UNL     1      -6.026  11.403  17.772  0.00  0.00    +0.000 C 
ATOM     19  C   UNL     1      -6.865  12.526  17.153  0.00  0.00    +0.000 C 
ENDBRANCH   1  18
BRANCH   5  20
ATOM     20  C   UNL     1      -2.998  11.038  17.210  0.00  0.00    +0.000 C 
ATOM     21  C   UNL     1      -3.594  11.061  16.010  0.00  0.00    +0.000 C 
BRANCH  21  22
ATOM     22  C   UNL     1      -3.088  10.288  14.826  0.00  0.00    +0.000 C 
BRANCH  22  23
ATOM     23  O   UNL     1      -2.569   9.040  15.283  0.00  0.00    +0.000 OA
ATOM     24  H   UNL     1      -2.138   9.191  16.143  0.00  0.00    +0.000 HD
ENDBRANCH  22  23
BRANCH  22  25
ATOM     25  C   UNL     1      -4.172   9.992  13.786  0.00  0.00    +0.000 C 
BRANCH  25  26
ATOM     26  C   UNL     1      -3.672  10.076  12.338  0.00  0.00    +0.000 C 
BRANCH  26  27
ATOM     27  O   UNL     1      -2.316   9.621  12.264  0.00  0.00    +0.000 OA
ATOM     28  H   UNL     1      -1.763  10.188  12.830  0.00  0.00    +0.000 HD
ENDBRANCH  26  27
BRANCH  26  29
ATOM     29  C   UNL     1      -4.508   9.233  11.377  0.00  0.00    +0.000 C 
BRANCH  29  30
ATOM     30  C   UNL     1      -5.984   9.450  11.581  0.00  0.00    +0.000 C 
ATOM     31  O   UNL     1      -6.732   8.666  12.145  0.00  0.00    +0.000 OA
BRANCH  30  32
ATOM     32  O   UNL     1      -6.420  10.629  11.084  0.00  0.00    +0.000 OA
ATOM     33  H   UNL     1      -6.651  11.296  11.759  0.00  0.00    +0.000 HD
ENDBRANCH  30  32
ENDBRANCH  29  30
ENDBRANCH  26  29
ENDBRANCH  25  26
ENDBRANCH  22  25
ENDBRANCH  21  22
ENDBRANCH   5  20
TORSDOF 12
ENDMDL
MODEL 8
REMARK VINA RESULT:      -5.6      6.497      9.411
REMARK  Name = 
REMARK  14 active torsions:
REMARK  status: ('A' for Active; 'I' for Inactive)
REMARK    1  A    between atoms: C_1  and  C_2
REMARK    2  A    between atoms: C_2  and  C_3
REMARK    3  A    between atoms: C_2  and  C_4
REMARK    4  A    between atoms: C_6  and  C_7
REMARK    5  A    between atoms: C_13  and  C_14
REMARK    6  A    between atoms: C_19  and  C_20
REMARK    7  A    between atoms: C_21  and  C_22
REMARK    8  A    between atoms: C_22  and  O_23
REMARK    9  A    between atoms: C_22  and  C_24
REMARK   10  A    between atoms: C_24  and  C_25
REMARK   11  A    between atoms: C_25  and  O_26
REMARK   12  A    between atoms: C_25  and  C_27
REMARK   13  A    between atoms: C_27  and  C_28
REMARK   14  A    between atoms: C_28  and  O_30
REMARK                            x       y       z     vdW  Elec       q    Type
REMARK                         _______ _______ _______ _____ _____    ______ ____
ROOT
ATOM      1  C   UNL     1      -2.883  11.772  18.105  0.00  0.00    +0.000 A 
ATOM      2  S   UNL     1      -4.499  11.689  18.651  0.00  0.00    +0.000 S 
ATOM      3  C   UNL     1      -4.183  12.541  20.115  0.00  0.00    +0.000 A 
ATOM      4  C   UNL     1      -2.828  12.877  20.196  0.00  0.00    +0.000 A 
ATOM      5  C   UNL     1      -2.098  12.460  19.017  0.00  0.00    +0.000 A 
ENDROOT
BRANCH   3   6
ATOM      6  C   UNL     1      -5.338  12.833  21.005  0.00  0.00    +0.000 A 
ATOM      7  C   UNL     1      -5.229  12.755  22.405  0.00  0.00    +0.000 A 
ATOM      8  C   UNL     1      -6.295  13.108  23.239  0.00  0.00    +0.000 A 
ATOM      9  C   UNL     1      -7.483  13.580  22.691  0.00  0.00    +0.000 A 
ATOM     10  C   UNL     1      -7.629  13.633  21.310  0.00  0.00    +0.000 A 
ATOM     11  C   UNL     1      -6.582  13.218  20.481  0.00  0.00    +0.000 A 
ENDBRANCH   3   6
BRANCH   4  12
ATOM     12  C   UNL     1      -2.210  13.609  21.378  0.00  0.00    +0.000 A 
ATOM     13  C   UNL     1      -1.558  13.000  22.434  0.00  0.00    +0.000 A 
ATOM     14  C   UNL     1      -1.235  13.912  23.482  0.00  0.00    +0.000 A 
ATOM     15  C   UNL     1      -1.564  15.206  23.154  0.00  0.00    +0.000 A 
ATOM     16  S   UNL     1      -2.262  15.310  21.598  0.00  0.00    +0.000 S 
ENDBRANCH   4  12
BRANCH   1  18
ATOM     17  C   UNL     1      -1.819   9.740  17.081  0.00  0.00    +0.000 C 
ATOM     18  C   UNL     1      -2.471  11.098  16.801  0.00  0.00    +0.000 C 
ATOM     19  C   UNL     1      -3.613  10.930  15.793  0.00  0.00    +0.000 C 
ENDBRANCH   1  18
BRANCH   5  20
ATOM     20  C   UNL     1      -0.693  12.664  18.803  0.00  0.00    +0.000 C 
ATOM     21  C   UNL     1       0.271  11.883  19.309  0.00  0.00    +0.000 C 
BRANCH  21  22
ATOM     22  C   UNL     1       1.736  12.154  19.114  0.00  0.00    +0.000 C 
BRANCH  22  23
ATOM     23  O   UNL     1       2.034  12.066  17.722  0.00  0.00    +0.000 OA
ATOM     24  H   UNL     1       2.889  11.609  17.627  0.00  0.00    +0.000 HD
ENDBRANCH  22  23
BRANCH  22  25
ATOM     25  C   UNL     1       2.167  13.541  19.600  0.00  0.00    +0.000 C 
BRANCH  25  26
ATOM     26  C   UNL     1       2.235  14.588  18.481  0.00  0.00    +0.000 C 
BRANCH  26  27
ATOM     27  O   UNL     1       1.291  15.634  18.735  0.00  0.00    +0.000 OA
ATOM     28  H   UNL     1       1.775  16.437  18.999  0.00  0.00    +0.000 HD
ENDBRANCH  26  27
BRANCH  26  29
ATOM     29  C   UNL     1       3.619  15.220  18.351  0.00  0.00    +0.000 C 
BRANCH  29  30
ATOM     30  C   UNL     1       3.557  16.724  18.428  0.00  0.00    +0.000 C 
ATOM     31  O   UNL     1       3.842  17.383  19.415  0.00  0.00    +0.000 OA
BRANCH  30  32
ATOM     32  O   UNL     1       3.160  17.298  17.269  0.00  0.00    +0.000 OA
ATOM     33  H   UNL     1       3.249  16.729  16.481  0.00  0.00    +0.000 HD
ENDBRANCH  30  32
ENDBRANCH  29  30
ENDBRANCH  26  29
ENDBRANCH  25  26
ENDBRANCH  22  25
ENDBRANCH  21  22
ENDBRANCH   5  20
TORSDOF 12
ENDMDL
MODEL 9
REMARK VINA RESULT:      -5.6      7.695     11.220
REMARK  Name = 
REMARK  14 active torsions:
REMARK  status: ('A' for Active; 'I' for Inactive)
REMARK    1  A    between atoms: C_1  and  C_2
REMARK    2  A    between atoms: C_2  and  C_3
REMARK    3  A    between atoms: C_2  and  C_4
REMARK    4  A    between atoms: C_6  and  C_7
REMARK    5  A    between atoms: C_13  and  C_14
REMARK    6  A    between atoms: C_19  and  C_20
REMARK    7  A    between atoms: C_21  and  C_22
REMARK    8  A    between atoms: C_22  and  O_23
REMARK    9  A    between atoms: C_22  and  C_24
REMARK   10  A    between atoms: C_24  and  C_25
REMARK   11  A    between atoms: C_25  and  O_26
REMARK   12  A    between atoms: C_25  and  C_27
REMARK   13  A    between atoms: C_27  and  C_28
REMARK   14  A    between atoms: C_28  and  O_30
REMARK                            x       y       z     vdW  Elec       q    Type
REMARK                         _______ _______ _______ _____ _____    ______ ____
ROOT
ATOM      1  C   UNL     1      -6.122  12.606  20.850  0.00  0.00    +0.000 A 
ATOM      2  S   UNL     1      -6.047  11.924  19.286  0.00  0.00    +0.000 S 
ATOM      3  C   UNL     1      -4.327  11.977  19.205  0.00  0.00    +0.000 A 
ATOM      4  C   UNL     1      -3.804  12.536  20.375  0.00  0.00    +0.000 A 
ATOM      5  C   UNL     1      -4.845  12.861  21.329  0.00  0.00    +0.000 A 
ENDROOT
BRANCH   3   6
ATOM      6  C   UNL     1      -3.676  11.401  17.998  0.00  0.00    +0.000 A 
ATOM      7  C   UNL     1      -2.507  10.625  18.089  0.00  0.00    +0.000 A 
ATOM      8  C   UNL     1      -1.945  10.020  16.960  0.00  0.00    +0.000 A 
ATOM      9  C   UNL     1      -2.561  10.150  15.719  0.00  0.00    +0.000 A 
ATOM     10  C   UNL     1      -3.697  10.941  15.596  0.00  0.00    +0.000 A 
ATOM     11  C   UNL     1      -4.217  11.595  16.718  0.00  0.00    +0.000 A 
ENDBRANCH   3   6
BRANCH   4  12
ATOM     12  C   UNL     1      -2.318  12.754  20.615  0.00  0.00    +0.000 A 
ATOM     13  C   UNL     1      -1.565  13.765  20.048  0.00  0.00    +0.000 A 
ATOM     14  C   UNL     1      -0.170  13.626  20.309  0.00  0.00    +0.000 A 
ATOM     15  C   UNL     1       0.091  12.567  21.147  0.00  0.00    +0.000 A 
ATOM     16  S   UNL     1      -1.339  11.750  21.603  0.00  0.00    +0.000 S 
ENDBRANCH   4  12
BRANCH   1  18
ATOM     17  C   UNL     1      -7.540  12.242  22.890  0.00  0.00    +0.000 C 
ATOM     18  C   UNL     1      -7.467  12.895  21.506  0.00  0.00    +0.000 C 
ATOM     19  C   UNL     1      -7.804  14.386  21.614  0.00  0.00    +0.000 C 
ENDBRANCH   1  18
BRANCH   5  20
ATOM     20  C   UNL     1      -4.626  13.445  22.621  0.00  0.00    +0.000 C 
ATOM     21  C   UNL     1      -4.404  14.749  22.835  0.00  0.00    +0.000 C 
BRANCH  21  22
ATOM     22  C   UNL     1      -4.122  15.324  24.194  0.00  0.00    +0.000 C 
BRANCH  22  23
ATOM     23  O   UNL     1      -3.947  14.250  25.116  0.00  0.00    +0.000 OA
ATOM     24  H   UNL     1      -4.529  13.519  24.840  0.00  0.00    +0.000 HD
ENDBRANCH  22  23
BRANCH  22  25
ATOM     25  C   UNL     1      -2.860  16.189  24.237  0.00  0.00    +0.000 C 
BRANCH  25  26
ATOM     26  C   UNL     1      -1.873  15.780  25.338  0.00  0.00    +0.000 C 
BRANCH  26  27
ATOM     27  O   UNL     1      -0.866  14.920  24.794  0.00  0.00    +0.000 OA
ATOM     28  H   UNL     1      -0.759  14.150  25.380  0.00  0.00    +0.000 HD
ENDBRANCH  26  27
BRANCH  26  29
ATOM     29  C   UNL     1      -1.177  16.978  25.979  0.00  0.00    +0.000 C 
BRANCH  29  30
ATOM     30  C   UNL     1      -0.216  16.555  27.059  0.00  0.00    +0.000 C 
ATOM     31  O   UNL     1       0.730  15.801  26.894  0.00  0.00    +0.000 OA
BRANCH  30  32
ATOM     32  O   UNL     1      -0.491  17.111  28.261  0.00  0.00    +0.000 OA
ATOM     33  H   UNL     1      -1.370  16.887  28.622  0.00  0.00    +0.000 HD
ENDBRANCH  30  32
ENDBRANCH  29  30
ENDBRANCH  26  29
ENDBRANCH  25  26
ENDBRANCH  22  25
ENDBRANCH  21  22
ENDBRANCH   5  20
TORSDOF 12
ENDMDL
