MODEL 1
REMARK VINA RESULT:      -7.1      0.000      0.000
REMARK  Name = 
REMARK  7 active torsions:
REMARK  status: ('A' for Active; 'I' for Inactive)
REMARK    1  A    between atoms: C_2  and  C_3
REMARK    2  A    between atoms: C_3  and  C_4
REMARK    3  A    between atoms: C_4  and  C_5
REMARK    4  A    between atoms: C_5  and  C_6
REMARK    5  A    between atoms: C_6  and  C_8
REMARK    6  A    between atoms: N_14  and  C_15
REMARK    7  A    between atoms: C_18  and  O_19
REMARK                            x       y       z     vdW  Elec       q    Type
REMARK                         _______ _______ _______ _____ _____    ______ ____
ROOT
ATOM      1  O   UNL     1       0.530   4.859  20.376  0.00  0.00    +0.000 OA
ATOM      2  C   UNL     1       1.692   4.985  20.751  0.00  0.00    +0.000 C 
ATOM      3  N   UNL     1       2.512   6.071  20.498  0.00  0.00    +0.000 N 
ATOM      4  H   UNL     1       3.498   5.976  20.706  0.00  0.00    +0.000 HD
ENDROOT
BRANCH   3   5
ATOM      5  C   UNL     1       2.119   7.267  19.853  0.00  0.00    +0.000 A 
ATOM      6  C   UNL     1       1.414   8.284  20.504  0.00  0.00    +0.000 A 
ATOM      7  C   UNL     1       1.066   9.459  19.833  0.00  0.00    +0.000 A 
ATOM      8  C   UNL     1       1.421   9.614  18.501  0.00  0.00    +0.000 A 
ATOM      9  C   UNL     1       2.119   8.615  17.833  0.00  0.00    +0.000 A 
ATOM     10  C   UNL     1       2.477   7.443  18.511  0.00  0.00    +0.000 A 
BRANCH   8  11
ATOM     11  O   UNL     1       1.103  10.747  17.814  0.00  0.00    +0.000 OA
ATOM     12  H   UNL     1       0.140  10.777  17.698  0.00  0.00    +0.000 HD
ENDBRANCH   8  11
ENDBRANCH   3   5
BRANCH   2  13
ATOM     13  C   UNL     1       2.372   3.893  21.561  0.00  0.00    +0.000 C 
BRANCH  13  14
ATOM     14  C   UNL     1       2.068   2.498  21.006  0.00  0.00    +0.000 C 
BRANCH  14  15
ATOM     15  C   UNL     1       2.674   2.303  19.612  0.00  0.00    +0.000 C 
BRANCH  15  16
ATOM     16  C   UNL     1       4.157   2.619  19.566  0.00  0.00    +0.000 C 
ATOM     17  O   UNL     1       4.979   2.063  20.291  0.00  0.00    +0.000 OA
BRANCH  16  18
ATOM     18  C   UNL     1       4.606   3.708  18.651  0.00  0.00    +0.000 A 
ATOM     19  C   UNL     1       5.515   4.654  19.143  0.00  0.00    +0.000 A 
ATOM     20  C   UNL     1       5.936   5.711  18.336  0.00  0.00    +0.000 A 
ATOM     21  C   UNL     1       5.463   5.822  17.029  0.00  0.00    +0.000 A 
ATOM     22  C   UNL     1       4.570   4.874  16.527  0.00  0.00    +0.000 A 
ATOM     23  C   UNL     1       4.141   3.820  17.335  0.00  0.00    +0.000 A 
ENDBRANCH  16  18
ENDBRANCH  15  16
ENDBRANCH  14  15
ENDBRANCH  13  14
ENDBRANCH   2  13
TORSDOF 7
ENDMDL
MODEL 2
REMARK VINA RESULT:      -7.1      0.842      1.357
REMARK  Name = 
REMARK  7 active torsions:
REMARK  status: ('A' for Active; 'I' for Inactive)
REMARK    1  A    between atoms: C_2  and  C_3
REMARK    2  A    between atoms: C_3  and  C_4
REMARK    3  A    between atoms: C_4  and  C_5
REMARK    4  A    between atoms: C_5  and  C_6
REMARK    5  A    between atoms: C_6  and  C_8
REMARK    6  A    between atoms: N_14  and  C_15
REMARK    7  A    between atoms: C_18  and  O_19
REMARK                            x       y       z     vdW  Elec       q    Type
REMARK                         _______ _______ _______ _____ _____    ______ ____
ROOT
ATOM      1  O   UNL     1       0.705   4.470  20.169  0.00  0.00    +0.000 OA
ATOM      2  C   UNL     1       1.762   4.665  20.760  0.00  0.00    +0.000 C 
ATOM      3  N   UNL     1       2.567   5.785  20.635  0.00  0.00    +0.000 N 
ATOM      4  H   UNL     1       3.495   5.746  21.037  0.00  0.00    +0.000 HD
ENDROOT
BRANCH   3   5
ATOM      5  C   UNL     1       2.256   6.942  19.883  0.00  0.00    +0.000 A 
ATOM      6  C   UNL     1       2.625   7.097  18.543  0.00  0.00    +0.000 A 
ATOM      7  C   UNL     1       2.277   8.249  17.832  0.00  0.00    +0.000 A 
ATOM      8  C   UNL     1       1.560   9.252  18.468  0.00  0.00    +0.000 A 
ATOM      9  C   UNL     1       1.185   9.120  19.800  0.00  0.00    +0.000 A 
ATOM     10  C   UNL     1       1.525   7.960  20.507  0.00  0.00    +0.000 A 
BRANCH   8  11
ATOM     11  O   UNL     1       1.198  10.387  17.807  0.00  0.00    +0.000 OA
ATOM     12  H   UNL     1       0.633  10.917  18.391  0.00  0.00    +0.000 HD
ENDBRANCH   8  11
ENDBRANCH   3   5
BRANCH   2  13
ATOM     13  C   UNL     1       2.317   3.631  21.727  0.00  0.00    +0.000 C 
BRANCH  13  14
ATOM     14  C   UNL     1       2.679   2.323  21.015  0.00  0.00    +0.000 C 
BRANCH  14  15
ATOM     15  C   UNL     1       3.983   2.457  20.223  0.00  0.00    +0.000 C 
BRANCH  15  16
ATOM     16  C   UNL     1       3.752   2.733  18.749  0.00  0.00    +0.000 C 
ATOM     17  O   UNL     1       3.023   2.036  18.047  0.00  0.00    +0.000 OA
BRANCH  16  18
ATOM     18  C   UNL     1       4.511   3.857  18.127  0.00  0.00    +0.000 A 
ATOM     19  C   UNL     1       5.395   4.585  18.934  0.00  0.00    +0.000 A 
ATOM     20  C   UNL     1       6.100   5.667  18.405  0.00  0.00    +0.000 A 
ATOM     21  C   UNL     1       5.937   6.018  17.066  0.00  0.00    +0.000 A 
ATOM     22  C   UNL     1       5.071   5.287  16.252  0.00  0.00    +0.000 A 
ATOM     23  C   UNL     1       4.358   4.209  16.780  0.00  0.00    +0.000 A 
ENDBRANCH  16  18
ENDBRANCH  15  16
ENDBRANCH  14  15
ENDBRANCH  13  14
ENDBRANCH   2  13
TORSDOF 7
ENDMDL
MODEL 3
REMARK VINA RESULT:      -6.7      3.680      5.685
REMARK  Name = 
REMARK  7 active torsions:
REMARK  status: ('A' for Active; 'I' for Inactive)
REMARK    1  A    between atoms: C_2  and  C_3
REMARK    2  A    between atoms: C_3  and  C_4
REMARK    3  A    between atoms: C_4  and  C_5
REMARK    4  A    between atoms: C_5  and  C_6
REMARK    5  A    between atoms: C_6  and  C_8
REMARK    6  A    between atoms: N_14  and  C_15
REMARK    7  A    between atoms: C_18  and  O_19
REMARK                            x       y       z     vdW  Elec       q    Type
REMARK                         _______ _______ _______ _____ _____    ______ ____
ROOT
ATOM      1  O   UNL     1       5.221   5.839  19.713  0.00  0.00    +0.000 OA
ATOM      2  C   UNL     1       5.843   4.890  19.244  0.00  0.00    +0.000 C 
ATOM      3  N   UNL     1       5.321   3.641  18.956  0.00  0.00    +0.000 N 
ATOM      4  H   UNL     1       5.971   2.896  18.744  0.00  0.00    +0.000 HD
ENDROOT
BRANCH   3   5
ATOM      5  C   UNL     1       3.958   3.276  19.055  0.00  0.00    +0.000 A 
ATOM      6  C   UNL     1       3.395   2.755  20.224  0.00  0.00    +0.000 A 
ATOM      7  C   UNL     1       2.036   2.429  20.283  0.00  0.00    +0.000 A 
ATOM      8  C   UNL     1       1.240   2.622  19.164  0.00  0.00    +0.000 A 
ATOM      9  C   UNL     1       1.779   3.137  17.991  0.00  0.00    +0.000 A 
ATOM     10  C   UNL     1       3.138   3.473  17.937  0.00  0.00    +0.000 A 
BRANCH   8  11
ATOM     11  O   UNL     1      -0.088   2.321  19.184  0.00  0.00    +0.000 OA
ATOM     12  H   UNL     1      -0.498   2.679  18.381  0.00  0.00    +0.000 HD
ENDBRANCH   8  11
ENDBRANCH   3   5
BRANCH   2  13
ATOM     13  C   UNL     1       7.327   5.008  18.934  0.00  0.00    +0.000 C 
BRANCH  13  14
ATOM     14  C   UNL     1       7.630   4.681  17.468  0.00  0.00    +0.000 C 
BRANCH  14  15
ATOM     15  C   UNL     1       7.250   5.841  16.543  0.00  0.00    +0.000 C 
BRANCH  15  16
ATOM     16  C   UNL     1       6.040   5.534  15.680  0.00  0.00    +0.000 C 
ATOM     17  O   UNL     1       4.888   5.756  16.044  0.00  0.00    +0.000 OA
BRANCH  16  18
ATOM     18  C   UNL     1       6.277   4.863  14.369  0.00  0.00    +0.000 A 
ATOM     19  C   UNL     1       7.417   5.222  13.637  0.00  0.00    +0.000 A 
ATOM     20  C   UNL     1       7.662   4.647  12.390  0.00  0.00    +0.000 A 
ATOM     21  C   UNL     1       6.778   3.701  11.872  0.00  0.00    +0.000 A 
ATOM     22  C   UNL     1       5.650   3.326  12.603  0.00  0.00    +0.000 A 
ATOM     23  C   UNL     1       5.398   3.905  13.848  0.00  0.00    +0.000 A 
ENDBRANCH  16  18
ENDBRANCH  15  16
ENDBRANCH  14  15
ENDBRANCH  13  14
ENDBRANCH   2  13
TORSDOF 7
ENDMDL
MODEL 4
REMARK VINA RESULT:      -6.7      4.788      7.426
REMARK  Name = 
REMARK  7 active torsions:
REMARK  status: ('A' for Active; 'I' for Inactive)
REMARK    1  A    between atoms: C_2  and  C_3
REMARK    2  A    between atoms: C_3  and  C_4
REMARK    3  A    between atoms: C_4  and  C_5
REMARK    4  A    between atoms: C_5  and  C_6
REMARK    5  A    between atoms: C_6  and  C_8
REMARK    6  A    between atoms: N_14  and  C_15
REMARK    7  A    between atoms: C_18  and  O_19
REMARK                            x       y       z     vdW  Elec       q    Type
REMARK                         _______ _______ _______ _____ _____    ______ ____
ROOT
ATOM      1  O   UNL     1       7.168   5.392  19.964  0.00  0.00    +0.000 OA
ATOM      2  C   UNL     1       6.714   5.525  18.832  0.00  0.00    +0.000 C 
ATOM      3  N   UNL     1       5.452   5.137  18.413  0.00  0.00    +0.000 N 
ATOM      4  H   UNL     1       5.265   5.138  17.419  0.00  0.00    +0.000 HD
ENDROOT
BRANCH   3   5
ATOM      5  C   UNL     1       4.434   4.615  19.245  0.00  0.00    +0.000 A 
ATOM      6  C   UNL     1       3.412   5.405  19.780  0.00  0.00    +0.000 A 
ATOM      7  C   UNL     1       2.413   4.842  20.579  0.00  0.00    +0.000 A 
ATOM      8  C   UNL     1       2.440   3.482  20.846  0.00  0.00    +0.000 A 
ATOM      9  C   UNL     1       3.448   2.678  20.327  0.00  0.00    +0.000 A 
ATOM     10  C   UNL     1       4.441   3.242  19.517  0.00  0.00    +0.000 A 
BRANCH   8  11
ATOM     11  O   UNL     1       1.482   2.896  21.617  0.00  0.00    +0.000 OA
ATOM     12  H   UNL     1       1.192   2.079  21.181  0.00  0.00    +0.000 HD
ENDBRANCH   8  11
ENDBRANCH   3   5
BRANCH   2  13
ATOM     13  C   UNL     1       7.548   6.152  17.726  0.00  0.00    +0.000 C 
BRANCH  13  14
ATOM     14  C   UNL     1       7.360   7.671  17.663  0.00  0.00    +0.000 C 
BRANCH  14  15
ATOM     15  C   UNL     1       8.470   8.407  18.419  0.00  0.00    +0.000 C 
BRANCH  15  16
ATOM     16  C   UNL     1       8.460   9.904  18.169  0.00  0.00    +0.000 C 
ATOM     17  O   UNL     1       7.667  10.447  17.404  0.00  0.00    +0.000 OA
BRANCH  16  18
ATOM     18  C   UNL     1       9.517  10.724  18.831  0.00  0.00    +0.000 A 
ATOM     19  C   UNL     1      10.555  11.230  18.038  0.00  0.00    +0.000 A 
ATOM     20  C   UNL     1      11.584  11.972  18.617  0.00  0.00    +0.000 A 
ATOM     21  C   UNL     1      11.575  12.225  19.989  0.00  0.00    +0.000 A 
ATOM     22  C   UNL     1      10.536  11.739  20.781  0.00  0.00    +0.000 A 
ATOM     23  C   UNL     1       9.508  10.989  20.206  0.00  0.00    +0.000 A 
ENDBRANCH  16  18
ENDBRANCH  15  16
ENDBRANCH  14  15
ENDBRANCH  13  14
ENDBRANCH   2  13
TORSDOF 7
ENDMDL
MODEL 5
REMARK VINA RESULT:      -6.5      2.338      4.639
REMARK  Name = 
REMARK  7 active torsions:
REMARK  status: ('A' for Active; 'I' for Inactive)
REMARK    1  A    between atoms: C_2  and  C_3
REMARK    2  A    between atoms: C_3  and  C_4
REMARK    3  A    between atoms: C_4  and  C_5
REMARK    4  A    between atoms: C_5  and  C_6
REMARK    5  A    between atoms: C_6  and  C_8
REMARK    6  A    between atoms: N_14  and  C_15
REMARK    7  A    between atoms: C_18  and  O_19
REMARK                            x       y       z     vdW  Elec       q    Type
REMARK                         _______ _______ _______ _____ _____    ______ ____
ROOT
ATOM      1  O   UNL     1       4.253   2.954  17.419  0.00  0.00    +0.000 OA
ATOM      2  C   UNL     1       4.509   2.957  18.619  0.00  0.00    +0.000 C 
ATOM      3  N   UNL     1       5.370   3.830  19.262  0.00  0.00    +0.000 N 
ATOM      4  H   UNL     1       5.633   3.616  20.216  0.00  0.00    +0.000 HD
ENDROOT
BRANCH   3   5
ATOM      5  C   UNL     1       6.021   4.934  18.664  0.00  0.00    +0.000 A 
ATOM      6  C   UNL     1       5.558   5.545  17.494  0.00  0.00    +0.000 A 
ATOM      7  C   UNL     1       6.221   6.649  16.950  0.00  0.00    +0.000 A 
ATOM      8  C   UNL     1       7.355   7.140  17.579  0.00  0.00    +0.000 A 
ATOM      9  C   UNL     1       7.834   6.547  18.741  0.00  0.00    +0.000 A 
ATOM     10  C   UNL     1       7.163   5.449  19.290  0.00  0.00    +0.000 A 
BRANCH   8  11
ATOM     11  O   UNL     1       8.026   8.217  17.082  0.00  0.00    +0.000 OA
ATOM     12  H   UNL     1       8.043   8.910  17.760  0.00  0.00    +0.000 HD
ENDBRANCH   8  11
ENDBRANCH   3   5
BRANCH   2  13
ATOM     13  C   UNL     1       3.878   1.937  19.554  0.00  0.00    +0.000 C 
BRANCH  13  14
ATOM     14  C   UNL     1       3.364   2.587  20.842  0.00  0.00    +0.000 C 
BRANCH  14  15
ATOM     15  C   UNL     1       1.834   2.667  20.859  0.00  0.00    +0.000 C 
BRANCH  15  16
ATOM     16  C   UNL     1       1.269   3.407  19.661  0.00  0.00    +0.000 C 
ATOM     17  O   UNL     1       0.582   2.859  18.803  0.00  0.00    +0.000 OA
BRANCH  16  18
ATOM     18  C   UNL     1       1.641   4.843  19.495  0.00  0.00    +0.000 A 
ATOM     19  C   UNL     1       1.642   5.662  20.632  0.00  0.00    +0.000 A 
ATOM     20  C   UNL     1       1.949   7.018  20.520  0.00  0.00    +0.000 A 
ATOM     21  C   UNL     1       2.269   7.561  19.276  0.00  0.00    +0.000 A 
ATOM     22  C   UNL     1       2.286   6.748  18.143  0.00  0.00    +0.000 A 
ATOM     23  C   UNL     1       1.972   5.391  18.250  0.00  0.00    +0.000 A 
ENDBRANCH  16  18
ENDBRANCH  15  16
ENDBRANCH  14  15
ENDBRANCH  13  14
ENDBRANCH   2  13
TORSDOF 7
ENDMDL
MODEL 6
REMARK VINA RESULT:      -6.5      5.136      7.827
REMARK  Name = 
REMARK  7 active torsions:
REMARK  status: ('A' for Active; 'I' for Inactive)
REMARK    1  A    between atoms: C_2  and  C_3
REMARK    2  A    between atoms: C_3  and  C_4
REMARK    3  A    between atoms: C_4  and  C_5
REMARK    4  A    between atoms: C_5  and  C_6
REMARK    5  A    between atoms: C_6  and  C_8
REMARK    6  A    between atoms: N_14  and  C_15
REMARK    7  A    between atoms: C_18  and  O_19
REMARK                            x       y       z     vdW  Elec       q    Type
REMARK                         _______ _______ _______ _____ _____    ______ ____
ROOT
ATOM      1  O   UNL     1       5.115   6.851  17.627  0.00  0.00    +0.000 OA
ATOM      2  C   UNL     1       6.064   6.099  17.827  0.00  0.00    +0.000 C 
ATOM      3  N   UNL     1       5.980   4.757  18.158  0.00  0.00    +0.000 N 
ATOM      4  H   UNL     1       6.825   4.296  18.470  0.00  0.00    +0.000 HD
ENDROOT
BRANCH   3   5
ATOM      5  C   UNL     1       4.789   3.998  18.220  0.00  0.00    +0.000 A 
ATOM      6  C   UNL     1       3.978   3.765  17.105  0.00  0.00    +0.000 A 
ATOM      7  C   UNL     1       2.820   2.989  17.209  0.00  0.00    +0.000 A 
ATOM      8  C   UNL     1       2.470   2.448  18.437  0.00  0.00    +0.000 A 
ATOM      9  C   UNL     1       3.259   2.669  19.559  0.00  0.00    +0.000 A 
ATOM     10  C   UNL     1       4.425   3.437  19.451  0.00  0.00    +0.000 A 
BRANCH   8  11
ATOM     11  O   UNL     1       1.352   1.683  18.577  0.00  0.00    +0.000 OA
ATOM     12  H   UNL     1       1.446   1.143  19.377  0.00  0.00    +0.000 HD
ENDBRANCH   8  11
ENDBRANCH   3   5
BRANCH   2  13
ATOM     13  C   UNL     1       7.494   6.608  17.734  0.00  0.00    +0.000 C 
BRANCH  13  14
ATOM     14  C   UNL     1       7.545   8.117  17.475  0.00  0.00    +0.000 C 
BRANCH  14  15
ATOM     15  C   UNL     1       8.523   8.818  18.423  0.00  0.00    +0.000 C 
BRANCH  15  16
ATOM     16  C   UNL     1       8.658  10.302  18.138  0.00  0.00    +0.000 C 
ATOM     17  O   UNL     1       7.872  10.917  17.420  0.00  0.00    +0.000 OA
BRANCH  16  18
ATOM     18  C   UNL     1       9.845  11.011  18.698  0.00  0.00    +0.000 A 
ATOM     19  C   UNL     1       9.901  11.214  20.083  0.00  0.00    +0.000 A 
ATOM     20  C   UNL     1      10.974  11.903  20.649  0.00  0.00    +0.000 A 
ATOM     21  C   UNL     1      12.004  12.380  19.838  0.00  0.00    +0.000 A 
ATOM     22  C   UNL     1      11.962  12.166  18.460  0.00  0.00    +0.000 A 
ATOM     23  C   UNL     1      10.886  11.484  17.889  0.00  0.00    +0.000 A 
ENDBRANCH  16  18
ENDBRANCH  15  16
ENDBRANCH  14  15
ENDBRANCH  13  14
ENDBRANCH   2  13
TORSDOF 7
ENDMDL
MODEL 7
REMARK VINA RESULT:      -6.5      1.671      3.733
REMARK  Name = 
REMARK  7 active torsions:
REMARK  status: ('A' for Active; 'I' for Inactive)
REMARK    1  A    between atoms: C_2  and  C_3
REMARK    2  A    between atoms: C_3  and  C_4
REMARK    3  A    between atoms: C_4  and  C_5
REMARK    4  A    between atoms: C_5  and  C_6
REMARK    5  A    between atoms: C_6  and  C_8
REMARK    6  A    between atoms: N_14  and  C_15
REMARK    7  A    between atoms: C_18  and  O_19
REMARK                            x       y       z     vdW  Elec       q    Type
REMARK                         _______ _______ _______ _____ _____    ______ ____
ROOT
ATOM      1  O   UNL     1       4.969   7.254  17.331  0.00  0.00    +0.000 OA
ATOM      2  C   UNL     1       4.183   6.317  17.430  0.00  0.00    +0.000 C 
ATOM      3  N   UNL     1       2.934   6.366  18.025  0.00  0.00    +0.000 N 
ATOM      4  H   UNL     1       2.461   5.488  18.201  0.00  0.00    +0.000 HD
ENDROOT
BRANCH   3   5
ATOM      5  C   UNL     1       2.307   7.529  18.529  0.00  0.00    +0.000 A 
ATOM      6  C   UNL     1       1.966   8.618  17.720  0.00  0.00    +0.000 A 
ATOM      7  C   UNL     1       1.327   9.739  18.258  0.00  0.00    +0.000 A 
ATOM      8  C   UNL     1       1.032   9.771  19.613  0.00  0.00    +0.000 A 
ATOM      9  C   UNL     1       1.365   8.701  20.435  0.00  0.00    +0.000 A 
ATOM     10  C   UNL     1       1.995   7.575  19.893  0.00  0.00    +0.000 A 
BRANCH   8  11
ATOM     11  O   UNL     1       0.406  10.843  20.172  0.00  0.00    +0.000 OA
ATOM     12  H   UNL     1       0.108  11.432  19.461  0.00  0.00    +0.000 HD
ENDBRANCH   8  11
ENDBRANCH   3   5
BRANCH   2  13
ATOM     13  C   UNL     1       4.538   4.942  16.887  0.00  0.00    +0.000 C 
BRANCH  13  14
ATOM     14  C   UNL     1       5.641   4.272  17.712  0.00  0.00    +0.000 C 
BRANCH  14  15
ATOM     15  C   UNL     1       5.344   4.343  19.213  0.00  0.00    +0.000 C 
BRANCH  15  16
ATOM     16  C   UNL     1       4.620   3.113  19.729  0.00  0.00    +0.000 C 
ATOM     17  O   UNL     1       5.209   2.101  20.100  0.00  0.00    +0.000 OA
BRANCH  16  18
ATOM     18  C   UNL     1       3.129   3.124  19.702  0.00  0.00    +0.000 A 
ATOM     19  C   UNL     1       2.476   2.249  18.825  0.00  0.00    +0.000 A 
ATOM     20  C   UNL     1       1.083   2.248  18.740  0.00  0.00    +0.000 A 
ATOM     21  C   UNL     1       0.335   3.111  19.540  0.00  0.00    +0.000 A 
ATOM     22  C   UNL     1       0.978   3.974  20.427  0.00  0.00    +0.000 A 
ATOM     23  C   UNL     1       2.372   3.983  20.509  0.00  0.00    +0.000 A 
ENDBRANCH  16  18
ENDBRANCH  15  16
ENDBRANCH  14  15
ENDBRANCH  13  14
ENDBRANCH   2  13
TORSDOF 7
ENDMDL
MODEL 8
REMARK VINA RESULT:      -6.5      1.161      1.977
REMARK  Name = 
REMARK  7 active torsions:
REMARK  status: ('A' for Active; 'I' for Inactive)
REMARK    1  A    between atoms: C_2  and  C_3
REMARK    2  A    between atoms: C_3  and  C_4
REMARK    3  A    between atoms: C_4  and  C_5
REMARK    4  A    between atoms: C_5  and  C_6
REMARK    5  A    between atoms: C_6  and  C_8
REMARK    6  A    between atoms: N_14  and  C_15
REMARK    7  A    between atoms: C_18  and  O_19
REMARK                            x       y       z     vdW  Elec       q    Type
REMARK                         _______ _______ _______ _____ _____    ______ ____
ROOT
ATOM      1  O   UNL     1       0.701   4.525  20.065  0.00  0.00    +0.000 OA
ATOM      2  C   UNL     1       1.815   4.679  20.556  0.00  0.00    +0.000 C 
ATOM      3  N   UNL     1       2.610   5.806  20.427  0.00  0.00    +0.000 N 
ATOM      4  H   UNL     1       3.574   5.739  20.727  0.00  0.00    +0.000 HD
ENDROOT
BRANCH   3   5
ATOM      5  C   UNL     1       2.230   7.012  19.794  0.00  0.00    +0.000 A 
ATOM      6  C   UNL     1       2.542   7.300  18.461  0.00  0.00    +0.000 A 
ATOM      7  C   UNL     1       2.127   8.497  17.870  0.00  0.00    +0.000 A 
ATOM      8  C   UNL     1       1.400   9.411  18.618  0.00  0.00    +0.000 A 
ATOM      9  C   UNL     1       1.082   9.146  19.944  0.00  0.00    +0.000 A 
ATOM     10  C   UNL     1       1.489   7.942  20.532  0.00  0.00    +0.000 A 
BRANCH   8  11
ATOM     11  O   UNL     1       0.974  10.585  18.075  0.00  0.00    +0.000 OA
ATOM     12  H   UNL     1       0.441  10.387  17.290  0.00  0.00    +0.000 HD
ENDBRANCH   8  11
ENDBRANCH   3   5
BRANCH   2  13
ATOM     13  C   UNL     1       2.460   3.580  21.385  0.00  0.00    +0.000 C 
BRANCH  13  14
ATOM     14  C   UNL     1       3.117   2.513  20.504  0.00  0.00    +0.000 C 
BRANCH  14  15
ATOM     15  C   UNL     1       4.300   3.084  19.717  0.00  0.00    +0.000 C 
BRANCH  15  16
ATOM     16  C   UNL     1       3.973   3.327  18.255  0.00  0.00    +0.000 C 
ATOM     17  O   UNL     1       2.934   2.934  17.731  0.00  0.00    +0.000 OA
BRANCH  16  18
ATOM     18  C   UNL     1       5.005   4.004  17.417  0.00  0.00    +0.000 A 
ATOM     19  C   UNL     1       4.833   4.004  16.027  0.00  0.00    +0.000 A 
ATOM     20  C   UNL     1       5.789   4.594  15.200  0.00  0.00    +0.000 A 
ATOM     21  C   UNL     1       6.916   5.198  15.757  0.00  0.00    +0.000 A 
ATOM     22  C   UNL     1       7.085   5.216  17.141  0.00  0.00    +0.000 A 
ATOM     23  C   UNL     1       6.134   4.620  17.972  0.00  0.00    +0.000 A 
ENDBRANCH  16  18
ENDBRANCH  15  16
ENDBRANCH  14  15
ENDBRANCH  13  14
ENDBRANCH   2  13
TORSDOF 7
ENDMDL
MODEL 9
REMARK VINA RESULT:      -6.5      5.073      7.631
REMARK  Name = 
REMARK  7 active torsions:
REMARK  status: ('A' for Active; 'I' for Inactive)
REMARK    1  A    between atoms: C_2  and  C_3
REMARK    2  A    between atoms: C_3  and  C_4
REMARK    3  A    between atoms: C_4  and  C_5
REMARK    4  A    between atoms: C_5  and  C_6
REMARK    5  A    between atoms: C_6  and  C_8
REMARK    6  A    between atoms: N_14  and  C_15
REMARK    7  A    between atoms: C_18  and  O_19
REMARK                            x       y       z     vdW  Elec       q    Type
REMARK                         _______ _______ _______ _____ _____    ______ ____
ROOT
ATOM      1  O   UNL     1       6.419   5.516  19.207  0.00  0.00    +0.000 OA
ATOM      2  C   UNL     1       6.418   5.801  18.014  0.00  0.00    +0.000 C 
ATOM      3  N   UNL     1       5.460   5.419  17.090  0.00  0.00    +0.000 N 
ATOM      4  H   UNL     1       5.666   5.566  16.110  0.00  0.00    +0.000 HD
ENDROOT
BRANCH   3   5
ATOM      5  C   UNL     1       4.264   4.723  17.383  0.00  0.00    +0.000 A 
ATOM      6  C   UNL     1       4.162   3.330  17.317  0.00  0.00    +0.000 A 
ATOM      7  C   UNL     1       2.965   2.683  17.638  0.00  0.00    +0.000 A 
ATOM      8  C   UNL     1       1.865   3.434  18.023  0.00  0.00    +0.000 A 
ATOM      9  C   UNL     1       1.944   4.820  18.093  0.00  0.00    +0.000 A 
ATOM     10  C   UNL     1       3.147   5.466  17.782  0.00  0.00    +0.000 A 
BRANCH   8  11
ATOM     11  O   UNL     1       0.684   2.839  18.348  0.00  0.00    +0.000 OA
ATOM     12  H   UNL     1       0.868   1.943  18.670  0.00  0.00    +0.000 HD
ENDBRANCH   8  11
ENDBRANCH   3   5
BRANCH   2  13
ATOM     13  C   UNL     1       7.537   6.634  17.411  0.00  0.00    +0.000 C 
BRANCH  13  14
ATOM     14  C   UNL     1       7.327   8.132  17.656  0.00  0.00    +0.000 C 
BRANCH  14  15
ATOM     15  C   UNL     1       8.545   8.767  18.334  0.00  0.00    +0.000 C 
BRANCH  15  16
ATOM     16  C   UNL     1       8.606  10.272  18.146  0.00  0.00    +0.000 C 
ATOM     17  O   UNL     1       7.794  10.891  17.461  0.00  0.00    +0.000 OA
BRANCH  16  18
ATOM     18  C   UNL     1       9.752  11.002  18.762  0.00  0.00    +0.000 A 
ATOM     19  C   UNL     1      10.818  11.378  17.935  0.00  0.00    +0.000 A 
ATOM     20  C   UNL     1      11.928  12.031  18.472  0.00  0.00    +0.000 A 
ATOM     21  C   UNL     1      11.972  12.324  19.835  0.00  0.00    +0.000 A 
ATOM     22  C   UNL     1      10.907  11.967  20.661  0.00  0.00    +0.000 A 
ATOM     23  C   UNL     1       9.798  11.306  20.128  0.00  0.00    +0.000 A 
ENDBRANCH  16  18
ENDBRANCH  15  16
ENDBRANCH  14  15
ENDBRANCH  13  14
ENDBRANCH   2  13
TORSDOF 7
ENDMDL
