MODEL 1
REMARK VINA RESULT:      -6.9      0.000      0.000
REMARK  Name = 
REMARK  4 active torsions:
REMARK  status: ('A' for Active; 'I' for Inactive)
REMARK    1  A    between atoms: C_1  and  C_2
REMARK    2  A    between atoms: N_5  and  C_6
REMARK    3  A    between atoms: C_7  and  S_8
REMARK    4  A    between atoms: S_8  and  C_11
REMARK                            x       y       z     vdW  Elec       q    Type
REMARK                         _______ _______ _______ _____ _____    ______ ____
ROOT
ATOM      1  C   UNL     1       5.269   4.244  16.178  0.00  0.00    +0.000 A 
ATOM      2  C   UNL     1       6.109   5.041  17.001  0.00  0.00    +0.000 A 
ATOM      3  C   UNL     1       7.251   5.606  16.450  0.00  0.00    +0.000 A 
ATOM      4  N   UNL     1       7.629   5.476  15.163  0.00  0.00    +0.000 NA
ATOM      5  C   UNL     1       6.858   4.759  14.337  0.00  0.00    +0.000 A 
ATOM      6  C   UNL     1       7.268   4.611  13.008  0.00  0.00    +0.000 A 
ATOM      7  F   UNL     1       8.403   5.194  12.587  0.00  0.00    +0.000 F 
ATOM      8  C   UNL     1       6.547   3.883  12.064  0.00  0.00    +0.000 A 
ATOM      9  C   UNL     1       5.350   3.316  12.438  0.00  0.00    +0.000 A 
ATOM     10  C   UNL     1       4.902   3.495  13.746  0.00  0.00    +0.000 A 
ATOM     11  C   UNL     1       5.650   4.149  14.768  0.00  0.00    +0.000 A 
ENDROOT
BRANCH   1  16
ATOM     12  C   UNL     1       1.280   2.003  19.410  0.00  0.00    +0.000 C 
ATOM     13  C   UNL     1       2.025   2.174  18.092  0.00  0.00    +0.000 C 
ATOM     14  C   UNL     1       3.493   1.791  18.303  0.00  0.00    +0.000 C 
ATOM     15  C   UNL     1       4.328   2.094  17.075  0.00  0.00    +0.000 C 
ATOM     16  N   UNL     1       4.189   3.507  16.692  0.00  0.00    +0.000 N 
ATOM     17  C   UNL     1       2.806   3.852  16.347  0.00  0.00    +0.000 C 
ATOM     18  C   UNL     1       1.899   3.608  17.560  0.00  0.00    +0.000 C 
ENDBRANCH   1  16
BRANCH   2  19
ATOM     19  S   UNL     1       5.925   5.371  18.748  0.00  0.00    +0.000 S 
ATOM     20  O   UNL     1       5.981   4.115  19.475  0.00  0.00    +0.000 OA
ATOM     21  O   UNL     1       6.856   6.422  19.100  0.00  0.00    +0.000 OA
BRANCH  19  22
ATOM     22  C   UNL     1       4.311   6.110  19.025  0.00  0.00    +0.000 A 
ATOM     23  C   UNL     1       3.489   5.597  20.037  0.00  0.00    +0.000 A 
ATOM     24  C   UNL     1       2.195   6.101  20.196  0.00  0.00    +0.000 A 
ATOM     25  C   UNL     1       1.725   7.108  19.351  0.00  0.00    +0.000 A 
ATOM     26  C   UNL     1       2.548   7.619  18.347  0.00  0.00    +0.000 A 
ATOM     27  C   UNL     1       3.844   7.127  18.181  0.00  0.00    +0.000 A 
ENDBRANCH  19  22
ENDBRANCH   2  19
TORSDOF 3
ENDMDL
MODEL 2
REMARK VINA RESULT:      -6.3     10.436     12.885
REMARK  Name = 
REMARK  4 active torsions:
REMARK  status: ('A' for Active; 'I' for Inactive)
REMARK    1  A    between atoms: C_1  and  C_2
REMARK    2  A    between atoms: N_5  and  C_6
REMARK    3  A    between atoms: C_7  and  S_8
REMARK    4  A    between atoms: S_8  and  C_11
REMARK                            x       y       z     vdW  Elec       q    Type
REMARK                         _______ _______ _______ _____ _____    ______ ____
ROOT
ATOM      1  C   UNL     1       8.319  14.087  20.564  0.00  0.00    +0.000 A 
ATOM      2  C   UNL     1       7.517  15.190  20.165  0.00  0.00    +0.000 A 
ATOM      3  C   UNL     1       6.404  15.523  20.924  0.00  0.00    +0.000 A 
ATOM      4  N   UNL     1       6.022  14.886  22.049  0.00  0.00    +0.000 NA
ATOM      5  C   UNL     1       6.760  13.857  22.486  0.00  0.00    +0.000 A 
ATOM      6  C   UNL     1       6.346  13.188  23.642  0.00  0.00    +0.000 A 
ATOM      7  F   UNL     1       5.240  13.592  24.291  0.00  0.00    +0.000 F 
ATOM      8  C   UNL     1       7.032  12.103  24.182  0.00  0.00    +0.000 A 
ATOM      9  C   UNL     1       8.200  11.692  23.581  0.00  0.00    +0.000 A 
ATOM     10  C   UNL     1       8.654  12.380  22.456  0.00  0.00    +0.000 A 
ATOM     11  C   UNL     1       7.937  13.431  21.815  0.00  0.00    +0.000 A 
ENDROOT
BRANCH   1  16
ATOM     12  C   UNL     1      12.333  13.325  16.732  0.00  0.00    +0.000 C 
ATOM     13  C   UNL     1      11.496  12.891  17.929  0.00  0.00    +0.000 C 
ATOM     14  C   UNL     1      10.022  12.864  17.516  0.00  0.00    +0.000 C 
ATOM     15  C   UNL     1       9.118  12.600  18.703  0.00  0.00    +0.000 C 
ATOM     16  N   UNL     1       9.362  13.586  19.767  0.00  0.00    +0.000 N 
ATOM     17  C   UNL     1      10.737  13.522  20.272  0.00  0.00    +0.000 C 
ATOM     18  C   UNL     1      11.717  13.819  19.131  0.00  0.00    +0.000 C 
ENDBRANCH   1  16
BRANCH   2  19
ATOM     19  S   UNL     1       7.714  16.208  18.709  0.00  0.00    +0.000 S 
ATOM     20  O   UNL     1       7.342  15.435  17.537  0.00  0.00    +0.000 OA
ATOM     21  O   UNL     1       7.042  17.466  18.955  0.00  0.00    +0.000 OA
BRANCH  19  22
ATOM     22  C   UNL     1       9.445  16.663  18.557  0.00  0.00    +0.000 A 
ATOM     23  C   UNL     1      10.113  17.195  19.668  0.00  0.00    +0.000 A 
ATOM     24  C   UNL     1      11.430  17.642  19.533  0.00  0.00    +0.000 A 
ATOM     25  C   UNL     1      12.077  17.558  18.298  0.00  0.00    +0.000 A 
ATOM     26  C   UNL     1      11.410  17.022  17.194  0.00  0.00    +0.000 A 
ATOM     27  C   UNL     1      10.095  16.569  17.318  0.00  0.00    +0.000 A 
ENDBRANCH  19  22
ENDBRANCH   2  19
TORSDOF 3
ENDMDL
MODEL 3
REMARK VINA RESULT:      -6.3      7.536     10.207
REMARK  Name = 
REMARK  4 active torsions:
REMARK  status: ('A' for Active; 'I' for Inactive)
REMARK    1  A    between atoms: C_1  and  C_2
REMARK    2  A    between atoms: N_5  and  C_6
REMARK    3  A    between atoms: C_7  and  S_8
REMARK    4  A    between atoms: S_8  and  C_11
REMARK                            x       y       z     vdW  Elec       q    Type
REMARK                         _______ _______ _______ _____ _____    ______ ____
ROOT
ATOM      1  C   UNL     1      -0.843  10.695  19.333  0.00  0.00    +0.000 A 
ATOM      2  C   UNL     1      -1.060  11.623  20.387  0.00  0.00    +0.000 A 
ATOM      3  C   UNL     1      -2.183  12.439  20.344  0.00  0.00    +0.000 A 
ATOM      4  N   UNL     1      -3.119  12.409  19.374  0.00  0.00    +0.000 NA
ATOM      5  C   UNL     1      -2.977  11.532  18.373  0.00  0.00    +0.000 A 
ATOM      6  C   UNL     1      -3.941  11.521  17.359  0.00  0.00    +0.000 A 
ATOM      7  F   UNL     1      -4.982  12.369  17.415  0.00  0.00    +0.000 F 
ATOM      8  C   UNL     1      -3.891  10.657  16.268  0.00  0.00    +0.000 A 
ATOM      9  C   UNL     1      -2.872   9.734  16.200  0.00  0.00    +0.000 A 
ATOM     10  C   UNL     1      -1.930   9.698  17.228  0.00  0.00    +0.000 A 
ATOM     11  C   UNL     1      -1.887  10.624  18.310  0.00  0.00    +0.000 A 
ENDROOT
BRANCH   1  16
ATOM     12  C   UNL     1       3.072   6.886  18.092  0.00  0.00    +0.000 C 
ATOM     13  C   UNL     1       2.586   8.170  18.753  0.00  0.00    +0.000 C 
ATOM     14  C   UNL     1       1.457   7.824  19.729  0.00  0.00    +0.000 C 
ATOM     15  C   UNL     1       0.815   9.073  20.299  0.00  0.00    +0.000 C 
ATOM     16  N   UNL     1       0.343   9.950  19.217  0.00  0.00    +0.000 N 
ATOM     17  C   UNL     1       1.441  10.406  18.358  0.00  0.00    +0.000 C 
ATOM     18  C   UNL     1       2.120   9.194  17.709  0.00  0.00    +0.000 C 
ENDBRANCH   1  16
BRANCH   2  19
ATOM     19  S   UNL     1       0.002  11.949  21.786  0.00  0.00    +0.000 S 
ATOM     20  O   UNL     1      -0.177  10.898  22.772  0.00  0.00    +0.000 OA
ATOM     21  O   UNL     1       1.333  12.209  21.280  0.00  0.00    +0.000 OA
BRANCH  19  22
ATOM     22  C   UNL     1      -0.492  13.508  22.530  0.00  0.00    +0.000 A 
ATOM     23  C   UNL     1       0.149  14.689  22.133  0.00  0.00    +0.000 A 
ATOM     24  C   UNL     1      -0.160  15.891  22.774  0.00  0.00    +0.000 A 
ATOM     25  C   UNL     1      -1.101  15.915  23.805  0.00  0.00    +0.000 A 
ATOM     26  C   UNL     1      -1.742  14.737  24.195  0.00  0.00    +0.000 A 
ATOM     27  C   UNL     1      -1.443  13.531  23.558  0.00  0.00    +0.000 A 
ENDBRANCH  19  22
ENDBRANCH   2  19
TORSDOF 3
ENDMDL
MODEL 4
REMARK VINA RESULT:      -6.2      7.607     10.269
REMARK  Name = 
REMARK  4 active torsions:
REMARK  status: ('A' for Active; 'I' for Inactive)
REMARK    1  A    between atoms: C_1  and  C_2
REMARK    2  A    between atoms: N_5  and  C_6
REMARK    3  A    between atoms: C_7  and  S_8
REMARK    4  A    between atoms: S_8  and  C_11
REMARK                            x       y       z     vdW  Elec       q    Type
REMARK                         _______ _______ _______ _____ _____    ______ ____
ROOT
ATOM      1  C   UNL     1      -1.080  10.667  19.276  0.00  0.00    +0.000 A 
ATOM      2  C   UNL     1      -1.442  11.470  20.391  0.00  0.00    +0.000 A 
ATOM      3  C   UNL     1      -2.600  12.232  20.324  0.00  0.00    +0.000 A 
ATOM      4  N   UNL     1      -3.443  12.258  19.272  0.00  0.00    +0.000 NA
ATOM      5  C   UNL     1      -3.164  11.497  18.207  0.00  0.00    +0.000 A 
ATOM      6  C   UNL     1      -4.032  11.545  17.111  0.00  0.00    +0.000 A 
ATOM      7  F   UNL     1      -5.121  12.332  17.153  0.00  0.00    +0.000 F 
ATOM      8  C   UNL     1      -3.838  10.802  15.950  0.00  0.00    +0.000 A 
ATOM      9  C   UNL     1      -2.765   9.940  15.887  0.00  0.00    +0.000 A 
ATOM     10  C   UNL     1      -1.917   9.843  16.990  0.00  0.00    +0.000 A 
ATOM     11  C   UNL     1      -2.023  10.653  18.158  0.00  0.00    +0.000 A 
ENDROOT
BRANCH   1  16
ATOM     12  C   UNL     1       3.125   7.164  18.079  0.00  0.00    +0.000 C 
ATOM     13  C   UNL     1       2.520   8.373  18.785  0.00  0.00    +0.000 C 
ATOM     14  C   UNL     1       1.348   7.901  19.651  0.00  0.00    +0.000 C 
ATOM     15  C   UNL     1       0.597   9.072  20.253  0.00  0.00    +0.000 C 
ATOM     16  N   UNL     1       0.153   9.996  19.199  0.00  0.00    +0.000 N 
ATOM     17  C   UNL     1       1.279  10.567  18.454  0.00  0.00    +0.000 C 
ATOM     18  C   UNL     1       2.070   9.440  17.779  0.00  0.00    +0.000 C 
ENDBRANCH   1  16
BRANCH   2  19
ATOM     19  S   UNL     1      -0.527  11.700  21.909  0.00  0.00    +0.000 S 
ATOM     20  O   UNL     1      -0.327  10.409  22.541  0.00  0.00    +0.000 OA
ATOM     21  O   UNL     1       0.631  12.515  21.609  0.00  0.00    +0.000 OA
BRANCH  19  22
ATOM     22  C   UNL     1      -1.503  12.724  23.017  0.00  0.00    +0.000 A 
ATOM     23  C   UNL     1      -2.741  12.251  23.473  0.00  0.00    +0.000 A 
ATOM     24  C   UNL     1      -3.550  13.079  24.255  0.00  0.00    +0.000 A 
ATOM     25  C   UNL     1      -3.128  14.369  24.580  0.00  0.00    +0.000 A 
ATOM     26  C   UNL     1      -1.893  14.836  24.127  0.00  0.00    +0.000 A 
ATOM     27  C   UNL     1      -1.074  14.016  23.348  0.00  0.00    +0.000 A 
ENDBRANCH  19  22
ENDBRANCH   2  19
TORSDOF 3
ENDMDL
MODEL 5
REMARK VINA RESULT:      -6.2      8.960     12.346
REMARK  Name = 
REMARK  4 active torsions:
REMARK  status: ('A' for Active; 'I' for Inactive)
REMARK    1  A    between atoms: C_1  and  C_2
REMARK    2  A    between atoms: N_5  and  C_6
REMARK    3  A    between atoms: C_7  and  S_8
REMARK    4  A    between atoms: S_8  and  C_11
REMARK                            x       y       z     vdW  Elec       q    Type
REMARK                         _______ _______ _______ _____ _____    ______ ____
ROOT
ATOM      1  C   UNL     1      -3.873  11.993  19.423  0.00  0.00    +0.000 A 
ATOM      2  C   UNL     1      -2.711  12.643  19.917  0.00  0.00    +0.000 A 
ATOM      3  C   UNL     1      -2.816  13.447  21.044  0.00  0.00    +0.000 A 
ATOM      4  N   UNL     1      -3.953  13.650  21.739  0.00  0.00    +0.000 NA
ATOM      5  C   UNL     1      -5.072  13.038  21.333  0.00  0.00    +0.000 A 
ATOM      6  C   UNL     1      -6.252  13.270  22.046  0.00  0.00    +0.000 A 
ATOM      7  F   UNL     1      -6.239  14.081  23.118  0.00  0.00    +0.000 F 
ATOM      8  C   UNL     1      -7.473  12.691  21.711  0.00  0.00    +0.000 A 
ATOM      9  C   UNL     1      -7.521  11.811  20.654  0.00  0.00    +0.000 A 
ATOM     10  C   UNL     1      -6.343  11.529  19.962  0.00  0.00    +0.000 A 
ATOM     11  C   UNL     1      -5.094  12.169  20.209  0.00  0.00    +0.000 A 
ENDROOT
BRANCH   1  16
ATOM     12  C   UNL     1      -2.801  10.021  14.291  0.00  0.00    +0.000 C 
ATOM     13  C   UNL     1      -3.595  10.069  15.591  0.00  0.00    +0.000 C 
ATOM     14  C   UNL     1      -4.159  11.481  15.770  0.00  0.00    +0.000 C 
ATOM     15  C   UNL     1      -4.822  11.645  17.123  0.00  0.00    +0.000 C 
ATOM     16  N   UNL     1      -3.886  11.297  18.202  0.00  0.00    +0.000 N 
ATOM     17  C   UNL     1      -3.449   9.899  18.123  0.00  0.00    +0.000 C 
ATOM     18  C   UNL     1      -2.729   9.662  16.791  0.00  0.00    +0.000 C 
ENDBRANCH   1  16
BRANCH   2  19
ATOM     19  S   UNL     1      -1.069  12.624  19.209  0.00  0.00    +0.000 S 
ATOM     20  O   UNL     1      -1.177  12.685  17.763  0.00  0.00    +0.000 OA
ATOM     21  O   UNL     1      -0.282  13.630  19.892  0.00  0.00    +0.000 OA
BRANCH  19  22
ATOM     22  C   UNL     1      -0.272  11.076  19.650  0.00  0.00    +0.000 A 
ATOM     23  C   UNL     1      -0.398  10.590  20.958  0.00  0.00    +0.000 A 
ATOM     24  C   UNL     1       0.297   9.438  21.337  0.00  0.00    +0.000 A 
ATOM     25  C   UNL     1       1.113   8.777  20.417  0.00  0.00    +0.000 A 
ATOM     26  C   UNL     1       1.232   9.261  19.113  0.00  0.00    +0.000 A 
ATOM     27  C   UNL     1       0.539  10.409  18.722  0.00  0.00    +0.000 A 
ENDBRANCH  19  22
ENDBRANCH   2  19
TORSDOF 3
ENDMDL
MODEL 6
REMARK VINA RESULT:      -6.2      3.959      6.395
REMARK  Name = 
REMARK  4 active torsions:
REMARK  status: ('A' for Active; 'I' for Inactive)
REMARK    1  A    between atoms: C_1  and  C_2
REMARK    2  A    between atoms: N_5  and  C_6
REMARK    3  A    between atoms: C_7  and  S_8
REMARK    4  A    between atoms: S_8  and  C_11
REMARK                            x       y       z     vdW  Elec       q    Type
REMARK                         _______ _______ _______ _____ _____    ______ ____
ROOT
ATOM      1  C   UNL     1       2.581   6.701  18.892  0.00  0.00    +0.000 A 
ATOM      2  C   UNL     1       3.334   7.291  17.841  0.00  0.00    +0.000 A 
ATOM      3  C   UNL     1       3.115   8.625  17.523  0.00  0.00    +0.000 A 
ATOM      4  N   UNL     1       2.242   9.433  18.156  0.00  0.00    +0.000 NA
ATOM      5  C   UNL     1       1.528   8.934  19.173  0.00  0.00    +0.000 A 
ATOM      6  C   UNL     1       0.609   9.773  19.813  0.00  0.00    +0.000 A 
ATOM      7  F   UNL     1       0.471  11.048  19.409  0.00  0.00    +0.000 F 
ATOM      8  C   UNL     1      -0.190   9.360  20.876  0.00  0.00    +0.000 A 
ATOM      9  C   UNL     1      -0.041   8.079  21.358  0.00  0.00    +0.000 A 
ATOM     10  C   UNL     1       0.906   7.245  20.764  0.00  0.00    +0.000 A 
ATOM     11  C   UNL     1       1.675   7.593  19.616  0.00  0.00    +0.000 A 
ENDROOT
BRANCH   1  16
ATOM     12  C   UNL     1       3.484   1.174  18.794  0.00  0.00    +0.000 C 
ATOM     13  C   UNL     1       2.925   2.449  19.412  0.00  0.00    +0.000 C 
ATOM     14  C   UNL     1       1.945   3.087  18.422  0.00  0.00    +0.000 C 
ATOM     15  C   UNL     1       1.476   4.445  18.904  0.00  0.00    +0.000 C 
ATOM     16  N   UNL     1       2.625   5.324  19.169  0.00  0.00    +0.000 N 
ATOM     17  C   UNL     1       3.496   4.791  20.221  0.00  0.00    +0.000 C 
ATOM     18  C   UNL     1       4.046   3.427  19.788  0.00  0.00    +0.000 C 
ENDBRANCH   1  16
BRANCH   2  19
ATOM     19  S   UNL     1       4.527   6.494  16.776  0.00  0.00    +0.000 S 
ATOM     20  O   UNL     1       4.169   5.095  16.628  0.00  0.00    +0.000 OA
ATOM     21  O   UNL     1       4.670   7.306  15.586  0.00  0.00    +0.000 OA
BRANCH  19  22
ATOM     22  C   UNL     1       6.142   6.581  17.557  0.00  0.00    +0.000 A 
ATOM     23  C   UNL     1       6.554   5.537  18.395  0.00  0.00    +0.000 A 
ATOM     24  C   UNL     1       7.766   5.641  19.083  0.00  0.00    +0.000 A 
ATOM     25  C   UNL     1       8.561   6.780  18.937  0.00  0.00    +0.000 A 
ATOM     26  C   UNL     1       8.149   7.817  18.098  0.00  0.00    +0.000 A 
ATOM     27  C   UNL     1       6.942   7.722  17.402  0.00  0.00    +0.000 A 
ENDBRANCH  19  22
ENDBRANCH   2  19
TORSDOF 3
ENDMDL
MODEL 7
REMARK VINA RESULT:      -6.2     10.813     13.907
REMARK  Name = 
REMARK  4 active torsions:
REMARK  status: ('A' for Active; 'I' for Inactive)
REMARK    1  A    between atoms: C_1  and  C_2
REMARK    2  A    between atoms: N_5  and  C_6
REMARK    3  A    between atoms: C_7  and  S_8
REMARK    4  A    between atoms: S_8  and  C_11
REMARK                            x       y       z     vdW  Elec       q    Type
REMARK                         _______ _______ _______ _____ _____    ______ ____
ROOT
ATOM      1  C   UNL     1      -4.115  12.907  20.036  0.00  0.00    +0.000 A 
ATOM      2  C   UNL     1      -5.346  12.968  19.329  0.00  0.00    +0.000 A 
ATOM      3  C   UNL     1      -5.480  12.250  18.149  0.00  0.00    +0.000 A 
ATOM      4  N   UNL     1      -4.524  11.464  17.614  0.00  0.00    +0.000 NA
ATOM      5  C   UNL     1      -3.355  11.349  18.256  0.00  0.00    +0.000 A 
ATOM      6  C   UNL     1      -2.360  10.548  17.684  0.00  0.00    +0.000 A 
ATOM      7  F   UNL     1      -2.598   9.908  16.526  0.00  0.00    +0.000 F 
ATOM      8  C   UNL     1      -1.107  10.362  18.260  0.00  0.00    +0.000 A 
ATOM      9  C   UNL     1      -0.840  10.954  19.474  0.00  0.00    +0.000 A 
ATOM     10  C   UNL     1      -1.838  11.715  20.082  0.00  0.00    +0.000 A 
ATOM     11  C   UNL     1      -3.098  12.011  19.486  0.00  0.00    +0.000 A 
ENDROOT
BRANCH   1  16
ATOM     12  C   UNL     1      -4.425  16.329  24.460  0.00  0.00    +0.000 C 
ATOM     13  C   UNL     1      -3.666  15.468  23.458  0.00  0.00    +0.000 C 
ATOM     14  C   UNL     1      -3.930  16.006  22.048  0.00  0.00    +0.000 C 
ATOM     15  C   UNL     1      -3.338  15.099  20.988  0.00  0.00    +0.000 C 
ATOM     16  N   UNL     1      -3.842  13.726  21.145  0.00  0.00    +0.000 N 
ATOM     17  C   UNL     1      -3.470  13.147  22.440  0.00  0.00    +0.000 C 
ATOM     18  C   UNL     1      -4.068  13.992  23.570  0.00  0.00    +0.000 C 
ENDBRANCH   1  16
BRANCH   2  19
ATOM     19  S   UNL     1      -6.787  13.945  19.734  0.00  0.00    +0.000 S 
ATOM     20  O   UNL     1      -6.474  15.350  19.543  0.00  0.00    +0.000 OA
ATOM     21  O   UNL     1      -7.917  13.380  19.026  0.00  0.00    +0.000 OA
BRANCH  19  22
ATOM     22  C   UNL     1      -7.187  13.688  21.466  0.00  0.00    +0.000 A 
ATOM     23  C   UNL     1      -7.440  14.798  22.282  0.00  0.00    +0.000 A 
ATOM     24  C   UNL     1      -7.656  14.614  23.650  0.00  0.00    +0.000 A 
ATOM     25  C   UNL     1      -7.618  13.331  24.201  0.00  0.00    +0.000 A 
ATOM     26  C   UNL     1      -7.370  12.227  23.384  0.00  0.00    +0.000 A 
ATOM     27  C   UNL     1      -7.157  12.398  22.015  0.00  0.00    +0.000 A 
ENDBRANCH  19  22
ENDBRANCH   2  19
TORSDOF 3
ENDMDL
MODEL 8
REMARK VINA RESULT:      -6.2      4.174      6.496
REMARK  Name = 
REMARK  4 active torsions:
REMARK  status: ('A' for Active; 'I' for Inactive)
REMARK    1  A    between atoms: C_1  and  C_2
REMARK    2  A    between atoms: N_5  and  C_6
REMARK    3  A    between atoms: C_7  and  S_8
REMARK    4  A    between atoms: S_8  and  C_11
REMARK                            x       y       z     vdW  Elec       q    Type
REMARK                         _______ _______ _______ _____ _____    ______ ____
ROOT
ATOM      1  C   UNL     1       2.369   6.935  19.146  0.00  0.00    +0.000 A 
ATOM      2  C   UNL     1       3.146   7.307  18.016  0.00  0.00    +0.000 A 
ATOM      3  C   UNL     1       3.035   8.599  17.519  0.00  0.00    +0.000 A 
ATOM      4  N   UNL     1       2.250   9.560  18.045  0.00  0.00    +0.000 NA
ATOM      5  C   UNL     1       1.518   9.270  19.128  0.00  0.00    +0.000 A 
ATOM      6  C   UNL     1       0.690  10.266  19.655  0.00  0.00    +0.000 A 
ATOM      7  F   UNL     1       0.653  11.480  19.082  0.00  0.00    +0.000 F 
ATOM      8  C   UNL     1      -0.117  10.073  20.774  0.00  0.00    +0.000 A 
ATOM      9  C   UNL     1      -0.068   8.861  21.425  0.00  0.00    +0.000 A 
ATOM     10  C   UNL     1       0.790   7.874  20.943  0.00  0.00    +0.000 A 
ATOM     11  C   UNL     1       1.559   7.993  19.749  0.00  0.00    +0.000 A 
ENDROOT
BRANCH   1  16
ATOM     12  C   UNL     1       1.273   2.229  21.979  0.00  0.00    +0.000 C 
ATOM     13  C   UNL     1       1.922   3.013  20.845  0.00  0.00    +0.000 C 
ATOM     14  C   UNL     1       2.843   4.078  21.448  0.00  0.00    +0.000 C 
ATOM     15  C   UNL     1       3.395   5.002  20.381  0.00  0.00    +0.000 C 
ATOM     16  N   UNL     1       2.300   5.610  19.609  0.00  0.00    +0.000 N 
ATOM     17  C   UNL     1       1.495   4.604  18.908  0.00  0.00    +0.000 C 
ATOM     18  C   UNL     1       0.867   3.649  19.929  0.00  0.00    +0.000 C 
ENDBRANCH   1  16
BRANCH   2  19
ATOM     19  S   UNL     1       4.242   6.269  17.058  0.00  0.00    +0.000 S 
ATOM     20  O   UNL     1       3.749   4.904  17.091  0.00  0.00    +0.000 OA
ATOM     21  O   UNL     1       4.443   6.907  15.774  0.00  0.00    +0.000 OA
BRANCH  19  22
ATOM     22  C   UNL     1       5.869   6.299  17.818  0.00  0.00    +0.000 A 
ATOM     23  C   UNL     1       6.161   5.394  18.847  0.00  0.00    +0.000 A 
ATOM     24  C   UNL     1       7.389   5.474  19.509  0.00  0.00    +0.000 A 
ATOM     25  C   UNL     1       8.319   6.450  19.148  0.00  0.00    +0.000 A 
ATOM     26  C   UNL     1       8.027   7.348  18.119  0.00  0.00    +0.000 A 
ATOM     27  C   UNL     1       6.805   7.275  17.448  0.00  0.00    +0.000 A 
ENDBRANCH  19  22
ENDBRANCH   2  19
TORSDOF 3
ENDMDL
MODEL 9
REMARK VINA RESULT:      -6.2     10.838     13.950
REMARK  Name = 
REMARK  4 active torsions:
REMARK  status: ('A' for Active; 'I' for Inactive)
REMARK    1  A    between atoms: C_1  and  C_2
REMARK    2  A    between atoms: N_5  and  C_6
REMARK    3  A    between atoms: C_7  and  S_8
REMARK    4  A    between atoms: S_8  and  C_11
REMARK                            x       y       z     vdW  Elec       q    Type
REMARK                         _______ _______ _______ _____ _____    ______ ____
ROOT
ATOM      1  C   UNL     1      -3.944  13.009  20.308  0.00  0.00    +0.000 A 
ATOM      2  C   UNL     1      -5.161  12.966  19.577  0.00  0.00    +0.000 A 
ATOM      3  C   UNL     1      -5.225  12.198  18.421  0.00  0.00    +0.000 A 
ATOM      4  N   UNL     1      -4.210  11.455  17.935  0.00  0.00    +0.000 NA
ATOM      5  C   UNL     1      -3.050  11.438  18.603  0.00  0.00    +0.000 A 
ATOM      6  C   UNL     1      -1.996  10.682  18.080  0.00  0.00    +0.000 A 
ATOM      7  F   UNL     1      -2.168   9.986  16.944  0.00  0.00    +0.000 F 
ATOM      8  C   UNL     1      -0.745  10.596  18.687  0.00  0.00    +0.000 A 
ATOM      9  C   UNL     1      -0.542  11.248  19.883  0.00  0.00    +0.000 A 
ATOM     10  C   UNL     1      -1.598  11.966  20.443  0.00  0.00    +0.000 A 
ATOM     11  C   UNL     1      -2.861  12.160  19.811  0.00  0.00    +0.000 A 
ENDROOT
BRANCH   1  16
ATOM     12  C   UNL     1      -4.562  16.545  24.609  0.00  0.00    +0.000 C 
ATOM     13  C   UNL     1      -3.728  15.711  23.643  0.00  0.00    +0.000 C 
ATOM     14  C   UNL     1      -4.018  16.180  22.213  0.00  0.00    +0.000 C 
ATOM     15  C   UNL     1      -3.347  15.285  21.190  0.00  0.00    +0.000 C 
ATOM     16  N   UNL     1      -3.746  13.884  21.391  0.00  0.00    +0.000 N 
ATOM     17  C   UNL     1      -3.345  13.379  22.707  0.00  0.00    +0.000 C 
ATOM     18  C   UNL     1      -4.018  14.213  23.803  0.00  0.00    +0.000 C 
ENDBRANCH   1  16
BRANCH   2  19
ATOM     19  S   UNL     1      -6.668  13.864  19.916  0.00  0.00    +0.000 S 
ATOM     20  O   UNL     1      -6.477  15.259  19.563  0.00  0.00    +0.000 OA
ATOM     21  O   UNL     1      -7.763  13.136  19.310  0.00  0.00    +0.000 OA
BRANCH  19  22
ATOM     22  C   UNL     1      -7.007  13.771  21.678  0.00  0.00    +0.000 A 
ATOM     23  C   UNL     1      -6.987  12.522  22.313  0.00  0.00    +0.000 A 
ATOM     24  C   UNL     1      -7.343  12.428  23.661  0.00  0.00    +0.000 A 
ATOM     25  C   UNL     1      -7.718  13.571  24.370  0.00  0.00    +0.000 A 
ATOM     26  C   UNL     1      -7.733  14.814  23.735  0.00  0.00    +0.000 A 
ATOM     27  C   UNL     1      -7.374  14.921  22.390  0.00  0.00    +0.000 A 
ENDBRANCH  19  22
ENDBRANCH   2  19
TORSDOF 3
ENDMDL
