MODEL 1
REMARK VINA RESULT:      -7.7      0.000      0.000
REMARK  Name = 
REMARK  7 active torsions:
REMARK  status: ('A' for Active; 'I' for Inactive)
REMARK    1  A    between atoms: C_1  and  C_2
REMARK    2  A    between atoms: C_5  and  N_6
REMARK    3  A    between atoms: N_9  and  C_10
REMARK    4  A    between atoms: C_10  and  C_11
REMARK    5  A    between atoms: C_11  and  N_12
REMARK    6  A    between atoms: C_16  and  C_17
REMARK    7  A    between atoms: C_16  and  C_23
REMARK                            x       y       z     vdW  Elec       q    Type
REMARK                         _______ _______ _______ _____ _____    ______ ____
ROOT
ATOM      1  N   UNL     1      -3.790  11.091  17.131  0.00  0.00    +0.000 N 
ATOM      2  C   UNL     1      -4.619  11.898  17.971  0.00  0.00    +0.000 C 
ATOM      3  O   UNL     1      -4.478  11.902  19.191  0.00  0.00    +0.000 OA
ATOM      4  N   UNL     1      -5.515  12.749  17.333  0.00  0.00    +0.000 N 
ATOM      5  C   UNL     1      -7.308  12.847  17.323  0.00  0.00    +0.000 C 
ATOM      6  C   UNL     1      -3.753  11.003  15.476  0.00  0.00    +0.000 C 
ATOM      7  O   UNL     1      -2.729  10.471  14.944  0.00  0.00    +0.000 OA
ATOM      8  H   UNL     1      -5.223  12.914  16.383  0.00  0.00    +0.000 HD
ENDROOT
BRANCH   5   9
ATOM      9  C   UNL     1      -7.317  12.275  18.763  0.00  0.00    +0.000 A 
ATOM     10  C   UNL     1      -7.432  13.176  19.853  0.00  0.00    +0.000 A 
ATOM     11  C   UNL     1      -7.406  12.742  21.176  0.00  0.00    +0.000 A 
ATOM     12  C   UNL     1      -7.321  11.382  21.439  0.00  0.00    +0.000 A 
ATOM     13  C   UNL     1      -7.304  10.466  20.379  0.00  0.00    +0.000 A 
ATOM     14  C   UNL     1      -7.317  10.906  19.047  0.00  0.00    +0.000 A 
ENDBRANCH   5   9
BRANCH   5  15
ATOM     15  C   UNL     1      -7.076  14.401  16.994  0.00  0.00    +0.000 A 
ATOM     16  C   UNL     1      -7.679  14.897  15.830  0.00  0.00    +0.000 A 
ATOM     17  C   UNL     1      -7.785  16.281  15.611  0.00  0.00    +0.000 A 
ATOM     18  C   UNL     1      -7.297  17.199  16.545  0.00  0.00    +0.000 A 
ATOM     19  C   UNL     1      -6.698  16.744  17.705  0.00  0.00    +0.000 A 
ATOM     20  C   UNL     1      -6.614  15.370  17.934  0.00  0.00    +0.000 A 
ENDBRANCH   5  15
BRANCH   1  21
ATOM     21  C   UNL     1      -2.973  10.098  17.800  0.00  0.00    +0.000 C 
BRANCH  21  22
ATOM     22  C   UNL     1      -1.494  10.480  17.891  0.00  0.00    +0.000 C 
BRANCH  22  26
ATOM     23  N   UNL     1       1.314  12.504  18.678  0.00  0.00    +0.000 N 
ATOM     24  C   UNL     1       1.404  11.038  18.701  0.00  0.00    +0.000 C 
ATOM     25  C   UNL     1       0.304  10.430  19.592  0.00  0.00    +0.000 C 
ATOM     26  N   UNL     1      -1.070  10.879  19.255  0.00  0.00    +0.000 NA
ATOM     27  C   UNL     1      -1.078  12.359  19.376  0.00  0.00    +0.000 C 
ATOM     28  C   UNL     1      -0.028  13.089  18.500  0.00  0.00    +0.000 C 
BRANCH  23  33
ATOM     29  C   UNL     1       5.496  15.778  20.794  0.00  0.00    +0.000 C 
ATOM     30  C   UNL     1       4.394  14.929  20.241  0.00  0.00    +0.000 A 
ATOM     31  C   UNL     1       3.490  14.283  21.085  0.00  0.00    +0.000 A 
ATOM     32  C   UNL     1       2.475  13.489  20.552  0.00  0.00    +0.000 A 
ATOM     33  C   UNL     1       2.329  13.309  19.169  0.00  0.00    +0.000 A 
ATOM     34  C   UNL     1       3.233  13.971  18.335  0.00  0.00    +0.000 A 
ATOM     35  C   UNL     1       4.255  14.772  18.861  0.00  0.00    +0.000 A 
ENDBRANCH  23  33
ENDBRANCH  22  26
ENDBRANCH  21  22
ENDBRANCH   1  21
TORSDOF 6
ENDMDL
MODEL 2
REMARK VINA RESULT:      -7.1      4.983     12.382
REMARK  Name = 
REMARK  7 active torsions:
REMARK  status: ('A' for Active; 'I' for Inactive)
REMARK    1  A    between atoms: C_1  and  C_2
REMARK    2  A    between atoms: C_5  and  N_6
REMARK    3  A    between atoms: N_9  and  C_10
REMARK    4  A    between atoms: C_10  and  C_11
REMARK    5  A    between atoms: C_11  and  N_12
REMARK    6  A    between atoms: C_16  and  C_17
REMARK    7  A    between atoms: C_16  and  C_23
REMARK                            x       y       z     vdW  Elec       q    Type
REMARK                         _______ _______ _______ _____ _____    ______ ____
ROOT
ATOM      1  N   UNL     1       5.582  15.773  20.610  0.00  0.00    +0.000 N 
ATOM      2  C   UNL     1       6.402  14.703  21.088  0.00  0.00    +0.000 C 
ATOM      3  O   UNL     1       6.050  14.003  22.033  0.00  0.00    +0.000 OA
ATOM      4  N   UNL     1       7.560  14.434  20.366  0.00  0.00    +0.000 N 
ATOM      5  C   UNL     1       9.304  14.504  20.789  0.00  0.00    +0.000 C 
ATOM      6  C   UNL     1       5.823  16.773  19.310  0.00  0.00    +0.000 C 
ATOM      7  O   UNL     1       4.820  17.426  18.885  0.00  0.00    +0.000 OA
ATOM      8  H   UNL     1       7.486  14.809  19.434  0.00  0.00    +0.000 HD
ENDROOT
BRANCH   5   9
ATOM      9  C   UNL     1       8.932  14.166  22.254  0.00  0.00    +0.000 A 
ATOM     10  C   UNL     1       8.875  12.804  22.645  0.00  0.00    +0.000 A 
ATOM     11  C   UNL     1       8.509  12.420  23.933  0.00  0.00    +0.000 A 
ATOM     12  C   UNL     1       8.243  13.399  24.880  0.00  0.00    +0.000 A 
ATOM     13  C   UNL     1       8.386  14.751  24.544  0.00  0.00    +0.000 A 
ATOM     14  C   UNL     1       8.743  15.136  23.243  0.00  0.00    +0.000 A 
ENDBRANCH   5   9
BRANCH   5  15
ATOM     15  C   UNL     1       9.476  13.391  19.644  0.00  0.00    +0.000 A 
ATOM     16  C   UNL     1      10.065  13.808  18.443  0.00  0.00    +0.000 A 
ATOM     17  C   UNL     1      10.526  12.866  17.506  0.00  0.00    +0.000 A 
ATOM     18  C   UNL     1      10.413  11.494  17.746  0.00  0.00    +0.000 A 
ATOM     19  C   UNL     1       9.838  11.050  18.923  0.00  0.00    +0.000 A 
ATOM     20  C   UNL     1       9.403  11.983  19.863  0.00  0.00    +0.000 A 
ENDBRANCH   5  15
BRANCH   1  21
ATOM     21  C   UNL     1       4.463  16.148  21.452  0.00  0.00    +0.000 C 
BRANCH  21  22
ATOM     22  C   UNL     1       3.238  15.247  21.283  0.00  0.00    +0.000 C 
BRANCH  22  26
ATOM     23  N   UNL     1       0.979  12.907  19.860  0.00  0.00    +0.000 N 
ATOM     24  C   UNL     1       2.416  12.855  19.560  0.00  0.00    +0.000 C 
ATOM     25  C   UNL     1       2.925  14.218  19.053  0.00  0.00    +0.000 C 
ATOM     26  N   UNL     1       2.603  15.359  19.947  0.00  0.00    +0.000 NA
ATOM     27  C   UNL     1       1.125  15.389  20.088  0.00  0.00    +0.000 C 
ATOM     28  C   UNL     1       0.497  14.075  20.619  0.00  0.00    +0.000 C 
BRANCH  23  33
ATOM     29  C   UNL     1      -2.868   9.815  16.977  0.00  0.00    +0.000 C 
ATOM     30  C   UNL     1      -1.867  10.623  17.741  0.00  0.00    +0.000 A 
ATOM     31  C   UNL     1      -2.118  11.954  18.072  0.00  0.00    +0.000 A 
ATOM     32  C   UNL     1      -1.168  12.694  18.777  0.00  0.00    +0.000 A 
ATOM     33  C   UNL     1       0.057  12.137  19.170  0.00  0.00    +0.000 A 
ATOM     34  C   UNL     1       0.290  10.800  18.842  0.00  0.00    +0.000 A 
ATOM     35  C   UNL     1      -0.657  10.048  18.136  0.00  0.00    +0.000 A 
ENDBRANCH  23  33
ENDBRANCH  22  26
ENDBRANCH  21  22
ENDBRANCH   1  21
TORSDOF 6
ENDMDL
MODEL 3
REMARK VINA RESULT:      -7.0      5.385     12.401
REMARK  Name = 
REMARK  7 active torsions:
REMARK  status: ('A' for Active; 'I' for Inactive)
REMARK    1  A    between atoms: C_1  and  C_2
REMARK    2  A    between atoms: C_5  and  N_6
REMARK    3  A    between atoms: N_9  and  C_10
REMARK    4  A    between atoms: C_10  and  C_11
REMARK    5  A    between atoms: C_11  and  N_12
REMARK    6  A    between atoms: C_16  and  C_17
REMARK    7  A    between atoms: C_16  and  C_23
REMARK                            x       y       z     vdW  Elec       q    Type
REMARK                         _______ _______ _______ _____ _____    ______ ____
ROOT
ATOM      1  N   UNL     1       6.464  15.875  20.698  0.00  0.00    +0.000 N 
ATOM      2  C   UNL     1       6.850  14.593  21.200  0.00  0.00    +0.000 C 
ATOM      3  O   UNL     1       6.116  13.955  21.950  0.00  0.00    +0.000 OA
ATOM      4  N   UNL     1       8.041  14.065  20.716  0.00  0.00    +0.000 N 
ATOM      5  C   UNL     1       9.592  13.627  21.508  0.00  0.00    +0.000 C 
ATOM      6  C   UNL     1       7.254  16.854  19.619  0.00  0.00    +0.000 C 
ATOM      7  O   UNL     1       6.580  17.785  19.076  0.00  0.00    +0.000 OA
ATOM      8  H   UNL     1       8.290  14.506  19.844  0.00  0.00    +0.000 HD
ENDROOT
BRANCH   5   9
ATOM      9  C   UNL     1       8.805  13.308  22.803  0.00  0.00    +0.000 A 
ATOM     10  C   UNL     1       8.326  11.987  23.001  0.00  0.00    +0.000 A 
ATOM     11  C   UNL     1       7.577  11.633  24.120  0.00  0.00    +0.000 A 
ATOM     12  C   UNL     1       7.336  12.586  25.101  0.00  0.00    +0.000 A 
ATOM     13  C   UNL     1       7.880  13.870  24.974  0.00  0.00    +0.000 A 
ATOM     14  C   UNL     1       8.624  14.228  23.840  0.00  0.00    +0.000 A 
ENDBRANCH   5   9
BRANCH   5  15
ATOM     15  C   UNL     1       9.750  12.588  20.294  0.00  0.00    +0.000 A 
ATOM     16  C   UNL     1       9.542  11.234  20.591  0.00  0.00    +0.000 A 
ATOM     17  C   UNL     1       9.365  10.293  19.562  0.00  0.00    +0.000 A 
ATOM     18  C   UNL     1       9.389  10.679  18.219  0.00  0.00    +0.000 A 
ATOM     19  C   UNL     1       9.590  12.008  17.891  0.00  0.00    +0.000 A 
ATOM     20  C   UNL     1       9.741  12.946  18.912  0.00  0.00    +0.000 A 
ENDBRANCH   5  15
BRANCH   1  21
ATOM     21  C   UNL     1       5.306  16.486  21.322  0.00  0.00    +0.000 C 
BRANCH  21  22
ATOM     22  C   UNL     1       4.067  16.512  20.424  0.00  0.00    +0.000 C 
BRANCH  22  26
ATOM     23  N   UNL     1       1.827  14.049  19.192  0.00  0.00    +0.000 N 
ATOM     24  C   UNL     1       1.581  15.480  18.969  0.00  0.00    +0.000 C 
ATOM     25  C   UNL     1       1.608  16.261  20.297  0.00  0.00    +0.000 C 
ATOM     26  N   UNL     1       2.835  16.046  21.104  0.00  0.00    +0.000 NA
ATOM     27  C   UNL     1       2.923  14.588  21.369  0.00  0.00    +0.000 C 
ATOM     28  C   UNL     1       2.932  13.696  20.101  0.00  0.00    +0.000 C 
BRANCH  23  33
ATOM     29  C   UNL     1      -2.051  10.012  18.035  0.00  0.00    +0.000 C 
ATOM     30  C   UNL     1      -1.030  11.067  18.329  0.00  0.00    +0.000 A 
ATOM     31  C   UNL     1       0.233  10.731  18.815  0.00  0.00    +0.000 A 
ATOM     32  C   UNL     1       1.168  11.730  19.092  0.00  0.00    +0.000 A 
ATOM     33  C   UNL     1       0.876  13.087  18.897  0.00  0.00    +0.000 A 
ATOM     34  C   UNL     1      -0.388  13.408  18.398  0.00  0.00    +0.000 A 
ATOM     35  C   UNL     1      -1.333  12.413  18.116  0.00  0.00    +0.000 A 
ENDBRANCH  23  33
ENDBRANCH  22  26
ENDBRANCH  21  22
ENDBRANCH   1  21
TORSDOF 6
ENDMDL
MODEL 4
REMARK VINA RESULT:      -6.9      5.004     12.379
REMARK  Name = 
REMARK  7 active torsions:
REMARK  status: ('A' for Active; 'I' for Inactive)
REMARK    1  A    between atoms: C_1  and  C_2
REMARK    2  A    between atoms: C_5  and  N_6
REMARK    3  A    between atoms: N_9  and  C_10
REMARK    4  A    between atoms: C_10  and  C_11
REMARK    5  A    between atoms: C_11  and  N_12
REMARK    6  A    between atoms: C_16  and  C_17
REMARK    7  A    between atoms: C_16  and  C_23
REMARK                            x       y       z     vdW  Elec       q    Type
REMARK                         _______ _______ _______ _____ _____    ______ ____
ROOT
ATOM      1  N   UNL     1       5.678  15.666  21.126  0.00  0.00    +0.000 N 
ATOM      2  C   UNL     1       6.420  14.509  21.521  0.00  0.00    +0.000 C 
ATOM      3  O   UNL     1       6.002  13.751  22.392  0.00  0.00    +0.000 OA
ATOM      4  N   UNL     1       7.576  14.233  20.801  0.00  0.00    +0.000 N 
ATOM      5  C   UNL     1       9.310  14.156  21.261  0.00  0.00    +0.000 C 
ATOM      6  C   UNL     1       6.011  16.761  19.927  0.00  0.00    +0.000 C 
ATOM      7  O   UNL     1       5.060  17.511  19.543  0.00  0.00    +0.000 OA
ATOM      8  H   UNL     1       7.548  14.693  19.904  0.00  0.00    +0.000 HD
ENDROOT
BRANCH   5   9
ATOM      9  C   UNL     1       8.882  13.713  22.682  0.00  0.00    +0.000 A 
ATOM     10  C   UNL     1       8.713  14.705  23.683  0.00  0.00    +0.000 A 
ATOM     11  C   UNL     1       8.370  14.381  24.993  0.00  0.00    +0.000 A 
ATOM     12  C   UNL     1       8.132  13.053  25.320  0.00  0.00    +0.000 A 
ATOM     13  C   UNL     1       8.199  12.067  24.328  0.00  0.00    +0.000 A 
ATOM     14  C   UNL     1       8.557  12.394  23.012  0.00  0.00    +0.000 A 
ENDBRANCH   5   9
BRANCH   5  15
ATOM     15  C   UNL     1       9.443  13.141  20.024  0.00  0.00    +0.000 A 
ATOM     16  C   UNL     1       9.723  13.705  18.772  0.00  0.00    +0.000 A 
ATOM     17  C   UNL     1      10.146  12.898  17.701  0.00  0.00    +0.000 A 
ATOM     18  C   UNL     1      10.302  11.518  17.854  0.00  0.00    +0.000 A 
ATOM     19  C   UNL     1      10.036  10.930  19.077  0.00  0.00    +0.000 A 
ATOM     20  C   UNL     1       9.639  11.732  20.147  0.00  0.00    +0.000 A 
ENDBRANCH   5  15
BRANCH   1  21
ATOM     21  C   UNL     1       4.563  16.035  21.977  0.00  0.00    +0.000 C 
BRANCH  21  22
ATOM     22  C   UNL     1       3.195  15.736  21.361  0.00  0.00    +0.000 C 
BRANCH  22  26
ATOM     23  N   UNL     1       0.877  13.602  19.725  0.00  0.00    +0.000 N 
ATOM     24  C   UNL     1       0.422  14.735  20.542  0.00  0.00    +0.000 C 
ATOM     25  C   UNL     1       1.035  14.681  21.954  0.00  0.00    +0.000 C 
ATOM     26  N   UNL     1       2.515  14.567  21.971  0.00  0.00    +0.000 NA
ATOM     27  C   UNL     1       2.858  13.333  21.220  0.00  0.00    +0.000 C 
ATOM     28  C   UNL     1       2.315  13.283  19.768  0.00  0.00    +0.000 C 
BRANCH  23  33
ATOM     29  C   UNL     1      -2.816   9.728  17.717  0.00  0.00    +0.000 C 
ATOM     30  C   UNL     1      -1.852  10.740  18.253  0.00  0.00    +0.000 A 
ATOM     31  C   UNL     1      -2.291  11.986  18.702  0.00  0.00    +0.000 A 
ATOM     32  C   UNL     1      -1.376  12.919  19.189  0.00  0.00    +0.000 A 
ATOM     33  C   UNL     1      -0.002  12.646  19.243  0.00  0.00    +0.000 A 
ATOM     34  C   UNL     1       0.423  11.391  18.801  0.00  0.00    +0.000 A 
ATOM     35  C   UNL     1      -0.488  10.446  18.311  0.00  0.00    +0.000 A 
ENDBRANCH  23  33
ENDBRANCH  22  26
ENDBRANCH  21  22
ENDBRANCH   1  21
TORSDOF 6
ENDMDL
MODEL 5
REMARK VINA RESULT:      -6.9      5.485     10.450
REMARK  Name = 
REMARK  7 active torsions:
REMARK  status: ('A' for Active; 'I' for Inactive)
REMARK    1  A    between atoms: C_1  and  C_2
REMARK    2  A    between atoms: C_5  and  N_6
REMARK    3  A    between atoms: N_9  and  C_10
REMARK    4  A    between atoms: C_10  and  C_11
REMARK    5  A    between atoms: C_11  and  N_12
REMARK    6  A    between atoms: C_16  and  C_17
REMARK    7  A    between atoms: C_16  and  C_23
REMARK                            x       y       z     vdW  Elec       q    Type
REMARK                         _______ _______ _______ _____ _____    ______ ____
ROOT
ATOM      1  N   UNL     1       1.944   8.882  17.831  0.00  0.00    +0.000 N 
ATOM      2  C   UNL     1       2.121   7.466  17.741  0.00  0.00    +0.000 C 
ATOM      3  O   UNL     1       1.159   6.704  17.711  0.00  0.00    +0.000 OA
ATOM      4  N   UNL     1       3.425   7.008  17.587  0.00  0.00    +0.000 N 
ATOM      5  C   UNL     1       4.484   5.976  18.607  0.00  0.00    +0.000 C 
ATOM      6  C   UNL     1       3.089  10.081  17.798  0.00  0.00    +0.000 C 
ATOM      7  O   UNL     1       2.686  11.264  17.566  0.00  0.00    +0.000 OA
ATOM      8  H   UNL     1       4.015   7.745  17.233  0.00  0.00    +0.000 HD
ENDROOT
BRANCH   5   9
ATOM      9  C   UNL     1       3.220   5.251  19.133  0.00  0.00    +0.000 A 
ATOM     10  C   UNL     1       2.742   4.118  18.427  0.00  0.00    +0.000 A 
ATOM     11  C   UNL     1       1.590   3.438  18.814  0.00  0.00    +0.000 A 
ATOM     12  C   UNL     1       0.917   3.847  19.957  0.00  0.00    +0.000 A 
ATOM     13  C   UNL     1       1.424   4.903  20.725  0.00  0.00    +0.000 A 
ATOM     14  C   UNL     1       2.577   5.594  20.326  0.00  0.00    +0.000 A 
ENDBRANCH   5   9
BRANCH   5  15
ATOM     15  C   UNL     1       5.204   5.600  17.222  0.00  0.00    +0.000 A 
ATOM     16  C   UNL     1       6.460   6.175  16.986  0.00  0.00    +0.000 A 
ATOM     17  C   UNL     1       7.291   5.687  15.963  0.00  0.00    +0.000 A 
ATOM     18  C   UNL     1       6.893   4.618  15.157  0.00  0.00    +0.000 A 
ATOM     19  C   UNL     1       5.660   4.026  15.364  0.00  0.00    +0.000 A 
ATOM     20  C   UNL     1       4.844   4.494  16.395  0.00  0.00    +0.000 A 
ENDBRANCH   5  15
BRANCH   1  21
ATOM     21  C   UNL     1       0.606   9.342  18.147  0.00  0.00    +0.000 C 
BRANCH  21  22
ATOM     22  C   UNL     1       0.302   9.360  19.647  0.00  0.00    +0.000 C 
BRANCH  22  26
ATOM     23  N   UNL     1      -1.344  11.643  21.810  0.00  0.00    +0.000 N 
ATOM     24  C   UNL     1      -1.124  11.963  20.394  0.00  0.00    +0.000 C 
ATOM     25  C   UNL     1       0.362  11.808  20.016  0.00  0.00    +0.000 C 
ATOM     26  N   UNL     1       0.944  10.488  20.365  0.00  0.00    +0.000 NA
ATOM     27  C   UNL     1       0.772  10.318  21.830  0.00  0.00    +0.000 C 
ATOM     28  C   UNL     1      -0.692  10.427  22.330  0.00  0.00    +0.000 C 
BRANCH  23  33
ATOM     29  C   UNL     1      -3.167  15.611  25.499  0.00  0.00    +0.000 C 
ATOM     30  C   UNL     1      -2.684  14.568  24.541  0.00  0.00    +0.000 A 
ATOM     31  C   UNL     1      -1.424  14.661  23.950  0.00  0.00    +0.000 A 
ATOM     32  C   UNL     1      -0.995  13.683  23.052  0.00  0.00    +0.000 A 
ATOM     33  C   UNL     1      -1.802  12.588  22.713  0.00  0.00    +0.000 A 
ATOM     34  C   UNL     1      -3.057  12.501  23.321  0.00  0.00    +0.000 A 
ATOM     35  C   UNL     1      -3.496  13.477  24.225  0.00  0.00    +0.000 A 
ENDBRANCH  23  33
ENDBRANCH  22  26
ENDBRANCH  21  22
ENDBRANCH   1  21
TORSDOF 6
ENDMDL
MODEL 6
REMARK VINA RESULT:      -6.8      3.795      5.504
REMARK  Name = 
REMARK  7 active torsions:
REMARK  status: ('A' for Active; 'I' for Inactive)
REMARK    1  A    between atoms: C_1  and  C_2
REMARK    2  A    between atoms: C_5  and  N_6
REMARK    3  A    between atoms: N_9  and  C_10
REMARK    4  A    between atoms: C_10  and  C_11
REMARK    5  A    between atoms: C_11  and  N_12
REMARK    6  A    between atoms: C_16  and  C_17
REMARK    7  A    between atoms: C_16  and  C_23
REMARK                            x       y       z     vdW  Elec       q    Type
REMARK                         _______ _______ _______ _____ _____    ______ ____
ROOT
ATOM      1  N   UNL     1      -2.443  11.438  18.625  0.00  0.00    +0.000 N 
ATOM      2  C   UNL     1      -2.676  12.518  19.532  0.00  0.00    +0.000 C 
ATOM      3  O   UNL     1      -1.767  13.268  19.877  0.00  0.00    +0.000 OA
ATOM      4  N   UNL     1      -3.994  12.737  19.919  0.00  0.00    +0.000 N 
ATOM      5  C   UNL     1      -4.827  12.664  21.508  0.00  0.00    +0.000 C 
ATOM      6  C   UNL     1      -3.532  10.373  17.969  0.00  0.00    +0.000 C 
ATOM      7  O   UNL     1      -3.158   9.713  16.950  0.00  0.00    +0.000 OA
ATOM      8  H   UNL     1      -4.627  12.318  19.255  0.00  0.00    +0.000 HD
ENDROOT
BRANCH   5   9
ATOM      9  C   UNL     1      -3.498  13.078  22.189  0.00  0.00    +0.000 A 
ATOM     10  C   UNL     1      -3.278  14.449  22.476  0.00  0.00    +0.000 A 
ATOM     11  C   UNL     1      -2.093  14.903  23.049  0.00  0.00    +0.000 A 
ATOM     12  C   UNL     1      -1.117  13.981  23.403  0.00  0.00    +0.000 A 
ATOM     13  C   UNL     1      -1.351  12.613  23.217  0.00  0.00    +0.000 A 
ATOM     14  C   UNL     1      -2.540  12.159  22.629  0.00  0.00    +0.000 A 
ENDBRANCH   5   9
BRANCH   5  15
ATOM     15  C   UNL     1      -5.848  13.718  20.857  0.00  0.00    +0.000 A 
ATOM     16  C   UNL     1      -7.082  13.882  21.501  0.00  0.00    +0.000 A 
ATOM     17  C   UNL     1      -7.911  14.974  21.193  0.00  0.00    +0.000 A 
ATOM     18  C   UNL     1      -7.532  15.924  20.241  0.00  0.00    +0.000 A 
ATOM     19  C   UNL     1      -6.320  15.792  19.587  0.00  0.00    +0.000 A 
ATOM     20  C   UNL     1      -5.485  14.722  19.910  0.00  0.00    +0.000 A 
ENDBRANCH   5  15
BRANCH   1  21
ATOM     21  C   UNL     1      -1.056  11.119  18.350  0.00  0.00    +0.000 C 
BRANCH  21  22
ATOM     22  C   UNL     1      -0.476  10.052  19.281  0.00  0.00    +0.000 C 
BRANCH  22  26
ATOM     23  N   UNL     1       2.134   7.733  18.640  0.00  0.00    +0.000 N 
ATOM     24  C   UNL     1       1.482   7.798  19.954  0.00  0.00    +0.000 C 
ATOM     25  C   UNL     1       1.508   9.233  20.515  0.00  0.00    +0.000 C 
ATOM     26  N   UNL     1       0.960  10.258  19.592  0.00  0.00    +0.000 NA
ATOM     27  C   UNL     1       1.764  10.184  18.345  0.00  0.00    +0.000 C 
ATOM     28  C   UNL     1       1.790   8.789  17.670  0.00  0.00    +0.000 C 
BRANCH  23  33
ATOM     29  C   UNL     1       6.815   4.558  17.814  0.00  0.00    +0.000 C 
ATOM     30  C   UNL     1       5.595   5.395  18.038  0.00  0.00    +0.000 A 
ATOM     31  C   UNL     1       4.760   5.173  19.133  0.00  0.00    +0.000 A 
ATOM     32  C   UNL     1       3.621   5.957  19.319  0.00  0.00    +0.000 A 
ATOM     33  C   UNL     1       3.278   6.981  18.426  0.00  0.00    +0.000 A 
ATOM     34  C   UNL     1       4.129   7.201  17.340  0.00  0.00    +0.000 A 
ATOM     35  C   UNL     1       5.275   6.420  17.145  0.00  0.00    +0.000 A 
ENDBRANCH  23  33
ENDBRANCH  22  26
ENDBRANCH  21  22
ENDBRANCH   1  21
TORSDOF 6
ENDMDL
MODEL 7
REMARK VINA RESULT:      -6.8      4.725     12.869
REMARK  Name = 
REMARK  7 active torsions:
REMARK  status: ('A' for Active; 'I' for Inactive)
REMARK    1  A    between atoms: C_1  and  C_2
REMARK    2  A    between atoms: C_5  and  N_6
REMARK    3  A    between atoms: N_9  and  C_10
REMARK    4  A    between atoms: C_10  and  C_11
REMARK    5  A    between atoms: C_11  and  N_12
REMARK    6  A    between atoms: C_16  and  C_17
REMARK    7  A    between atoms: C_16  and  C_23
REMARK                            x       y       z     vdW  Elec       q    Type
REMARK                         _______ _______ _______ _____ _____    ______ ____
ROOT
ATOM      1  N   UNL     1       5.824  15.211  19.557  0.00  0.00    +0.000 N 
ATOM      2  C   UNL     1       6.961  14.937  20.381  0.00  0.00    +0.000 C 
ATOM      3  O   UNL     1       6.869  14.910  21.605  0.00  0.00    +0.000 OA
ATOM      4  N   UNL     1       8.141  14.602  19.725  0.00  0.00    +0.000 N 
ATOM      5  C   UNL     1       9.756  15.383  19.647  0.00  0.00    +0.000 C 
ATOM      6  C   UNL     1       5.708  15.209  17.904  0.00  0.00    +0.000 C 
ATOM      7  O   UNL     1       4.542  15.160  17.402  0.00  0.00    +0.000 OA
ATOM      8  H   UNL     1       7.942  14.282  18.790  0.00  0.00    +0.000 HD
ENDROOT
BRANCH   5   9
ATOM      9  C   UNL     1       9.522  15.940  21.073  0.00  0.00    +0.000 A 
ATOM     10  C   UNL     1       9.935  15.161  22.185  0.00  0.00    +0.000 A 
ATOM     11  C   UNL     1       9.722  15.576  23.497  0.00  0.00    +0.000 A 
ATOM     12  C   UNL     1       9.138  16.814  23.728  0.00  0.00    +0.000 A 
ATOM     13  C   UNL     1       8.810  17.642  22.648  0.00  0.00    +0.000 A 
ATOM     14  C   UNL     1       9.013  17.218  21.326  0.00  0.00    +0.000 A 
ENDBRANCH   5   9
BRANCH   5  15
ATOM     15  C   UNL     1      10.297  13.899  19.358  0.00  0.00    +0.000 A 
ATOM     16  C   UNL     1      10.288  13.473  18.023  0.00  0.00    +0.000 A 
ATOM     17  C   UNL     1      11.004  12.328  17.632  0.00  0.00    +0.000 A 
ATOM     18  C   UNL     1      11.744  11.587  18.558  0.00  0.00    +0.000 A 
ATOM     19  C   UNL     1      11.775  11.982  19.883  0.00  0.00    +0.000 A 
ATOM     20  C   UNL     1      11.085  13.131  20.268  0.00  0.00    +0.000 A 
ENDBRANCH   5  15
BRANCH   1  21
ATOM     21  C   UNL     1       4.644  15.709  20.238  0.00  0.00    +0.000 C 
BRANCH  21  22
ATOM     22  C   UNL     1       3.709  14.604  20.733  0.00  0.00    +0.000 C 
BRANCH  22  26
ATOM     23  N   UNL     1       1.189  12.519  19.351  0.00  0.00    +0.000 N 
ATOM     24  C   UNL     1       1.862  13.539  18.537  0.00  0.00    +0.000 C 
ATOM     25  C   UNL     1       1.785  14.924  19.208  0.00  0.00    +0.000 C 
ATOM     26  N   UNL     1       2.272  14.948  20.610  0.00  0.00    +0.000 NA
ATOM     27  C   UNL     1       1.449  13.970  21.366  0.00  0.00    +0.000 C 
ATOM     28  C   UNL     1       1.470  12.527  20.799  0.00  0.00    +0.000 C 
BRANCH  23  33
ATOM     29  C   UNL     1      -3.426   9.766  17.403  0.00  0.00    +0.000 C 
ATOM     30  C   UNL     1      -2.223  10.491  17.921  0.00  0.00    +0.000 A 
ATOM     31  C   UNL     1      -2.077  11.866  17.740  0.00  0.00    +0.000 A 
ATOM     32  C   UNL     1      -0.944  12.522  18.223  0.00  0.00    +0.000 A 
ATOM     33  C   UNL     1       0.075  11.834  18.895  0.00  0.00    +0.000 A 
ATOM     34  C   UNL     1      -0.090  10.459  19.080  0.00  0.00    +0.000 A 
ATOM     35  C   UNL     1      -1.223   9.792  18.601  0.00  0.00    +0.000 A 
ENDBRANCH  23  33
ENDBRANCH  22  26
ENDBRANCH  21  22
ENDBRANCH   1  21
TORSDOF 6
ENDMDL
MODEL 8
REMARK VINA RESULT:      -6.8      4.366      6.689
REMARK  Name = 
REMARK  7 active torsions:
REMARK  status: ('A' for Active; 'I' for Inactive)
REMARK    1  A    between atoms: C_1  and  C_2
REMARK    2  A    between atoms: C_5  and  N_6
REMARK    3  A    between atoms: N_9  and  C_10
REMARK    4  A    between atoms: C_10  and  C_11
REMARK    5  A    between atoms: C_11  and  N_12
REMARK    6  A    between atoms: C_16  and  C_17
REMARK    7  A    between atoms: C_16  and  C_23
REMARK                            x       y       z     vdW  Elec       q    Type
REMARK                         _______ _______ _______ _____ _____    ______ ____
ROOT
ATOM      1  N   UNL     1      -0.093  15.655  21.264  0.00  0.00    +0.000 N 
ATOM      2  C   UNL     1      -0.403  14.391  21.858  0.00  0.00    +0.000 C 
ATOM      3  O   UNL     1       0.465  13.711  22.398  0.00  0.00    +0.000 OA
ATOM      4  N   UNL     1      -1.744  14.025  21.883  0.00  0.00    +0.000 N 
ATOM      5  C   UNL     1      -2.651  12.665  21.139  0.00  0.00    +0.000 C 
ATOM      6  C   UNL     1      -1.115  16.760  20.569  0.00  0.00    +0.000 C 
ATOM      7  O   UNL     1      -0.672  17.939  20.405  0.00  0.00    +0.000 OA
ATOM      8  H   UNL     1      -2.331  14.838  21.780  0.00  0.00    +0.000 HD
ENDROOT
BRANCH   5   9
ATOM      9  C   UNL     1      -1.371  11.798  21.235  0.00  0.00    +0.000 A 
ATOM     10  C   UNL     1      -1.162  11.019  22.402  0.00  0.00    +0.000 A 
ATOM     11  C   UNL     1      -0.017  10.247  22.579  0.00  0.00    +0.000 A 
ATOM     12  C   UNL     1       0.925  10.192  21.561  0.00  0.00    +0.000 A 
ATOM     13  C   UNL     1       0.695  10.876  20.360  0.00  0.00    +0.000 A 
ATOM     14  C   UNL     1      -0.453  11.663  20.189  0.00  0.00    +0.000 A 
ENDBRANCH   5   9
BRANCH   5  15
ATOM     15  C   UNL     1      -3.672  12.869  22.362  0.00  0.00    +0.000 A 
ATOM     16  C   UNL     1      -5.008  13.131  22.033  0.00  0.00    +0.000 A 
ATOM     17  C   UNL     1      -6.019  13.031  23.004  0.00  0.00    +0.000 A 
ATOM     18  C   UNL     1      -5.722  12.665  24.320  0.00  0.00    +0.000 A 
ATOM     19  C   UNL     1      -4.414  12.398  24.678  0.00  0.00    +0.000 A 
ATOM     20  C   UNL     1      -3.413  12.474  23.709  0.00  0.00    +0.000 A 
ENDBRANCH   5  15
BRANCH   1  21
ATOM     21  C   UNL     1       1.315  15.959  21.101  0.00  0.00    +0.000 C 
BRANCH  21  22
ATOM     22  C   UNL     1       1.866  15.590  19.721  0.00  0.00    +0.000 C 
BRANCH  22  26
ATOM     23  N   UNL     1       5.283  15.119  18.883  0.00  0.00    +0.000 N 
ATOM     24  C   UNL     1       4.224  14.951  17.878  0.00  0.00    +0.000 C 
ATOM     25  C   UNL     1       3.149  13.962  18.367  0.00  0.00    +0.000 C 
ATOM     26  N   UNL     1       2.580  14.291  19.699  0.00  0.00    +0.000 NA
ATOM     27  C   UNL     1       3.716  14.320  20.654  0.00  0.00    +0.000 C 
ATOM     28  C   UNL     1       4.854  15.304  20.281  0.00  0.00    +0.000 C 
BRANCH  23  33
ATOM     29  C   UNL     1      10.668  13.563  17.763  0.00  0.00    +0.000 C 
ATOM     30  C   UNL     1       9.257  13.961  18.062  0.00  0.00    +0.000 A 
ATOM     31  C   UNL     1       8.185  13.375  17.389  0.00  0.00    +0.000 A 
ATOM     32  C   UNL     1       6.877  13.767  17.675  0.00  0.00    +0.000 A 
ATOM     33  C   UNL     1       6.595  14.751  18.633  0.00  0.00    +0.000 A 
ATOM     34  C   UNL     1       7.676  15.321  19.308  0.00  0.00    +0.000 A 
ATOM     35  C   UNL     1       8.993  14.934  19.029  0.00  0.00    +0.000 A 
ENDBRANCH  23  33
ENDBRANCH  22  26
ENDBRANCH  21  22
ENDBRANCH   1  21
TORSDOF 6
ENDMDL
MODEL 9
REMARK VINA RESULT:      -6.6      3.736      7.388
REMARK  Name = 
REMARK  7 active torsions:
REMARK  status: ('A' for Active; 'I' for Inactive)
REMARK    1  A    between atoms: C_1  and  C_2
REMARK    2  A    between atoms: C_5  and  N_6
REMARK    3  A    between atoms: N_9  and  C_10
REMARK    4  A    between atoms: C_10  and  C_11
REMARK    5  A    between atoms: C_11  and  N_12
REMARK    6  A    between atoms: C_16  and  C_17
REMARK    7  A    between atoms: C_16  and  C_23
REMARK                            x       y       z     vdW  Elec       q    Type
REMARK                         _______ _______ _______ _____ _____    ______ ____
ROOT
ATOM      1  N   UNL     1       0.162  13.754  20.178  0.00  0.00    +0.000 N 
ATOM      2  C   UNL     1      -0.088  12.742  19.198  0.00  0.00    +0.000 C 
ATOM      3  O   UNL     1      -0.536  13.025  18.090  0.00  0.00    +0.000 OA
ATOM      4  N   UNL     1       0.297  11.447  19.525  0.00  0.00    +0.000 N 
ATOM      5  C   UNL     1      -0.623   9.920  19.746  0.00  0.00    +0.000 C 
ATOM      6  C   UNL     1       0.838  13.603  21.684  0.00  0.00    +0.000 C 
ATOM      7  O   UNL     1       1.258  14.665  22.242  0.00  0.00    +0.000 OA
ATOM      8  H   UNL     1       0.988  11.462  20.259  0.00  0.00    +0.000 HD
ENDROOT
BRANCH   5   9
ATOM      9  C   UNL     1      -1.658  10.430  18.713  0.00  0.00    +0.000 A 
ATOM     10  C   UNL     1      -1.552   9.990  17.369  0.00  0.00    +0.000 A 
ATOM     11  C   UNL     1      -2.420  10.436  16.375  0.00  0.00    +0.000 A 
ATOM     12  C   UNL     1      -3.456  11.294  16.718  0.00  0.00    +0.000 A 
ATOM     13  C   UNL     1      -3.639  11.666  18.056  0.00  0.00    +0.000 A 
ATOM     14  C   UNL     1      -2.757  11.226  19.053  0.00  0.00    +0.000 A 
ENDBRANCH   5   9
BRANCH   5  15
ATOM     15  C   UNL     1       0.754   9.203  19.334  0.00  0.00    +0.000 A 
ATOM     16  C   UNL     1       1.238   8.220  20.207  0.00  0.00    +0.000 A 
ATOM     17  C   UNL     1       2.255   7.338  19.800  0.00  0.00    +0.000 A 
ATOM     18  C   UNL     1       2.808   7.415  18.519  0.00  0.00    +0.000 A 
ATOM     19  C   UNL     1       2.350   8.373  17.632  0.00  0.00    +0.000 A 
ATOM     20  C   UNL     1       1.324   9.232  18.027  0.00  0.00    +0.000 A 
ENDBRANCH   5  15
BRANCH   1  21
ATOM     21  C   UNL     1      -0.381  15.068  19.896  0.00  0.00    +0.000 C 
BRANCH  21  22
ATOM     22  C   UNL     1       0.683  16.163  19.794  0.00  0.00    +0.000 C 
BRANCH  22  26
ATOM     23  N   UNL     1       4.197  16.223  19.295  0.00  0.00    +0.000 N 
ATOM     24  C   UNL     1       3.411  17.464  19.309  0.00  0.00    +0.000 C 
ATOM     25  C   UNL     1       2.240  17.389  18.310  0.00  0.00    +0.000 C 
ATOM     26  N   UNL     1       1.370  16.198  18.480  0.00  0.00    +0.000 NA
ATOM     27  C   UNL     1       2.242  15.006  18.332  0.00  0.00    +0.000 C 
ATOM     28  C   UNL     1       3.446  14.956  19.308  0.00  0.00    +0.000 C 
BRANCH  23  33
ATOM     29  C   UNL     1       9.663  16.073  17.627  0.00  0.00    +0.000 C 
ATOM     30  C   UNL     1       8.234  16.105  18.072  0.00  0.00    +0.000 A 
ATOM     31  C   UNL     1       7.362  15.060  17.770  0.00  0.00    +0.000 A 
ATOM     32  C   UNL     1       6.031  15.112  18.186  0.00  0.00    +0.000 A 
ATOM     33  C   UNL     1       5.527  16.203  18.908  0.00  0.00    +0.000 A 
ATOM     34  C   UNL     1       6.415  17.238  19.213  0.00  0.00    +0.000 A 
ATOM     35  C   UNL     1       7.752  17.194  18.802  0.00  0.00    +0.000 A 
ENDBRANCH  23  33
ENDBRANCH  22  26
ENDBRANCH  21  22
ENDBRANCH   1  21
TORSDOF 6
ENDMDL
