MODEL 1
REMARK VINA RESULT:      -7.4      0.000      0.000
REMARK  Name = 
REMARK  5 active torsions:
REMARK  status: ('A' for Active; 'I' for Inactive)
REMARK    1  A    between atoms: C_1  and  C_2
REMARK    2  A    between atoms: N_4  and  C_5
REMARK    3  A    between atoms: C_5  and  C_6
REMARK    4  A    between atoms: C_5  and  C_12
REMARK    5  A    between atoms: C_13  and  O_14
REMARK                            x       y       z     vdW  Elec       q    Type
REMARK                         _______ _______ _______ _____ _____    ______ ____
ROOT
ATOM      1  C   UNL     1       3.294   5.081  18.001  0.00  0.00    +0.000 C 
ENDROOT
BRANCH   1   2
ATOM      2  C   UNL     1       4.826   5.009  17.867  0.00  0.00    +0.000 A 
ATOM      3  C   UNL     1       5.677   5.238  18.968  0.00  0.00    +0.000 A 
ATOM      4  C   UNL     1       7.068   5.288  18.840  0.00  0.00    +0.000 A 
ATOM      5  C   UNL     1       7.649   5.169  17.585  0.00  0.00    +0.000 A 
ATOM      6  C   UNL     1       6.855   4.944  16.458  0.00  0.00    +0.000 A 
ATOM      7  C   UNL     1       7.474   4.900  15.199  0.00  0.00    +0.000 A 
ATOM      8  C   UNL     1       6.743   4.624  14.050  0.00  0.00    +0.000 A 
ATOM      9  C   UNL     1       5.399   4.309  14.164  0.00  0.00    +0.000 A 
ATOM     10  C   UNL     1       4.765   4.380  15.407  0.00  0.00    +0.000 A 
ATOM     11  C   UNL     1       5.446   4.775  16.587  0.00  0.00    +0.000 A 
BRANCH   3  12
ATOM     12  O   UNL     1       5.178   5.434  20.223  0.00  0.00    +0.000 OA
ATOM     13  H   UNL     1       5.403   4.619  20.712  0.00  0.00    +0.000 HD
ENDBRANCH   3  12
ENDBRANCH   1   2
BRANCH   1  14
ATOM     14  C   UNL     1       2.737   6.466  18.373  0.00  0.00    +0.000 A 
ATOM     15  C   UNL     1       2.805   7.554  17.487  0.00  0.00    +0.000 A 
ATOM     16  C   UNL     1       2.288   8.804  17.832  0.00  0.00    +0.000 A 
ATOM     17  C   UNL     1       1.717   9.002  19.085  0.00  0.00    +0.000 A 
ATOM     18  C   UNL     1       1.683   7.952  20.000  0.00  0.00    +0.000 A 
ATOM     19  C   UNL     1       2.182   6.692  19.647  0.00  0.00    +0.000 A 
ENDBRANCH   1  14
BRANCH   1  23
ATOM     20  C   UNL     1       1.547   2.017  19.370  0.00  0.00    +0.000 C 
ATOM     21  C   UNL     1       2.154   2.917  18.327  0.00  0.00    +0.000 C 
ATOM     22  O   UNL     1       2.134   2.640  17.137  0.00  0.00    +0.000 OA
ATOM     23  N   UNL     1       2.755   4.040  18.859  0.00  0.00    +0.000 N 
ATOM     24  H   UNL     1       2.596   4.290  19.827  0.00  0.00    +0.000 HD
ENDBRANCH   1  23
TORSDOF 4
ENDMDL
MODEL 2
REMARK VINA RESULT:      -7.4      0.052      1.027
REMARK  Name = 
REMARK  5 active torsions:
REMARK  status: ('A' for Active; 'I' for Inactive)
REMARK    1  A    between atoms: C_1  and  C_2
REMARK    2  A    between atoms: N_4  and  C_5
REMARK    3  A    between atoms: C_5  and  C_6
REMARK    4  A    between atoms: C_5  and  C_12
REMARK    5  A    between atoms: C_13  and  O_14
REMARK                            x       y       z     vdW  Elec       q    Type
REMARK                         _______ _______ _______ _____ _____    ______ ____
ROOT
ATOM      1  C   UNL     1       3.269   5.114  18.015  0.00  0.00    +0.000 C 
ENDROOT
BRANCH   1   2
ATOM      2  C   UNL     1       4.801   5.037  17.884  0.00  0.00    +0.000 A 
ATOM      3  C   UNL     1       5.651   5.274  18.984  0.00  0.00    +0.000 A 
ATOM      4  C   UNL     1       7.042   5.320  18.858  0.00  0.00    +0.000 A 
ATOM      5  C   UNL     1       7.625   5.189  17.604  0.00  0.00    +0.000 A 
ATOM      6  C   UNL     1       6.831   4.955  16.478  0.00  0.00    +0.000 A 
ATOM      7  C   UNL     1       7.451   4.899  15.220  0.00  0.00    +0.000 A 
ATOM      8  C   UNL     1       6.721   4.615  14.073  0.00  0.00    +0.000 A 
ATOM      9  C   UNL     1       5.377   4.304  14.188  0.00  0.00    +0.000 A 
ATOM     10  C   UNL     1       4.742   4.387  15.430  0.00  0.00    +0.000 A 
ATOM     11  C   UNL     1       5.422   4.791  16.607  0.00  0.00    +0.000 A 
BRANCH   3  12
ATOM     12  O   UNL     1       5.151   5.482  20.237  0.00  0.00    +0.000 OA
ATOM     13  H   UNL     1       4.817   4.610  20.520  0.00  0.00    +0.000 HD
ENDBRANCH   3  12
ENDBRANCH   1   2
BRANCH   1  14
ATOM     14  C   UNL     1       2.717   6.493  18.415  0.00  0.00    +0.000 A 
ATOM     15  C   UNL     1       2.165   6.730  19.684  0.00  0.00    +0.000 A 
ATOM     16  C   UNL     1       1.675   7.989  20.039  0.00  0.00    +0.000 A 
ATOM     17  C   UNL     1       1.699   9.032  19.118  0.00  0.00    +0.000 A 
ATOM     18  C   UNL     1       2.195   8.808  17.837  0.00  0.00    +0.000 A 
ATOM     19  C   UNL     1       2.707   7.552  17.487  0.00  0.00    +0.000 A 
ENDBRANCH   1  14
BRANCH   1  23
ATOM     20  C   UNL     1       1.519   2.021  19.315  0.00  0.00    +0.000 C 
ATOM     21  C   UNL     1       2.137   2.938  18.294  0.00  0.00    +0.000 C 
ATOM     22  O   UNL     1       2.138   2.678  17.100  0.00  0.00    +0.000 OA
ATOM     23  N   UNL     1       2.723   4.058  18.850  0.00  0.00    +0.000 N 
ATOM     24  H   UNL     1       2.547   4.293  19.819  0.00  0.00    +0.000 HD
ENDBRANCH   1  23
TORSDOF 4
ENDMDL
MODEL 3
REMARK VINA RESULT:      -7.3      2.049      5.110
REMARK  Name = 
REMARK  5 active torsions:
REMARK  status: ('A' for Active; 'I' for Inactive)
REMARK    1  A    between atoms: C_1  and  C_2
REMARK    2  A    between atoms: N_4  and  C_5
REMARK    3  A    between atoms: C_5  and  C_6
REMARK    4  A    between atoms: C_5  and  C_12
REMARK    5  A    between atoms: C_13  and  O_14
REMARK                            x       y       z     vdW  Elec       q    Type
REMARK                         _______ _______ _______ _____ _____    ______ ____
ROOT
ATOM      1  C   UNL     1       4.094   6.043  18.941  0.00  0.00    +0.000 C 
ENDROOT
BRANCH   1   2
ATOM      2  C   UNL     1       3.519   4.658  18.594  0.00  0.00    +0.000 A 
ATOM      3  C   UNL     1       3.577   4.139  17.283  0.00  0.00    +0.000 A 
ATOM      4  C   UNL     1       2.962   2.936  16.926  0.00  0.00    +0.000 A 
ATOM      5  C   UNL     1       2.212   2.242  17.866  0.00  0.00    +0.000 A 
ATOM      6  C   UNL     1       2.117   2.709  19.179  0.00  0.00    +0.000 A 
ATOM      7  C   UNL     1       1.293   2.017  20.080  0.00  0.00    +0.000 A 
ATOM      8  C   UNL     1       1.203   2.403  21.411  0.00  0.00    +0.000 A 
ATOM      9  C   UNL     1       2.001   3.437  21.870  0.00  0.00    +0.000 A 
ATOM     10  C   UNL     1       2.802   4.154  20.977  0.00  0.00    +0.000 A 
ATOM     11  C   UNL     1       2.833   3.872  19.588  0.00  0.00    +0.000 A 
BRANCH   3  12
ATOM     12  O   UNL     1       4.236   4.800  16.287  0.00  0.00    +0.000 OA
ATOM     13  H   UNL     1       4.036   4.293  15.476  0.00  0.00    +0.000 HD
ENDBRANCH   3  12
ENDBRANCH   1   2
BRANCH   1  14
ATOM     14  C   UNL     1       3.087   7.204  18.865  0.00  0.00    +0.000 A 
ATOM     15  C   UNL     1       2.214   7.497  19.925  0.00  0.00    +0.000 A 
ATOM     16  C   UNL     1       1.310   8.559  19.850  0.00  0.00    +0.000 A 
ATOM     17  C   UNL     1       1.241   9.334  18.697  0.00  0.00    +0.000 A 
ATOM     18  C   UNL     1       2.061   9.033  17.613  0.00  0.00    +0.000 A 
ATOM     19  C   UNL     1       2.983   7.981  17.696  0.00  0.00    +0.000 A 
ENDBRANCH   1  14
BRANCH   1  23
ATOM     20  C   UNL     1       7.697   6.495  17.877  0.00  0.00    +0.000 C 
ATOM     21  C   UNL     1       6.550   5.987  18.710  0.00  0.00    +0.000 C 
ATOM     22  O   UNL     1       6.723   5.298  19.705  0.00  0.00    +0.000 OA
ATOM     23  N   UNL     1       5.313   6.344  18.212  0.00  0.00    +0.000 N 
ATOM     24  H   UNL     1       5.243   7.045  17.484  0.00  0.00    +0.000 HD
ENDBRANCH   1  23
TORSDOF 4
ENDMDL
MODEL 4
REMARK VINA RESULT:      -7.2      2.047      5.006
REMARK  Name = 
REMARK  5 active torsions:
REMARK  status: ('A' for Active; 'I' for Inactive)
REMARK    1  A    between atoms: C_1  and  C_2
REMARK    2  A    between atoms: N_4  and  C_5
REMARK    3  A    between atoms: C_5  and  C_6
REMARK    4  A    between atoms: C_5  and  C_12
REMARK    5  A    between atoms: C_13  and  O_14
REMARK                            x       y       z     vdW  Elec       q    Type
REMARK                         _______ _______ _______ _____ _____    ______ ____
ROOT
ATOM      1  C   UNL     1       4.083   6.040  18.927  0.00  0.00    +0.000 C 
ENDROOT
BRANCH   1   2
ATOM      2  C   UNL     1       3.515   4.650  18.587  0.00  0.00    +0.000 A 
ATOM      3  C   UNL     1       3.578   4.124  17.279  0.00  0.00    +0.000 A 
ATOM      4  C   UNL     1       2.968   2.917  16.928  0.00  0.00    +0.000 A 
ATOM      5  C   UNL     1       2.220   2.224  17.871  0.00  0.00    +0.000 A 
ATOM      6  C   UNL     1       2.122   2.698  19.181  0.00  0.00    +0.000 A 
ATOM      7  C   UNL     1       1.300   2.007  20.085  0.00  0.00    +0.000 A 
ATOM      8  C   UNL     1       1.206   2.401  21.414  0.00  0.00    +0.000 A 
ATOM      9  C   UNL     1       1.999   3.441  21.868  0.00  0.00    +0.000 A 
ATOM     10  C   UNL     1       2.798   4.156  20.972  0.00  0.00    +0.000 A 
ATOM     11  C   UNL     1       2.831   3.866  19.584  0.00  0.00    +0.000 A 
BRANCH   3  12
ATOM     12  O   UNL     1       4.235   4.782  16.280  0.00  0.00    +0.000 OA
ATOM     13  H   UNL     1       4.970   4.190  16.032  0.00  0.00    +0.000 HD
ENDBRANCH   3  12
ENDBRANCH   1   2
BRANCH   1  14
ATOM     14  C   UNL     1       3.074   7.197  18.835  0.00  0.00    +0.000 A 
ATOM     15  C   UNL     1       2.991   8.018  17.698  0.00  0.00    +0.000 A 
ATOM     16  C   UNL     1       2.065   9.060  17.621  0.00  0.00    +0.000 A 
ATOM     17  C   UNL     1       1.221   9.324  18.695  0.00  0.00    +0.000 A 
ATOM     18  C   UNL     1       1.319   8.557  19.853  0.00  0.00    +0.000 A 
ATOM     19  C   UNL     1       2.232   7.497  19.923  0.00  0.00    +0.000 A 
ENDBRANCH   1  14
BRANCH   1  23
ATOM     20  C   UNL     1       7.692   6.489  17.882  0.00  0.00    +0.000 C 
ATOM     21  C   UNL     1       6.541   5.983  18.710  0.00  0.00    +0.000 C 
ATOM     22  O   UNL     1       6.708   5.296  19.707  0.00  0.00    +0.000 OA
ATOM     23  N   UNL     1       5.307   6.339  18.204  0.00  0.00    +0.000 N 
ATOM     24  H   UNL     1       5.241   7.038  17.474  0.00  0.00    +0.000 HD
ENDBRANCH   1  23
TORSDOF 4
ENDMDL
MODEL 5
REMARK VINA RESULT:      -7.1      2.221      5.416
REMARK  Name = 
REMARK  5 active torsions:
REMARK  status: ('A' for Active; 'I' for Inactive)
REMARK    1  A    between atoms: C_1  and  C_2
REMARK    2  A    between atoms: N_4  and  C_5
REMARK    3  A    between atoms: C_5  and  C_6
REMARK    4  A    between atoms: C_5  and  C_12
REMARK    5  A    between atoms: C_13  and  O_14
REMARK                            x       y       z     vdW  Elec       q    Type
REMARK                         _______ _______ _______ _____ _____    ______ ____
ROOT
ATOM      1  C   UNL     1       5.100   5.109  17.622  0.00  0.00    +0.000 C 
ENDROOT
BRANCH   1   2
ATOM      2  C   UNL     1       3.839   5.356  18.468  0.00  0.00    +0.000 A 
ATOM      3  C   UNL     1       3.113   6.563  18.382  0.00  0.00    +0.000 A 
ATOM      4  C   UNL     1       2.034   6.849  19.222  0.00  0.00    +0.000 A 
ATOM      5  C   UNL     1       1.685   5.953  20.224  0.00  0.00    +0.000 A 
ATOM      6  C   UNL     1       2.370   4.743  20.359  0.00  0.00    +0.000 A 
ATOM      7  C   UNL     1       2.033   3.897  21.427  0.00  0.00    +0.000 A 
ATOM      8  C   UNL     1       2.642   2.658  21.579  0.00  0.00    +0.000 A 
ATOM      9  C   UNL     1       3.535   2.221  20.615  0.00  0.00    +0.000 A 
ATOM     10  C   UNL     1       3.901   3.066  19.564  0.00  0.00    +0.000 A 
ATOM     11  C   UNL     1       3.396   4.385  19.438  0.00  0.00    +0.000 A 
BRANCH   3  12
ATOM     12  O   UNL     1       3.440   7.524  17.469  0.00  0.00    +0.000 OA
ATOM     13  H   UNL     1       3.343   7.087  16.601  0.00  0.00    +0.000 HD
ENDBRANCH   3  12
ENDBRANCH   1   2
BRANCH   1  14
ATOM     14  C   UNL     1       6.296   6.018  17.952  0.00  0.00    +0.000 A 
ATOM     15  C   UNL     1       6.585   7.165  17.194  0.00  0.00    +0.000 A 
ATOM     16  C   UNL     1       7.668   7.988  17.509  0.00  0.00    +0.000 A 
ATOM     17  C   UNL     1       8.505   7.665  18.572  0.00  0.00    +0.000 A 
ATOM     18  C   UNL     1       8.269   6.506  19.307  0.00  0.00    +0.000 A 
ATOM     19  C   UNL     1       7.170   5.691  19.007  0.00  0.00    +0.000 A 
ENDBRANCH   1  14
BRANCH   1  23
ATOM     20  C   UNL     1       5.194   4.473  13.893  0.00  0.00    +0.000 C 
ATOM     21  C   UNL     1       5.536   4.264  15.344  0.00  0.00    +0.000 C 
ATOM     22  O   UNL     1       6.339   3.419  15.710  0.00  0.00    +0.000 OA
ATOM     23  N   UNL     1       4.824   5.086  16.196  0.00  0.00    +0.000 N 
ATOM     24  H   UNL     1       4.300   5.868  15.824  0.00  0.00    +0.000 HD
ENDBRANCH   1  23
TORSDOF 4
ENDMDL
MODEL 6
REMARK VINA RESULT:      -7.0      2.216      5.488
REMARK  Name = 
REMARK  5 active torsions:
REMARK  status: ('A' for Active; 'I' for Inactive)
REMARK    1  A    between atoms: C_1  and  C_2
REMARK    2  A    between atoms: N_4  and  C_5
REMARK    3  A    between atoms: C_5  and  C_6
REMARK    4  A    between atoms: C_5  and  C_12
REMARK    5  A    between atoms: C_13  and  O_14
REMARK                            x       y       z     vdW  Elec       q    Type
REMARK                         _______ _______ _______ _____ _____    ______ ____
ROOT
ATOM      1  C   UNL     1       5.098   5.097  17.643  0.00  0.00    +0.000 C 
ENDROOT
BRANCH   1   2
ATOM      2  C   UNL     1       3.846   5.353  18.501  0.00  0.00    +0.000 A 
ATOM      3  C   UNL     1       3.137   6.570  18.433  0.00  0.00    +0.000 A 
ATOM      4  C   UNL     1       2.069   6.863  19.284  0.00  0.00    +0.000 A 
ATOM      5  C   UNL     1       1.714   5.960  20.278  0.00  0.00    +0.000 A 
ATOM      6  C   UNL     1       2.382   4.739  20.395  0.00  0.00    +0.000 A 
ATOM      7  C   UNL     1       2.041   3.886  21.455  0.00  0.00    +0.000 A 
ATOM      8  C   UNL     1       2.633   2.636  21.589  0.00  0.00    +0.000 A 
ATOM      9  C   UNL     1       3.513   2.198  20.614  0.00  0.00    +0.000 A 
ATOM     10  C   UNL     1       3.884   3.050  19.571  0.00  0.00    +0.000 A 
ATOM     11  C   UNL     1       3.397   4.377  19.462  0.00  0.00    +0.000 A 
BRANCH   3  12
ATOM     12  O   UNL     1       3.471   7.537  17.528  0.00  0.00    +0.000 OA
ATOM     13  H   UNL     1       2.892   7.372  16.761  0.00  0.00    +0.000 HD
ENDBRANCH   3  12
ENDBRANCH   1   2
BRANCH   1  14
ATOM     14  C   UNL     1       6.304   5.997  17.965  0.00  0.00    +0.000 A 
ATOM     15  C   UNL     1       7.175   5.714  19.030  0.00  0.00    +0.000 A 
ATOM     16  C   UNL     1       8.272   6.532  19.308  0.00  0.00    +0.000 A 
ATOM     17  C   UNL     1       8.504   7.671  18.543  0.00  0.00    +0.000 A 
ATOM     18  C   UNL     1       7.626   8.001  17.513  0.00  0.00    +0.000 A 
ATOM     19  C   UNL     1       6.538   7.169  17.220  0.00  0.00    +0.000 A 
ENDBRANCH   1  14
BRANCH   1  23
ATOM     20  C   UNL     1       5.155   4.469  13.912  0.00  0.00    +0.000 C 
ATOM     21  C   UNL     1       5.508   4.254  15.360  0.00  0.00    +0.000 C 
ATOM     22  O   UNL     1       6.310   3.403  15.716  0.00  0.00    +0.000 OA
ATOM     23  N   UNL     1       4.810   5.080  16.219  0.00  0.00    +0.000 N 
ATOM     24  H   UNL     1       4.288   5.866  15.854  0.00  0.00    +0.000 HD
ENDBRANCH   1  23
TORSDOF 4
ENDMDL
MODEL 7
REMARK VINA RESULT:      -6.8      2.250      5.448
REMARK  Name = 
REMARK  5 active torsions:
REMARK  status: ('A' for Active; 'I' for Inactive)
REMARK    1  A    between atoms: C_1  and  C_2
REMARK    2  A    between atoms: N_4  and  C_5
REMARK    3  A    between atoms: C_5  and  C_6
REMARK    4  A    between atoms: C_5  and  C_12
REMARK    5  A    between atoms: C_13  and  O_14
REMARK                            x       y       z     vdW  Elec       q    Type
REMARK                         _______ _______ _______ _____ _____    ______ ____
ROOT
ATOM      1  C   UNL     1       3.997   5.943  17.887  0.00  0.00    +0.000 C 
ENDROOT
BRANCH   1   2
ATOM      2  C   UNL     1       3.632   4.454  18.020  0.00  0.00    +0.000 A 
ATOM      3  C   UNL     1       3.887   3.534  16.981  0.00  0.00    +0.000 A 
ATOM      4  C   UNL     1       3.461   2.204  17.038  0.00  0.00    +0.000 A 
ATOM      5  C   UNL     1       2.708   1.769  18.121  0.00  0.00    +0.000 A 
ATOM      6  C   UNL     1       2.423   2.636  19.178  0.00  0.00    +0.000 A 
ATOM      7  C   UNL     1       1.600   2.179  20.218  0.00  0.00    +0.000 A 
ATOM      8  C   UNL     1       1.328   2.978  21.321  0.00  0.00    +0.000 A 
ATOM      9  C   UNL     1       1.945   4.213  21.429  0.00  0.00    +0.000 A 
ATOM     10  C   UNL     1       2.740   4.693  20.385  0.00  0.00    +0.000 A 
ATOM     11  C   UNL     1       2.947   3.961  19.188  0.00  0.00    +0.000 A 
BRANCH   3  12
ATOM     12  O   UNL     1       4.560   3.905  15.853  0.00  0.00    +0.000 OA
ATOM     13  H   UNL     1       4.189   4.776  15.616  0.00  0.00    +0.000 HD
ENDBRANCH   3  12
ENDBRANCH   1   2
BRANCH   1  14
ATOM     14  C   UNL     1       5.482   6.274  18.118  0.00  0.00    +0.000 A 
ATOM     15  C   UNL     1       6.156   7.230  17.340  0.00  0.00    +0.000 A 
ATOM     16  C   UNL     1       7.502   7.529  17.564  0.00  0.00    +0.000 A 
ATOM     17  C   UNL     1       8.211   6.855  18.553  0.00  0.00    +0.000 A 
ATOM     18  C   UNL     1       7.578   5.867  19.304  0.00  0.00    +0.000 A 
ATOM     19  C   UNL     1       6.223   5.582  19.095  0.00  0.00    +0.000 A 
ENDBRANCH   1  14
BRANCH   1  23
ATOM     20  C   UNL     1       1.835   8.787  19.134  0.00  0.00    +0.000 C 
ATOM     21  C   UNL     1       2.603   7.965  18.134  0.00  0.00    +0.000 C 
ATOM     22  O   UNL     1       2.706   8.294  16.962  0.00  0.00    +0.000 OA
ATOM     23  N   UNL     1       3.130   6.806  18.670  0.00  0.00    +0.000 N 
ATOM     24  H   UNL     1       3.147   6.675  19.674  0.00  0.00    +0.000 HD
ENDBRANCH   1  23
TORSDOF 4
ENDMDL
MODEL 8
REMARK VINA RESULT:      -6.7      2.254      5.545
REMARK  Name = 
REMARK  5 active torsions:
REMARK  status: ('A' for Active; 'I' for Inactive)
REMARK    1  A    between atoms: C_1  and  C_2
REMARK    2  A    between atoms: N_4  and  C_5
REMARK    3  A    between atoms: C_5  and  C_6
REMARK    4  A    between atoms: C_5  and  C_12
REMARK    5  A    between atoms: C_13  and  O_14
REMARK                            x       y       z     vdW  Elec       q    Type
REMARK                         _______ _______ _______ _____ _____    ______ ____
ROOT
ATOM      1  C   UNL     1       3.988   5.923  17.913  0.00  0.00    +0.000 C 
ENDROOT
BRANCH   1   2
ATOM      2  C   UNL     1       3.604   4.438  18.036  0.00  0.00    +0.000 A 
ATOM      3  C   UNL     1       3.831   3.525  16.985  0.00  0.00    +0.000 A 
ATOM      4  C   UNL     1       3.386   2.201  17.035  0.00  0.00    +0.000 A 
ATOM      5  C   UNL     1       2.642   1.765  18.124  0.00  0.00    +0.000 A 
ATOM      6  C   UNL     1       2.385   2.627  19.193  0.00  0.00    +0.000 A 
ATOM      7  C   UNL     1       1.570   2.170  20.240  0.00  0.00    +0.000 A 
ATOM      8  C   UNL     1       1.324   2.962  21.355  0.00  0.00    +0.000 A 
ATOM      9  C   UNL     1       1.960   4.187  21.466  0.00  0.00    +0.000 A 
ATOM     10  C   UNL     1       2.748   4.666  20.416  0.00  0.00    +0.000 A 
ATOM     11  C   UNL     1       2.928   3.944  19.209  0.00  0.00    +0.000 A 
BRANCH   3  12
ATOM     12  O   UNL     1       4.494   3.898  15.851  0.00  0.00    +0.000 OA
ATOM     13  H   UNL     1       4.804   3.060  15.457  0.00  0.00    +0.000 HD
ENDBRANCH   3  12
ENDBRANCH   1   2
BRANCH   1  14
ATOM     14  C   UNL     1       5.479   6.232  18.133  0.00  0.00    +0.000 A 
ATOM     15  C   UNL     1       6.230   5.583  19.128  0.00  0.00    +0.000 A 
ATOM     16  C   UNL     1       7.585   5.864  19.313  0.00  0.00    +0.000 A 
ATOM     17  C   UNL     1       8.213   6.825  18.526  0.00  0.00    +0.000 A 
ATOM     18  C   UNL     1       7.477   7.517  17.567  0.00  0.00    +0.000 A 
ATOM     19  C   UNL     1       6.123   7.221  17.366  0.00  0.00    +0.000 A 
ENDBRANCH   1  14
BRANCH   1  23
ATOM     20  C   UNL     1       1.848   8.771  19.190  0.00  0.00    +0.000 C 
ATOM     21  C   UNL     1       2.590   7.940  18.177  0.00  0.00    +0.000 C 
ATOM     22  O   UNL     1       2.654   8.254  16.998  0.00  0.00    +0.000 OA
ATOM     23  N   UNL     1       3.140   6.792  18.711  0.00  0.00    +0.000 N 
ATOM     24  H   UNL     1       3.189   6.673  19.715  0.00  0.00    +0.000 HD
ENDBRANCH   1  23
TORSDOF 4
ENDMDL
MODEL 9
REMARK VINA RESULT:      -6.5      5.847      8.791
REMARK  Name = 
REMARK  5 active torsions:
REMARK  status: ('A' for Active; 'I' for Inactive)
REMARK    1  A    between atoms: C_1  and  C_2
REMARK    2  A    between atoms: N_4  and  C_5
REMARK    3  A    between atoms: C_5  and  C_6
REMARK    4  A    between atoms: C_5  and  C_12
REMARK    5  A    between atoms: C_13  and  O_14
REMARK                            x       y       z     vdW  Elec       q    Type
REMARK                         _______ _______ _______ _____ _____    ______ ____
ROOT
ATOM      1  C   UNL     1      -0.148  11.800  18.307  0.00  0.00    +0.000 C 
ENDROOT
BRANCH   1   2
ATOM      2  C   UNL     1       0.421  10.684  19.201  0.00  0.00    +0.000 A 
ATOM      3  C   UNL     1       1.248   9.667  18.680  0.00  0.00    +0.000 A 
ATOM      4  C   UNL     1       1.680   8.585  19.452  0.00  0.00    +0.000 A 
ATOM      5  C   UNL     1       1.243   8.457  20.763  0.00  0.00    +0.000 A 
ATOM      6  C   UNL     1       0.420   9.432  21.332  0.00  0.00    +0.000 A 
ATOM      7  C   UNL     1      -0.057   9.231  22.636  0.00  0.00    +0.000 A 
ATOM      8  C   UNL     1      -0.833  10.192  23.272  0.00  0.00    +0.000 A 
ATOM      9  C   UNL     1      -1.068  11.399  22.636  0.00  0.00    +0.000 A 
ATOM     10  C   UNL     1      -0.626  11.599  21.326  0.00  0.00    +0.000 A 
ATOM     11  C   UNL     1       0.065  10.600  20.595  0.00  0.00    +0.000 A 
BRANCH   3  12
ATOM     12  O   UNL     1       1.663   9.686  17.379  0.00  0.00    +0.000 OA
ATOM     13  H   UNL     1       2.259  10.457  17.318  0.00  0.00    +0.000 HD
ENDBRANCH   3  12
ENDBRANCH   1   2
BRANCH   1  14
ATOM     14  C   UNL     1       0.503  13.182  18.495  0.00  0.00    +0.000 A 
ATOM     15  C   UNL     1      -0.262  14.330  18.761  0.00  0.00    +0.000 A 
ATOM     16  C   UNL     1       0.340  15.577  18.939  0.00  0.00    +0.000 A 
ATOM     17  C   UNL     1       1.720  15.709  18.824  0.00  0.00    +0.000 A 
ATOM     18  C   UNL     1       2.495  14.595  18.511  0.00  0.00    +0.000 A 
ATOM     19  C   UNL     1       1.895  13.339  18.354  0.00  0.00    +0.000 A 
ENDBRANCH   1  14
BRANCH   1  23
ATOM     20  C   UNL     1      -3.854  11.437  17.638  0.00  0.00    +0.000 C 
ATOM     21  C   UNL     1      -2.386  11.123  17.519  0.00  0.00    +0.000 C 
ATOM     22  O   UNL     1      -1.964  10.255  16.770  0.00  0.00    +0.000 OA
ATOM     23  N   UNL     1      -1.597  11.881  18.362  0.00  0.00    +0.000 N 
ATOM     24  H   UNL     1      -1.988  12.687  18.833  0.00  0.00    +0.000 HD
ENDBRANCH   1  23
TORSDOF 4
ENDMDL
