MODEL 1
REMARK VINA RESULT:      -5.5      0.000      0.000
REMARK  Name = 
REMARK  5 active torsions:
REMARK  status: ('A' for Active; 'I' for Inactive)
REMARK    1  A    between atoms: C_2  and  C_3
REMARK    2  A    between atoms: C_3  and  N_4
REMARK    3  A    between atoms: C_5  and  N_6
REMARK    4  A    between atoms: N_10  and  C_11
REMARK    5  A    between atoms: C_11  and  C_12
REMARK                            x       y       z     vdW  Elec       q    Type
REMARK                         _______ _______ _______ _____ _____    ______ ____
ROOT
ATOM      1  N   UNL     1       4.288   4.739  18.288  0.00  0.00    +0.000 N 
ATOM      2  C   UNL     1       4.358   3.638  17.446  0.00  0.00    +0.000 A 
ATOM      3  C   UNL     1       3.396   2.712  17.514  0.00  0.00    +0.000 A 
ATOM      4  C   UNL     1       2.282   2.828  18.460  0.00  0.00    +0.000 A 
ATOM      5  O   UNL     1       1.404   1.969  18.446  0.00  0.00    +0.000 OA
ATOM      6  N   UNL     1       2.320   3.904  19.315  0.00  0.00    +0.000 N 
ATOM      7  C   UNL     1       3.269   4.916  19.232  0.00  0.00    +0.000 A 
ATOM      8  O   UNL     1       3.212   5.912  19.958  0.00  0.00    +0.000 OA
ENDROOT
BRANCH   2   9
ATOM      9  N   UNL     1       5.391   3.469  16.540  0.00  0.00    +0.000 N 
ATOM     10  H   UNL     1       6.300   3.654  16.954  0.00  0.00    +0.000 HD
ATOM     11  H   UNL     1       5.272   3.993  15.677  0.00  0.00    +0.000 HD
ENDBRANCH   2   9
BRANCH   6  12
ATOM     12  C   UNL     1       1.292   3.989  20.349  0.00  0.00    +0.000 C 
ATOM     13  C   UNL     1       1.615   3.165  21.587  0.00  0.00    +0.000 C 
ENDBRANCH   6  12
BRANCH   1  14
ATOM     14  C   UNL     1       5.332   5.766  18.254  0.00  0.00    +0.000 C 
BRANCH  14  16
ATOM     15  C   UNL     1       7.702   5.789  19.132  0.00  0.00    +0.000 C 
ATOM     16  C   UNL     1       6.426   5.399  19.222  0.00  0.00    +0.000 C 
ENDBRANCH  14  16
ENDBRANCH   1  14
TORSDOF 4
ENDMDL
MODEL 2
REMARK VINA RESULT:      -5.4      1.935      4.571
REMARK  Name = 
REMARK  5 active torsions:
REMARK  status: ('A' for Active; 'I' for Inactive)
REMARK    1  A    between atoms: C_2  and  C_3
REMARK    2  A    between atoms: C_3  and  N_4
REMARK    3  A    between atoms: C_5  and  N_6
REMARK    4  A    between atoms: N_10  and  C_11
REMARK    5  A    between atoms: C_11  and  C_12
REMARK                            x       y       z     vdW  Elec       q    Type
REMARK                         _______ _______ _______ _____ _____    ______ ____
ROOT
ATOM      1  N   UNL     1       3.324   3.622  18.718  0.00  0.00    +0.000 N 
ATOM      2  C   UNL     1       2.596   4.541  17.976  0.00  0.00    +0.000 A 
ATOM      3  C   UNL     1       3.193   5.673  17.586  0.00  0.00    +0.000 A 
ATOM      4  C   UNL     1       4.586   5.966  17.932  0.00  0.00    +0.000 A 
ATOM      5  O   UNL     1       5.095   7.000  17.507  0.00  0.00    +0.000 OA
ATOM      6  N   UNL     1       5.220   5.045  18.734  0.00  0.00    +0.000 N 
ATOM      7  C   UNL     1       4.652   3.833  19.106  0.00  0.00    +0.000 A 
ATOM      8  O   UNL     1       5.290   2.995  19.749  0.00  0.00    +0.000 OA
ENDROOT
BRANCH   2   9
ATOM      9  N   UNL     1       1.274   4.324  17.628  0.00  0.00    +0.000 N 
ATOM     10  H   UNL     1       1.183   3.877  16.720  0.00  0.00    +0.000 HD
ATOM     11  H   UNL     1       0.691   5.157  17.681  0.00  0.00    +0.000 HD
ENDBRANCH   2   9
BRANCH   6  12
ATOM     12  C   UNL     1       6.569   5.360  19.197  0.00  0.00    +0.000 C 
ATOM     13  C   UNL     1       7.648   5.029  18.176  0.00  0.00    +0.000 C 
ENDBRANCH   6  12
BRANCH   1  14
ATOM     14  C   UNL     1       2.700   2.379  19.177  0.00  0.00    +0.000 C 
BRANCH  14  16
ATOM     15  C   UNL     1       2.181   2.873  21.601  0.00  0.00    +0.000 C 
ATOM     16  C   UNL     1       1.788   2.677  20.339  0.00  0.00    +0.000 C 
ENDBRANCH  14  16
ENDBRANCH   1  14
TORSDOF 4
ENDMDL
MODEL 3
REMARK VINA RESULT:      -5.4      2.274      4.921
REMARK  Name = 
REMARK  5 active torsions:
REMARK  status: ('A' for Active; 'I' for Inactive)
REMARK    1  A    between atoms: C_2  and  C_3
REMARK    2  A    between atoms: C_3  and  N_4
REMARK    3  A    between atoms: C_5  and  N_6
REMARK    4  A    between atoms: N_10  and  C_11
REMARK    5  A    between atoms: C_11  and  C_12
REMARK                            x       y       z     vdW  Elec       q    Type
REMARK                         _______ _______ _______ _____ _____    ______ ____
ROOT
ATOM      1  N   UNL     1       3.463   5.519  19.085  0.00  0.00    +0.000 N 
ATOM      2  C   UNL     1       3.163   6.771  18.569  0.00  0.00    +0.000 A 
ATOM      3  C   UNL     1       3.793   7.182  17.464  0.00  0.00    +0.000 A 
ATOM      4  C   UNL     1       4.797   6.348  16.796  0.00  0.00    +0.000 A 
ATOM      5  O   UNL     1       5.310   6.759  15.759  0.00  0.00    +0.000 OA
ATOM      6  N   UNL     1       5.099   5.153  17.408  0.00  0.00    +0.000 N 
ATOM      7  C   UNL     1       4.421   4.669  18.519  0.00  0.00    +0.000 A 
ATOM      8  O   UNL     1       4.660   3.550  18.981  0.00  0.00    +0.000 OA
ENDROOT
BRANCH   2   9
ATOM      9  N   UNL     1       2.233   7.608  19.162  0.00  0.00    +0.000 N 
ATOM     10  H   UNL     1       2.612   8.530  19.354  0.00  0.00    +0.000 HD
ATOM     11  H   UNL     1       1.795   7.216  19.993  0.00  0.00    +0.000 HD
ENDBRANCH   2   9
BRANCH   6  12
ATOM     12  C   UNL     1       6.176   4.350  16.837  0.00  0.00    +0.000 C 
ATOM     13  C   UNL     1       7.535   4.638  17.459  0.00  0.00    +0.000 C 
ENDBRANCH   6  12
BRANCH   1  14
ATOM     14  C   UNL     1       2.805   5.041  20.303  0.00  0.00    +0.000 C 
BRANCH  14  16
ATOM     15  C   UNL     1       1.051   3.233  20.508  0.00  0.00    +0.000 C 
ATOM     16  C   UNL     1       1.518   4.348  19.937  0.00  0.00    +0.000 C 
ENDBRANCH  14  16
ENDBRANCH   1  14
TORSDOF 4
ENDMDL
MODEL 4
REMARK VINA RESULT:      -5.4      2.269      4.612
REMARK  Name = 
REMARK  5 active torsions:
REMARK  status: ('A' for Active; 'I' for Inactive)
REMARK    1  A    between atoms: C_2  and  C_3
REMARK    2  A    between atoms: C_3  and  N_4
REMARK    3  A    between atoms: C_5  and  N_6
REMARK    4  A    between atoms: N_10  and  C_11
REMARK    5  A    between atoms: C_11  and  C_12
REMARK                            x       y       z     vdW  Elec       q    Type
REMARK                         _______ _______ _______ _____ _____    ______ ____
ROOT
ATOM      1  N   UNL     1       4.433   4.077  18.591  0.00  0.00    +0.000 N 
ATOM      2  C   UNL     1       3.907   3.768  17.345  0.00  0.00    +0.000 A 
ATOM      3  C   UNL     1       4.620   4.061  16.252  0.00  0.00    +0.000 A 
ATOM      4  C   UNL     1       5.933   4.708  16.342  0.00  0.00    +0.000 A 
ATOM      5  O   UNL     1       6.562   4.911  15.306  0.00  0.00    +0.000 OA
ATOM      6  N   UNL     1       6.356   5.054  17.604  0.00  0.00    +0.000 N 
ATOM      7  C   UNL     1       5.670   4.711  18.763  0.00  0.00    +0.000 A 
ATOM      8  O   UNL     1       6.131   4.959  19.880  0.00  0.00    +0.000 OA
ENDROOT
BRANCH   2   9
ATOM      9  N   UNL     1       2.668   3.168  17.197  0.00  0.00    +0.000 N 
ATOM     10  H   UNL     1       2.265   2.892  18.088  0.00  0.00    +0.000 HD
ATOM     11  H   UNL     1       2.662   2.391  16.541  0.00  0.00    +0.000 HD
ENDBRANCH   2   9
BRANCH   6  12
ATOM     12  C   UNL     1       7.603   5.804  17.722  0.00  0.00    +0.000 C 
ATOM     13  C   UNL     1       7.419   7.306  17.558  0.00  0.00    +0.000 C 
ENDBRANCH   6  12
BRANCH   1  14
ATOM     14  C   UNL     1       3.674   3.786  19.810  0.00  0.00    +0.000 C 
BRANCH  14  16
ATOM     15  C   UNL     1       1.506   4.863  20.536  0.00  0.00    +0.000 C 
ATOM     16  C   UNL     1       2.777   4.953  20.130  0.00  0.00    +0.000 C 
ENDBRANCH  14  16
ENDBRANCH   1  14
TORSDOF 4
ENDMDL
MODEL 5
REMARK VINA RESULT:      -5.4      1.996      2.484
REMARK  Name = 
REMARK  5 active torsions:
REMARK  status: ('A' for Active; 'I' for Inactive)
REMARK    1  A    between atoms: C_2  and  C_3
REMARK    2  A    between atoms: C_3  and  N_4
REMARK    3  A    between atoms: C_5  and  N_6
REMARK    4  A    between atoms: N_10  and  C_11
REMARK    5  A    between atoms: C_11  and  C_12
REMARK                            x       y       z     vdW  Elec       q    Type
REMARK                         _______ _______ _______ _____ _____    ______ ____
ROOT
ATOM      1  N   UNL     1       6.332   5.184  17.506  0.00  0.00    +0.000 N 
ATOM      2  C   UNL     1       5.985   4.729  16.243  0.00  0.00    +0.000 A 
ATOM      3  C   UNL     1       4.835   4.063  16.090  0.00  0.00    +0.000 A 
ATOM      4  C   UNL     1       3.945   3.797  17.223  0.00  0.00    +0.000 A 
ATOM      5  O   UNL     1       2.880   3.221  17.014  0.00  0.00    +0.000 OA
ATOM      6  N   UNL     1       4.391   4.211  18.457  0.00  0.00    +0.000 N 
ATOM      7  C   UNL     1       5.548   4.956  18.643  0.00  0.00    +0.000 A 
ATOM      8  O   UNL     1       5.863   5.387  19.756  0.00  0.00    +0.000 OA
ENDROOT
BRANCH   2   9
ATOM      9  N   UNL     1       6.791   4.940  15.137  0.00  0.00    +0.000 N 
ATOM     10  H   UNL     1       7.377   4.137  14.928  0.00  0.00    +0.000 HD
ATOM     11  H   UNL     1       7.347   5.790  15.188  0.00  0.00    +0.000 HD
ENDBRANCH   2   9
BRANCH   6  12
ATOM     12  C   UNL     1       3.587   3.859  19.624  0.00  0.00    +0.000 C 
ATOM     13  C   UNL     1       3.922   2.489  20.195  0.00  0.00    +0.000 C 
ENDBRANCH   6  12
BRANCH   1  14
ATOM     14  C   UNL     1       7.592   5.902  17.716  0.00  0.00    +0.000 C 
BRANCH  14  16
ATOM     15  C   UNL     1       8.115   8.362  17.963  0.00  0.00    +0.000 C 
ATOM     16  C   UNL     1       7.381   7.370  17.450  0.00  0.00    +0.000 C 
ENDBRANCH  14  16
ENDBRANCH   1  14
TORSDOF 4
ENDMDL
MODEL 6
REMARK VINA RESULT:      -5.4      2.753      4.279
REMARK  Name = 
REMARK  5 active torsions:
REMARK  status: ('A' for Active; 'I' for Inactive)
REMARK    1  A    between atoms: C_2  and  C_3
REMARK    2  A    between atoms: C_3  and  N_4
REMARK    3  A    between atoms: C_5  and  N_6
REMARK    4  A    between atoms: N_10  and  C_11
REMARK    5  A    between atoms: C_11  and  C_12
REMARK                            x       y       z     vdW  Elec       q    Type
REMARK                         _______ _______ _______ _____ _____    ______ ____
ROOT
ATOM      1  N   UNL     1       5.589   4.738  16.084  0.00  0.00    +0.000 N 
ATOM      2  C   UNL     1       6.781   5.374  16.397  0.00  0.00    +0.000 A 
ATOM      3  C   UNL     1       7.134   5.488  17.682  0.00  0.00    +0.000 A 
ATOM      4  C   UNL     1       6.287   4.969  18.760  0.00  0.00    +0.000 A 
ATOM      5  O   UNL     1       6.685   5.063  19.919  0.00  0.00    +0.000 OA
ATOM      6  N   UNL     1       5.085   4.421  18.379  0.00  0.00    +0.000 N 
ATOM      7  C   UNL     1       4.715   4.231  17.053  0.00  0.00    +0.000 A 
ATOM      8  O   UNL     1       3.669   3.650  16.755  0.00  0.00    +0.000 OA
ENDROOT
BRANCH   2   9
ATOM      9  N   UNL     1       7.616   5.894  15.423  0.00  0.00    +0.000 N 
ATOM     10  H   UNL     1       8.063   5.168  14.871  0.00  0.00    +0.000 HD
ATOM     11  H   UNL     1       8.305   6.553  15.778  0.00  0.00    +0.000 HD
ENDBRANCH   2   9
BRANCH   6  12
ATOM     12  C   UNL     1       4.165   4.000  19.432  0.00  0.00    +0.000 C 
ATOM     13  C   UNL     1       4.346   2.547  19.845  0.00  0.00    +0.000 C 
ENDBRANCH   6  12
BRANCH   1  14
ATOM     14  C   UNL     1       5.162   4.608  14.689  0.00  0.00    +0.000 C 
BRANCH  14  16
ATOM     15  C   UNL     1       6.222   3.551  12.653  0.00  0.00    +0.000 C 
ATOM     16  C   UNL     1       6.064   3.634  13.978  0.00  0.00    +0.000 C 
ENDBRANCH  14  16
ENDBRANCH   1  14
TORSDOF 4
ENDMDL
MODEL 7
REMARK VINA RESULT:      -5.4      2.494      3.902
REMARK  Name = 
REMARK  5 active torsions:
REMARK  status: ('A' for Active; 'I' for Inactive)
REMARK    1  A    between atoms: C_2  and  C_3
REMARK    2  A    between atoms: C_3  and  N_4
REMARK    3  A    between atoms: C_5  and  N_6
REMARK    4  A    between atoms: N_10  and  C_11
REMARK    5  A    between atoms: C_11  and  C_12
REMARK                            x       y       z     vdW  Elec       q    Type
REMARK                         _______ _______ _______ _____ _____    ______ ____
ROOT
ATOM      1  N   UNL     1       2.687   5.979  18.991  0.00  0.00    +0.000 N 
ATOM      2  C   UNL     1       2.011   6.034  20.201  0.00  0.00    +0.000 A 
ATOM      3  C   UNL     1       1.501   4.905  20.708  0.00  0.00    +0.000 A 
ATOM      4  C   UNL     1       1.631   3.623  20.010  0.00  0.00    +0.000 A 
ATOM      5  O   UNL     1       1.182   2.612  20.545  0.00  0.00    +0.000 OA
ATOM      6  N   UNL     1       2.246   3.659  18.780  0.00  0.00    +0.000 N 
ATOM      7  C   UNL     1       2.839   4.799  18.253  0.00  0.00    +0.000 A 
ATOM      8  O   UNL     1       3.462   4.766  17.188  0.00  0.00    +0.000 OA
ENDROOT
BRANCH   2   9
ATOM      9  N   UNL     1       1.847   7.217  20.900  0.00  0.00    +0.000 N 
ATOM     10  H   UNL     1       2.079   7.119  21.885  0.00  0.00    +0.000 HD
ATOM     11  H   UNL     1       0.930   7.641  20.786  0.00  0.00    +0.000 HD
ENDBRANCH   2   9
BRANCH   6  12
ATOM     12  C   UNL     1       2.288   2.423  18.004  0.00  0.00    +0.000 C 
ATOM     13  C   UNL     1       3.506   1.563  18.307  0.00  0.00    +0.000 C 
ENDBRANCH   6  12
BRANCH   1  14
ATOM     14  C   UNL     1       3.245   7.196  18.398  0.00  0.00    +0.000 C 
BRANCH  14  16
ATOM     15  C   UNL     1       1.933   9.292  17.872  0.00  0.00    +0.000 C 
ATOM     16  C   UNL     1       2.143   7.979  17.732  0.00  0.00    +0.000 C 
ENDBRANCH  14  16
ENDBRANCH   1  14
TORSDOF 4
ENDMDL
MODEL 8
REMARK VINA RESULT:      -5.3      2.012      4.921
REMARK  Name = 
REMARK  5 active torsions:
REMARK  status: ('A' for Active; 'I' for Inactive)
REMARK    1  A    between atoms: C_2  and  C_3
REMARK    2  A    between atoms: C_3  and  N_4
REMARK    3  A    between atoms: C_5  and  N_6
REMARK    4  A    between atoms: N_10  and  C_11
REMARK    5  A    between atoms: C_11  and  C_12
REMARK                            x       y       z     vdW  Elec       q    Type
REMARK                         _______ _______ _______ _____ _____    ______ ____
ROOT
ATOM      1  N   UNL     1       3.197   3.999  19.271  0.00  0.00    +0.000 N 
ATOM      2  C   UNL     1       2.995   5.317  19.655  0.00  0.00    +0.000 A 
ATOM      3  C   UNL     1       3.406   6.296  18.842  0.00  0.00    +0.000 A 
ATOM      4  C   UNL     1       4.071   6.009  17.568  0.00  0.00    +0.000 A 
ATOM      5  O   UNL     1       4.386   6.949  16.841  0.00  0.00    +0.000 OA
ATOM      6  N   UNL     1       4.306   4.682  17.290  0.00  0.00    +0.000 N 
ATOM      7  C   UNL     1       3.840   3.640  18.080  0.00  0.00    +0.000 A 
ATOM      8  O   UNL     1       3.992   2.462  17.746  0.00  0.00    +0.000 OA
ENDROOT
BRANCH   2   9
ATOM      9  N   UNL     1       2.384   5.650  20.851  0.00  0.00    +0.000 N 
ATOM     10  H   UNL     1       2.159   6.639  20.907  0.00  0.00    +0.000 HD
ATOM     11  H   UNL     1       2.898   5.349  21.676  0.00  0.00    +0.000 HD
ENDBRANCH   2   9
BRANCH   6  12
ATOM     12  C   UNL     1       5.070   4.364  16.087  0.00  0.00    +0.000 C 
ATOM     13  C   UNL     1       6.575   4.359  16.313  0.00  0.00    +0.000 C 
ENDBRANCH   6  12
BRANCH   1  14
ATOM     14  C   UNL     1       2.775   2.900  20.142  0.00  0.00    +0.000 C 
BRANCH  14  16
ATOM     15  C   UNL     1       0.638   2.461  18.866  0.00  0.00    +0.000 C 
ATOM     16  C   UNL     1       1.288   2.699  20.010  0.00  0.00    +0.000 C 
ENDBRANCH  14  16
ENDBRANCH   1  14
TORSDOF 4
ENDMDL
MODEL 9
REMARK VINA RESULT:      -5.3      0.847      1.380
REMARK  Name = 
REMARK  5 active torsions:
REMARK  status: ('A' for Active; 'I' for Inactive)
REMARK    1  A    between atoms: C_2  and  C_3
REMARK    2  A    between atoms: C_3  and  N_4
REMARK    3  A    between atoms: C_5  and  N_6
REMARK    4  A    between atoms: N_10  and  C_11
REMARK    5  A    between atoms: C_11  and  C_12
REMARK                            x       y       z     vdW  Elec       q    Type
REMARK                         _______ _______ _______ _____ _____    ______ ____
ROOT
ATOM      1  N   UNL     1       4.168   4.624  18.303  0.00  0.00    +0.000 N 
ATOM      2  C   UNL     1       4.246   3.488  17.511  0.00  0.00    +0.000 A 
ATOM      3  C   UNL     1       3.291   2.557  17.621  0.00  0.00    +0.000 A 
ATOM      4  C   UNL     1       2.179   2.705  18.563  0.00  0.00    +0.000 A 
ATOM      5  O   UNL     1       1.307   1.839  18.588  0.00  0.00    +0.000 OA
ATOM      6  N   UNL     1       2.209   3.819  19.370  0.00  0.00    +0.000 N 
ATOM      7  C   UNL     1       3.149   4.833  19.241  0.00  0.00    +0.000 A 
ATOM      8  O   UNL     1       3.084   5.860  19.922  0.00  0.00    +0.000 OA
ENDROOT
BRANCH   2   9
ATOM      9  N   UNL     1       5.278   3.287  16.611  0.00  0.00    +0.000 N 
ATOM     10  H   UNL     1       4.996   3.471  15.653  0.00  0.00    +0.000 HD
ATOM     11  H   UNL     1       5.722   2.375  16.689  0.00  0.00    +0.000 HD
ENDBRANCH   2   9
BRANCH   6  12
ATOM     12  C   UNL     1       1.182   3.940  20.401  0.00  0.00    +0.000 C 
ATOM     13  C   UNL     1       1.475   3.112  21.643  0.00  0.00    +0.000 C 
ENDBRANCH   6  12
BRANCH   1  14
ATOM     14  C   UNL     1       5.202   5.657  18.222  0.00  0.00    +0.000 C 
BRANCH  14  16
ATOM     15  C   UNL     1       5.105   6.692  15.918  0.00  0.00    +0.000 C 
ATOM     16  C   UNL     1       4.789   6.701  17.217  0.00  0.00    +0.000 C 
ENDBRANCH  14  16
ENDBRANCH   1  14
TORSDOF 4
ENDMDL
