MODEL 1
REMARK VINA RESULT:      -7.9      0.000      0.000
REMARK  Name = 
REMARK  7 active torsions:
REMARK  status: ('A' for Active; 'I' for Inactive)
REMARK    1  A    between atoms: C_2  and  C_3
REMARK    2  A    between atoms: C_2  and  C_25
REMARK    3  A    between atoms: C_3  and  S_15
REMARK    4  A    between atoms: C_4  and  C_5
REMARK    5  A    between atoms: C_8  and  C_9
REMARK    6  A    between atoms: S_15  and  C_18
REMARK    7  A    between atoms: C_18  and  C_19
REMARK                            x       y       z     vdW  Elec       q    Type
REMARK                         _______ _______ _______ _____ _____    ______ ____
ROOT
ATOM      1  C   UNL     1       4.319   5.061  17.252  0.00  0.00    +0.000 C 
ATOM      2  C   UNL     1       4.276   6.371  17.592  0.00  0.00    +0.000 C 
ENDROOT
BRANCH   2   3
ATOM      3  C   UNL     1       3.215   7.187  18.215  0.00  0.00    +0.000 A 
ATOM      4  C   UNL     1       2.808   6.863  19.520  0.00  0.00    +0.000 A 
ATOM      5  C   UNL     1       1.840   7.627  20.183  0.00  0.00    +0.000 A 
ATOM      6  C   UNL     1       1.251   8.732  19.556  0.00  0.00    +0.000 A 
ATOM      7  C   UNL     1       1.639   9.042  18.246  0.00  0.00    +0.000 A 
ATOM      8  C   UNL     1       2.641   8.305  17.602  0.00  0.00    +0.000 A 
BRANCH   6   9
ATOM      9  C   UNL     1       0.261   9.615  20.276  0.00  0.00    +0.000 C 
ATOM     10  F   UNL     1       0.722  10.878  20.500  0.00  0.00    +0.000 F 
ATOM     11  F   UNL     1      -0.899   9.764  19.576  0.00  0.00    +0.000 F 
ATOM     12  F   UNL     1      -0.097   9.125  21.494  0.00  0.00    +0.000 F 
ENDBRANCH   6   9
ENDBRANCH   2   3
BRANCH   1  13
ATOM     13  S   UNL     1       5.738   4.554  16.305  0.00  0.00    +0.000 S 
ATOM     14  O   UNL     1       6.956   5.093  16.871  0.00  0.00    +0.000 OA
ATOM     15  O   UNL     1       5.611   3.128  16.052  0.00  0.00    +0.000 OA
BRANCH  13  16
ATOM     16  C   UNL     1       5.497   5.394  14.736  0.00  0.00    +0.000 C 
BRANCH  16  17
ATOM     17  C   UNL     1       5.820   4.439  13.606  0.00  0.00    +0.000 A 
ATOM     18  C   UNL     1       7.130   4.317  13.119  0.00  0.00    +0.000 A 
ATOM     19  C   UNL     1       7.414   3.465  12.046  0.00  0.00    +0.000 A 
ATOM     20  C   UNL     1       6.395   2.729  11.447  0.00  0.00    +0.000 A 
ATOM     21  C   UNL     1       5.091   2.840  11.919  0.00  0.00    +0.000 A 
ATOM     22  C   UNL     1       4.805   3.688  12.993  0.00  0.00    +0.000 A 
ENDBRANCH  16  17
ENDBRANCH  13  16
ENDBRANCH   1  13
BRANCH   1  24
ATOM     23  O   UNL     1       2.625   3.692  16.354  0.00  0.00    +0.000 OA
ATOM     24  C   UNL     1       3.222   4.058  17.364  0.00  0.00    +0.000 C 
BRANCH  24  25
ATOM     25  C   UNL     1       2.728   3.523  18.664  0.00  0.00    +0.000 A 
ATOM     26  C   UNL     1       3.548   3.088  19.710  0.00  0.00    +0.000 A 
ATOM     27  C   UNL     1       2.981   2.723  20.939  0.00  0.00    +0.000 A 
ATOM     28  C   UNL     1       1.596   2.735  21.107  0.00  0.00    +0.000 A 
ATOM     29 CL   UNL     1       0.910   2.278  22.616  0.00  0.00    +0.000 Cl
ATOM     30  C   UNL     1       0.766   3.114  20.061  0.00  0.00    +0.000 A 
ATOM     31  C   UNL     1       1.330   3.510  18.846  0.00  0.00    +0.000 A 
ENDBRANCH  24  25
ENDBRANCH   1  24
TORSDOF 7
ENDMDL
MODEL 2
REMARK VINA RESULT:      -7.9      1.654      1.970
REMARK  Name = 
REMARK  7 active torsions:
REMARK  status: ('A' for Active; 'I' for Inactive)
REMARK    1  A    between atoms: C_2  and  C_3
REMARK    2  A    between atoms: C_2  and  C_25
REMARK    3  A    between atoms: C_3  and  S_15
REMARK    4  A    between atoms: C_4  and  C_5
REMARK    5  A    between atoms: C_8  and  C_9
REMARK    6  A    between atoms: S_15  and  C_18
REMARK    7  A    between atoms: C_18  and  C_19
REMARK                            x       y       z     vdW  Elec       q    Type
REMARK                         _______ _______ _______ _____ _____    ______ ____
ROOT
ATOM      1  C   UNL     1       4.782   6.649  17.511  0.00  0.00    +0.000 C 
ATOM      2  C   UNL     1       3.901   7.677  17.477  0.00  0.00    +0.000 C 
ENDROOT
BRANCH   2   3
ATOM      3  C   UNL     1       2.816   8.067  18.400  0.00  0.00    +0.000 A 
ATOM      4  C   UNL     1       2.637   7.314  19.571  0.00  0.00    +0.000 A 
ATOM      5  C   UNL     1       1.657   7.661  20.509  0.00  0.00    +0.000 A 
ATOM      6  C   UNL     1       0.827   8.769  20.295  0.00  0.00    +0.000 A 
ATOM      7  C   UNL     1       0.990   9.508  19.116  0.00  0.00    +0.000 A 
ATOM      8  C   UNL     1       2.001   9.187  18.203  0.00  0.00    +0.000 A 
BRANCH   6   9
ATOM      9  C   UNL     1      -0.186   9.208  21.325  0.00  0.00    +0.000 C 
ATOM     10  F   UNL     1       0.372   9.799  22.419  0.00  0.00    +0.000 F 
ATOM     11  F   UNL     1      -1.068  10.117  20.823  0.00  0.00    +0.000 F 
ATOM     12  F   UNL     1      -0.939   8.178  21.798  0.00  0.00    +0.000 F 
ENDBRANCH   6   9
ENDBRANCH   2   3
BRANCH   1  13
ATOM     13  S   UNL     1       5.777   6.437  16.051  0.00  0.00    +0.000 S 
ATOM     14  O   UNL     1       5.124   7.007  14.892  0.00  0.00    +0.000 OA
ATOM     15  O   UNL     1       7.139   6.816  16.389  0.00  0.00    +0.000 OA
BRANCH  13  16
ATOM     16  C   UNL     1       5.766   4.658  15.810  0.00  0.00    +0.000 C 
BRANCH  16  17
ATOM     17  C   UNL     1       6.164   4.347  14.381  0.00  0.00    +0.000 A 
ATOM     18  C   UNL     1       7.339   4.878  13.830  0.00  0.00    +0.000 A 
ATOM     19  C   UNL     1       7.679   4.622  12.497  0.00  0.00    +0.000 A 
ATOM     20  C   UNL     1       6.848   3.837  11.700  0.00  0.00    +0.000 A 
ATOM     21  C   UNL     1       5.679   3.305  12.234  0.00  0.00    +0.000 A 
ATOM     22  C   UNL     1       5.339   3.556  13.566  0.00  0.00    +0.000 A 
ENDBRANCH  16  17
ENDBRANCH  13  16
ENDBRANCH   1  13
BRANCH   1  24
ATOM     23  O   UNL     1       5.856   5.409  19.201  0.00  0.00    +0.000 OA
ATOM     24  C   UNL     1       4.850   5.544  18.508  0.00  0.00    +0.000 C 
BRANCH  24  25
ATOM     25  C   UNL     1       3.788   4.510  18.663  0.00  0.00    +0.000 A 
ATOM     26  C   UNL     1       3.622   3.701  19.792  0.00  0.00    +0.000 A 
ATOM     27  C   UNL     1       2.513   2.849  19.886  0.00  0.00    +0.000 A 
ATOM     28  C   UNL     1       1.601   2.761  18.832  0.00  0.00    +0.000 A 
ATOM     29 CL   UNL     1       0.247   1.708  18.954  0.00  0.00    +0.000 Cl
ATOM     30  C   UNL     1       1.781   3.520  17.683  0.00  0.00    +0.000 A 
ATOM     31  C   UNL     1       2.868   4.392  17.601  0.00  0.00    +0.000 A 
ENDBRANCH  24  25
ENDBRANCH   1  24
TORSDOF 7
ENDMDL
MODEL 3
REMARK VINA RESULT:      -7.8      0.060      1.097
REMARK  Name = 
REMARK  7 active torsions:
REMARK  status: ('A' for Active; 'I' for Inactive)
REMARK    1  A    between atoms: C_2  and  C_3
REMARK    2  A    between atoms: C_2  and  C_25
REMARK    3  A    between atoms: C_3  and  S_15
REMARK    4  A    between atoms: C_4  and  C_5
REMARK    5  A    between atoms: C_8  and  C_9
REMARK    6  A    between atoms: S_15  and  C_18
REMARK    7  A    between atoms: C_18  and  C_19
REMARK                            x       y       z     vdW  Elec       q    Type
REMARK                         _______ _______ _______ _____ _____    ______ ____
ROOT
ATOM      1  C   UNL     1       4.335   5.020  17.257  0.00  0.00    +0.000 C 
ATOM      2  C   UNL     1       4.301   6.332  17.590  0.00  0.00    +0.000 C 
ENDROOT
BRANCH   2   3
ATOM      3  C   UNL     1       3.244   7.158  18.208  0.00  0.00    +0.000 A 
ATOM      4  C   UNL     1       2.825   6.837  19.509  0.00  0.00    +0.000 A 
ATOM      5  C   UNL     1       1.861   7.610  20.167  0.00  0.00    +0.000 A 
ATOM      6  C   UNL     1       1.288   8.722  19.538  0.00  0.00    +0.000 A 
ATOM      7  C   UNL     1       1.688   9.030  18.231  0.00  0.00    +0.000 A 
ATOM      8  C   UNL     1       2.686   8.284  17.593  0.00  0.00    +0.000 A 
BRANCH   6   9
ATOM      9  C   UNL     1       0.302   9.615  20.253  0.00  0.00    +0.000 C 
ATOM     10  F   UNL     1      -0.031   9.168  21.497  0.00  0.00    +0.000 F 
ATOM     11  F   UNL     1       0.787  10.876  20.431  0.00  0.00    +0.000 F 
ATOM     12  F   UNL     1      -0.870   9.755  19.578  0.00  0.00    +0.000 F 
ENDBRANCH   6   9
ENDBRANCH   2   3
BRANCH   1  13
ATOM     13  S   UNL     1       5.751   4.499  16.315  0.00  0.00    +0.000 S 
ATOM     14  O   UNL     1       6.979   4.952  16.933  0.00  0.00    +0.000 OA
ATOM     15  O   UNL     1       5.567   3.095  15.985  0.00  0.00    +0.000 OA
BRANCH  13  16
ATOM     16  C   UNL     1       5.584   5.428  14.788  0.00  0.00    +0.000 C 
BRANCH  16  17
ATOM     17  C   UNL     1       5.851   4.509  13.614  0.00  0.00    +0.000 A 
ATOM     18  C   UNL     1       4.813   3.766  13.032  0.00  0.00    +0.000 A 
ATOM     19  C   UNL     1       5.073   2.887  11.975  0.00  0.00    +0.000 A 
ATOM     20  C   UNL     1       6.371   2.736  11.492  0.00  0.00    +0.000 A 
ATOM     21  C   UNL     1       7.410   3.466  12.060  0.00  0.00    +0.000 A 
ATOM     22  C   UNL     1       7.153   4.348  13.113  0.00  0.00    +0.000 A 
ENDBRANCH  16  17
ENDBRANCH  13  16
ENDBRANCH   1  13
BRANCH   1  24
ATOM     23  O   UNL     1       2.631   3.658  16.366  0.00  0.00    +0.000 OA
ATOM     24  C   UNL     1       3.232   4.025  17.374  0.00  0.00    +0.000 C 
BRANCH  24  25
ATOM     25  C   UNL     1       2.735   3.498  18.677  0.00  0.00    +0.000 A 
ATOM     26  C   UNL     1       3.553   3.075  19.729  0.00  0.00    +0.000 A 
ATOM     27  C   UNL     1       2.983   2.717  20.959  0.00  0.00    +0.000 A 
ATOM     28  C   UNL     1       1.597   2.725  21.122  0.00  0.00    +0.000 A 
ATOM     29 CL   UNL     1       0.907   2.278  22.632  0.00  0.00    +0.000 Cl
ATOM     30  C   UNL     1       0.769   3.093  20.069  0.00  0.00    +0.000 A 
ATOM     31  C   UNL     1       1.336   3.481  18.854  0.00  0.00    +0.000 A 
ENDBRANCH  24  25
ENDBRANCH   1  24
TORSDOF 7
ENDMDL
MODEL 4
REMARK VINA RESULT:      -7.8      0.246      1.089
REMARK  Name = 
REMARK  7 active torsions:
REMARK  status: ('A' for Active; 'I' for Inactive)
REMARK    1  A    between atoms: C_2  and  C_3
REMARK    2  A    between atoms: C_2  and  C_25
REMARK    3  A    between atoms: C_3  and  S_15
REMARK    4  A    between atoms: C_4  and  C_5
REMARK    5  A    between atoms: C_8  and  C_9
REMARK    6  A    between atoms: S_15  and  C_18
REMARK    7  A    between atoms: C_18  and  C_19
REMARK                            x       y       z     vdW  Elec       q    Type
REMARK                         _______ _______ _______ _____ _____    ______ ____
ROOT
ATOM      1  C   UNL     1       4.393   5.008  17.206  0.00  0.00    +0.000 C 
ATOM      2  C   UNL     1       4.398   6.316  17.557  0.00  0.00    +0.000 C 
ENDROOT
BRANCH   2   3
ATOM      3  C   UNL     1       3.373   7.160  18.203  0.00  0.00    +0.000 A 
ATOM      4  C   UNL     1       2.868   8.257  17.487  0.00  0.00    +0.000 A 
ATOM      5  C   UNL     1       1.862   9.068  18.026  0.00  0.00    +0.000 A 
ATOM      6  C   UNL     1       1.339   8.805  19.298  0.00  0.00    +0.000 A 
ATOM      7  C   UNL     1       1.859   7.725  20.023  0.00  0.00    +0.000 A 
ATOM      8  C   UNL     1       2.831   6.887  19.463  0.00  0.00    +0.000 A 
BRANCH   6   9
ATOM      9  C   UNL     1       0.203   9.619  19.870  0.00  0.00    +0.000 C 
ATOM     10  F   UNL     1      -0.775   9.899  18.962  0.00  0.00    +0.000 F 
ATOM     11  F   UNL     1      -0.420   8.978  20.898  0.00  0.00    +0.000 F 
ATOM     12  F   UNL     1       0.609  10.818  20.366  0.00  0.00    +0.000 F 
ENDBRANCH   6   9
ENDBRANCH   2   3
BRANCH   1  13
ATOM     13  S   UNL     1       5.779   4.464  16.233  0.00  0.00    +0.000 S 
ATOM     14  O   UNL     1       7.022   4.973  16.774  0.00  0.00    +0.000 OA
ATOM     15  O   UNL     1       5.611   3.041  15.985  0.00  0.00    +0.000 OA
BRANCH  13  16
ATOM     16  C   UNL     1       5.530   5.307  14.667  0.00  0.00    +0.000 C 
BRANCH  16  17
ATOM     17  C   UNL     1       5.770   4.332  13.533  0.00  0.00    +0.000 A 
ATOM     18  C   UNL     1       7.070   4.059  13.082  0.00  0.00    +0.000 A 
ATOM     19  C   UNL     1       7.282   3.190  12.006  0.00  0.00    +0.000 A 
ATOM     20  C   UNL     1       6.200   2.588  11.367  0.00  0.00    +0.000 A 
ATOM     21  C   UNL     1       4.905   2.851  11.804  0.00  0.00    +0.000 A 
ATOM     22  C   UNL     1       4.691   3.716  12.880  0.00  0.00    +0.000 A 
ENDBRANCH  16  17
ENDBRANCH  13  16
ENDBRANCH   1  13
BRANCH   1  24
ATOM     23  O   UNL     1       2.639   3.706  16.324  0.00  0.00    +0.000 OA
ATOM     24  C   UNL     1       3.266   4.041  17.327  0.00  0.00    +0.000 C 
BRANCH  24  25
ATOM     25  C   UNL     1       2.778   3.506  18.630  0.00  0.00    +0.000 A 
ATOM     26  C   UNL     1       3.603   3.107  19.686  0.00  0.00    +0.000 A 
ATOM     27  C   UNL     1       3.038   2.740  20.915  0.00  0.00    +0.000 A 
ATOM     28  C   UNL     1       1.652   2.715  21.074  0.00  0.00    +0.000 A 
ATOM     29 CL   UNL     1       0.968   2.256  22.584  0.00  0.00    +0.000 Cl
ATOM     30  C   UNL     1       0.818   3.059  20.018  0.00  0.00    +0.000 A 
ATOM     31  C   UNL     1       1.380   3.456  18.803  0.00  0.00    +0.000 A 
ENDBRANCH  24  25
ENDBRANCH   1  24
TORSDOF 7
ENDMDL
MODEL 5
REMARK VINA RESULT:      -7.7      0.277      1.121
REMARK  Name = 
REMARK  7 active torsions:
REMARK  status: ('A' for Active; 'I' for Inactive)
REMARK    1  A    between atoms: C_2  and  C_3
REMARK    2  A    between atoms: C_2  and  C_25
REMARK    3  A    between atoms: C_3  and  S_15
REMARK    4  A    between atoms: C_4  and  C_5
REMARK    5  A    between atoms: C_8  and  C_9
REMARK    6  A    between atoms: S_15  and  C_18
REMARK    7  A    between atoms: C_18  and  C_19
REMARK                            x       y       z     vdW  Elec       q    Type
REMARK                         _______ _______ _______ _____ _____    ______ ____
ROOT
ATOM      1  C   UNL     1       4.246   5.141  17.443  0.00  0.00    +0.000 C 
ATOM      2  C   UNL     1       4.196   6.458  17.754  0.00  0.00    +0.000 C 
ENDROOT
BRANCH   2   3
ATOM      3  C   UNL     1       3.115   7.290  18.321  0.00  0.00    +0.000 A 
ATOM      4  C   UNL     1       2.682   7.016  19.628  0.00  0.00    +0.000 A 
ATOM      5  C   UNL     1       1.695   7.799  20.239  0.00  0.00    +0.000 A 
ATOM      6  C   UNL     1       1.111   8.872  19.555  0.00  0.00    +0.000 A 
ATOM      7  C   UNL     1       1.526   9.132  18.242  0.00  0.00    +0.000 A 
ATOM      8  C   UNL     1       2.547   8.378  17.651  0.00  0.00    +0.000 A 
BRANCH   6   9
ATOM      9  C   UNL     1       0.099   9.776  20.217  0.00  0.00    +0.000 C 
ATOM     10  F   UNL     1      -0.199   9.412  21.497  0.00  0.00    +0.000 F 
ATOM     11  F   UNL     1       0.533  11.065  20.291  0.00  0.00    +0.000 F 
ATOM     12  F   UNL     1      -1.087   9.817  19.553  0.00  0.00    +0.000 F 
ENDBRANCH   6   9
ENDBRANCH   2   3
BRANCH   1  13
ATOM     13  S   UNL     1       5.697   4.610  16.560  0.00  0.00    +0.000 S 
ATOM     14  O   UNL     1       6.901   5.035  17.242  0.00  0.00    +0.000 OA
ATOM     15  O   UNL     1       5.506   3.215  16.201  0.00  0.00    +0.000 OA
BRANCH  13  16
ATOM     16  C   UNL     1       5.616   5.564  15.041  0.00  0.00    +0.000 C 
BRANCH  16  17
ATOM     17  C   UNL     1       5.935   4.660  13.868  0.00  0.00    +0.000 A 
ATOM     18  C   UNL     1       7.230   4.606  13.333  0.00  0.00    +0.000 A 
ATOM     19  C   UNL     1       7.508   3.801  12.223  0.00  0.00    +0.000 A 
ATOM     20  C   UNL     1       6.497   3.046  11.634  0.00  0.00    +0.000 A 
ATOM     21  C   UNL     1       5.207   3.090  12.154  0.00  0.00    +0.000 A 
ATOM     22  C   UNL     1       4.927   3.891  13.265  0.00  0.00    +0.000 A 
ENDBRANCH  16  17
ENDBRANCH  13  16
ENDBRANCH   1  13
BRANCH   1  24
ATOM     23  O   UNL     1       2.655   3.677  16.508  0.00  0.00    +0.000 OA
ATOM     24  C   UNL     1       3.142   4.144  17.535  0.00  0.00    +0.000 C 
BRANCH  24  25
ATOM     25  C   UNL     1       2.511   3.733  18.821  0.00  0.00    +0.000 A 
ATOM     26  C   UNL     1       1.134   3.722  19.065  0.00  0.00    +0.000 A 
ATOM     27  C   UNL     1       0.640   3.195  20.266  0.00  0.00    +0.000 A 
ATOM     28  C   UNL     1       1.519   2.733  21.248  0.00  0.00    +0.000 A 
ATOM     29 CL   UNL     1       0.904   2.095  22.721  0.00  0.00    +0.000 Cl
ATOM     30  C   UNL     1       2.891   2.786  21.041  0.00  0.00    +0.000 A 
ATOM     31  C   UNL     1       3.384   3.280  19.831  0.00  0.00    +0.000 A 
ENDBRANCH  24  25
ENDBRANCH   1  24
TORSDOF 7
ENDMDL
MODEL 6
REMARK VINA RESULT:      -7.7      0.447      1.472
REMARK  Name = 
REMARK  7 active torsions:
REMARK  status: ('A' for Active; 'I' for Inactive)
REMARK    1  A    between atoms: C_2  and  C_3
REMARK    2  A    between atoms: C_2  and  C_25
REMARK    3  A    between atoms: C_3  and  S_15
REMARK    4  A    between atoms: C_4  and  C_5
REMARK    5  A    between atoms: C_8  and  C_9
REMARK    6  A    between atoms: S_15  and  C_18
REMARK    7  A    between atoms: C_18  and  C_19
REMARK                            x       y       z     vdW  Elec       q    Type
REMARK                         _______ _______ _______ _____ _____    ______ ____
ROOT
ATOM      1  C   UNL     1       4.178   5.173  17.487  0.00  0.00    +0.000 C 
ATOM      2  C   UNL     1       4.170   6.489  17.805  0.00  0.00    +0.000 C 
ENDROOT
BRANCH   2   3
ATOM      3  C   UNL     1       3.118   7.350  18.382  0.00  0.00    +0.000 A 
ATOM      4  C   UNL     1       2.576   8.365  17.578  0.00  0.00    +0.000 A 
ATOM      5  C   UNL     1       1.543   9.185  18.049  0.00  0.00    +0.000 A 
ATOM      6  C   UNL     1       1.030   9.012  19.341  0.00  0.00    +0.000 A 
ATOM      7  C   UNL     1       1.587   8.015  20.153  0.00  0.00    +0.000 A 
ATOM      8  C   UNL     1       2.586   7.166  19.662  0.00  0.00    +0.000 A 
BRANCH   6   9
ATOM      9  C   UNL     1      -0.132   9.833  19.847  0.00  0.00    +0.000 C 
ATOM     10  F   UNL     1      -1.238   9.754  19.053  0.00  0.00    +0.000 F 
ATOM     11  F   UNL     1      -0.538   9.439  21.086  0.00  0.00    +0.000 F 
ATOM     12  F   UNL     1       0.162  11.157  19.951  0.00  0.00    +0.000 F 
ENDBRANCH   6   9
ENDBRANCH   2   3
BRANCH   1  13
ATOM     13  S   UNL     1       5.608   4.603  16.593  0.00  0.00    +0.000 S 
ATOM     14  O   UNL     1       6.826   4.945  17.295  0.00  0.00    +0.000 OA
ATOM     15  O   UNL     1       5.353   3.231  16.185  0.00  0.00    +0.000 OA
BRANCH  13  16
ATOM     16  C   UNL     1       5.583   5.611  15.108  0.00  0.00    +0.000 C 
BRANCH  16  17
ATOM     17  C   UNL     1       5.967   4.755  13.919  0.00  0.00    +0.000 A 
ATOM     18  C   UNL     1       7.236   4.867  13.331  0.00  0.00    +0.000 A 
ATOM     19  C   UNL     1       7.569   4.103  12.207  0.00  0.00    +0.000 A 
ATOM     20  C   UNL     1       6.640   3.224  11.656  0.00  0.00    +0.000 A 
ATOM     21  C   UNL     1       5.377   3.104  12.228  0.00  0.00    +0.000 A 
ATOM     22  C   UNL     1       5.043   3.862  13.353  0.00  0.00    +0.000 A 
ENDBRANCH  16  17
ENDBRANCH  13  16
ENDBRANCH   1  13
BRANCH   1  24
ATOM     23  O   UNL     1       2.514   3.791  16.553  0.00  0.00    +0.000 OA
ATOM     24  C   UNL     1       3.045   4.209  17.579  0.00  0.00    +0.000 C 
BRANCH  24  25
ATOM     25  C   UNL     1       2.437   3.778  18.870  0.00  0.00    +0.000 A 
ATOM     26  C   UNL     1       1.063   3.744  19.131  0.00  0.00    +0.000 A 
ATOM     27  C   UNL     1       0.593   3.200  20.334  0.00  0.00    +0.000 A 
ATOM     28  C   UNL     1       1.491   2.743  21.300  0.00  0.00    +0.000 A 
ATOM     29 CL   UNL     1       0.904   2.083  22.775  0.00  0.00    +0.000 Cl
ATOM     30  C   UNL     1       2.859   2.817  21.076  0.00  0.00    +0.000 A 
ATOM     31  C   UNL     1       3.329   3.329  19.865  0.00  0.00    +0.000 A 
ENDBRANCH  24  25
ENDBRANCH   1  24
TORSDOF 7
ENDMDL
MODEL 7
REMARK VINA RESULT:      -7.6      1.589      2.119
REMARK  Name = 
REMARK  7 active torsions:
REMARK  status: ('A' for Active; 'I' for Inactive)
REMARK    1  A    between atoms: C_2  and  C_3
REMARK    2  A    between atoms: C_2  and  C_25
REMARK    3  A    between atoms: C_3  and  S_15
REMARK    4  A    between atoms: C_4  and  C_5
REMARK    5  A    between atoms: C_8  and  C_9
REMARK    6  A    between atoms: S_15  and  C_18
REMARK    7  A    between atoms: C_18  and  C_19
REMARK                            x       y       z     vdW  Elec       q    Type
REMARK                         _______ _______ _______ _____ _____    ______ ____
ROOT
ATOM      1  C   UNL     1       4.901   6.557  17.418  0.00  0.00    +0.000 C 
ATOM      2  C   UNL     1       4.047   7.608  17.393  0.00  0.00    +0.000 C 
ENDROOT
BRANCH   2   3
ATOM      3  C   UNL     1       2.995   8.038  18.335  0.00  0.00    +0.000 A 
ATOM      4  C   UNL     1       2.228   9.166  18.005  0.00  0.00    +0.000 A 
ATOM      5  C   UNL     1       1.184   9.596  18.833  0.00  0.00    +0.000 A 
ATOM      6  C   UNL     1       0.885   8.911  20.017  0.00  0.00    +0.000 A 
ATOM      7  C   UNL     1       1.665   7.798  20.359  0.00  0.00    +0.000 A 
ATOM      8  C   UNL     1       2.677   7.342  19.506  0.00  0.00    +0.000 A 
BRANCH   6   9
ATOM      9  C   UNL     1      -0.282   9.309  20.889  0.00  0.00    +0.000 C 
ATOM     10  F   UNL     1      -1.301   9.894  20.198  0.00  0.00    +0.000 F 
ATOM     11  F   UNL     1      -0.834   8.240  21.528  0.00  0.00    +0.000 F 
ATOM     12  F   UNL     1       0.065  10.192  21.864  0.00  0.00    +0.000 F 
ENDBRANCH   6   9
ENDBRANCH   2   3
BRANCH   1  13
ATOM     13  S   UNL     1       5.856   6.302  15.938  0.00  0.00    +0.000 S 
ATOM     14  O   UNL     1       5.221   6.930  14.799  0.00  0.00    +0.000 OA
ATOM     15  O   UNL     1       7.245   6.587  16.258  0.00  0.00    +0.000 OA
BRANCH  13  16
ATOM     16  C   UNL     1       5.726   4.531  15.674  0.00  0.00    +0.000 C 
BRANCH  16  17
ATOM     17  C   UNL     1       6.083   4.215  14.236  0.00  0.00    +0.000 A 
ATOM     18  C   UNL     1       7.281   4.679  13.674  0.00  0.00    +0.000 A 
ATOM     19  C   UNL     1       7.585   4.420  12.333  0.00  0.00    +0.000 A 
ATOM     20  C   UNL     1       6.696   3.700  11.539  0.00  0.00    +0.000 A 
ATOM     21  C   UNL     1       5.503   3.234  12.083  0.00  0.00    +0.000 A 
ATOM     22  C   UNL     1       5.198   3.488  13.423  0.00  0.00    +0.000 A 
ENDBRANCH  16  17
ENDBRANCH  13  16
ENDBRANCH   1  13
BRANCH   1  24
ATOM     23  O   UNL     1       5.977   5.309  19.101  0.00  0.00    +0.000 OA
ATOM     24  C   UNL     1       4.961   5.461  18.426  0.00  0.00    +0.000 C 
BRANCH  24  25
ATOM     25  C   UNL     1       3.877   4.455  18.613  0.00  0.00    +0.000 A 
ATOM     26  C   UNL     1       3.725   3.651  19.747  0.00  0.00    +0.000 A 
ATOM     27  C   UNL     1       2.597   2.829  19.875  0.00  0.00    +0.000 A 
ATOM     28  C   UNL     1       1.652   2.764  18.850  0.00  0.00    +0.000 A 
ATOM     29 CL   UNL     1       0.275   1.748  19.014  0.00  0.00    +0.000 Cl
ATOM     30  C   UNL     1       1.817   3.519  17.696  0.00  0.00    +0.000 A 
ATOM     31  C   UNL     1       2.923   4.363  17.580  0.00  0.00    +0.000 A 
ENDBRANCH  24  25
ENDBRANCH   1  24
TORSDOF 7
ENDMDL
MODEL 8
REMARK VINA RESULT:      -7.5      1.651      2.192
REMARK  Name = 
REMARK  7 active torsions:
REMARK  status: ('A' for Active; 'I' for Inactive)
REMARK    1  A    between atoms: C_2  and  C_3
REMARK    2  A    between atoms: C_2  and  C_25
REMARK    3  A    between atoms: C_3  and  S_15
REMARK    4  A    between atoms: C_4  and  C_5
REMARK    5  A    between atoms: C_8  and  C_9
REMARK    6  A    between atoms: S_15  and  C_18
REMARK    7  A    between atoms: C_18  and  C_19
REMARK                            x       y       z     vdW  Elec       q    Type
REMARK                         _______ _______ _______ _____ _____    ______ ____
ROOT
ATOM      1  C   UNL     1       4.690   6.734  17.475  0.00  0.00    +0.000 C 
ATOM      2  C   UNL     1       3.853   7.798  17.437  0.00  0.00    +0.000 C 
ENDROOT
BRANCH   2   3
ATOM      3  C   UNL     1       2.762   8.219  18.339  0.00  0.00    +0.000 A 
ATOM      4  C   UNL     1       2.607   7.536  19.556  0.00  0.00    +0.000 A 
ATOM      5  C   UNL     1       1.623   7.918  20.476  0.00  0.00    +0.000 A 
ATOM      6  C   UNL     1       0.765   8.989  20.198  0.00  0.00    +0.000 A 
ATOM      7  C   UNL     1       0.904   9.656  18.974  0.00  0.00    +0.000 A 
ATOM      8  C   UNL     1       1.919   9.304  18.077  0.00  0.00    +0.000 A 
BRANCH   6   9
ATOM      9  C   UNL     1      -0.255   9.468  21.205  0.00  0.00    +0.000 C 
ATOM     10  F   UNL     1      -1.014   8.463  21.727  0.00  0.00    +0.000 F 
ATOM     11  F   UNL     1       0.326  10.085  22.271  0.00  0.00    +0.000 F 
ATOM     12  F   UNL     1      -1.131  10.368  20.682  0.00  0.00    +0.000 F 
ENDBRANCH   6   9
ENDBRANCH   2   3
BRANCH   1  13
ATOM     13  S   UNL     1       5.711   6.503  16.036  0.00  0.00    +0.000 S 
ATOM     14  O   UNL     1       5.088   7.077  14.862  0.00  0.00    +0.000 OA
ATOM     15  O   UNL     1       7.071   6.865  16.400  0.00  0.00    +0.000 OA
BRANCH  13  16
ATOM     16  C   UNL     1       5.681   4.723  15.801  0.00  0.00    +0.000 C 
BRANCH  16  17
ATOM     17  C   UNL     1       6.128   4.400  14.390  0.00  0.00    +0.000 A 
ATOM     18  C   UNL     1       7.326   4.921  13.878  0.00  0.00    +0.000 A 
ATOM     19  C   UNL     1       7.712   4.653  12.560  0.00  0.00    +0.000 A 
ATOM     20  C   UNL     1       6.906   3.867  11.740  0.00  0.00    +0.000 A 
ATOM     21  C   UNL     1       5.715   3.344  12.234  0.00  0.00    +0.000 A 
ATOM     22  C   UNL     1       5.329   3.607  13.552  0.00  0.00    +0.000 A 
ENDBRANCH  16  17
ENDBRANCH  13  16
ENDBRANCH   1  13
BRANCH   1  24
ATOM     23  O   UNL     1       5.675   5.417  19.162  0.00  0.00    +0.000 OA
ATOM     24  C   UNL     1       4.688   5.612  18.456  0.00  0.00    +0.000 C 
BRANCH  24  25
ATOM     25  C   UNL     1       3.574   4.629  18.578  0.00  0.00    +0.000 A 
ATOM     26  C   UNL     1       2.606   4.397  17.595  0.00  0.00    +0.000 A 
ATOM     27  C   UNL     1       1.678   3.359  17.759  0.00  0.00    +0.000 A 
ATOM     28  C   UNL     1       1.678   2.591  18.924  0.00  0.00    +0.000 A 
ATOM     29 CL   UNL     1       0.531   1.325  19.118  0.00  0.00    +0.000 Cl
ATOM     30  C   UNL     1       2.600   2.844  19.931  0.00  0.00    +0.000 A 
ATOM     31  C   UNL     1       3.546   3.856  19.756  0.00  0.00    +0.000 A 
ENDBRANCH  24  25
ENDBRANCH   1  24
TORSDOF 7
ENDMDL
MODEL 9
REMARK VINA RESULT:      -7.5      2.049      3.272
REMARK  Name = 
REMARK  7 active torsions:
REMARK  status: ('A' for Active; 'I' for Inactive)
REMARK    1  A    between atoms: C_2  and  C_3
REMARK    2  A    between atoms: C_2  and  C_25
REMARK    3  A    between atoms: C_3  and  S_15
REMARK    4  A    between atoms: C_4  and  C_5
REMARK    5  A    between atoms: C_8  and  C_9
REMARK    6  A    between atoms: S_15  and  C_18
REMARK    7  A    between atoms: C_18  and  C_19
REMARK                            x       y       z     vdW  Elec       q    Type
REMARK                         _______ _______ _______ _____ _____    ______ ____
ROOT
ATOM      1  C   UNL     1       4.191   5.089  16.722  0.00  0.00    +0.000 C 
ATOM      2  C   UNL     1       4.125   6.328  17.263  0.00  0.00    +0.000 C 
ENDROOT
BRANCH   2   3
ATOM      3  C   UNL     1       3.179   6.927  18.227  0.00  0.00    +0.000 A 
ATOM      4  C   UNL     1       3.063   6.339  19.496  0.00  0.00    +0.000 A 
ATOM      5  C   UNL     1       2.220   6.888  20.470  0.00  0.00    +0.000 A 
ATOM      6  C   UNL     1       1.467   8.036  20.196  0.00  0.00    +0.000 A 
ATOM      7  C   UNL     1       1.564   8.610  18.922  0.00  0.00    +0.000 A 
ATOM      8  C   UNL     1       2.444   8.088  17.966  0.00  0.00    +0.000 A 
BRANCH   6   9
ATOM      9  C   UNL     1       0.607   8.689  21.252  0.00  0.00    +0.000 C 
ATOM     10  F   UNL     1       1.244   8.850  22.447  0.00  0.00    +0.000 F 
ATOM     11  F   UNL     1       0.197   9.935  20.882  0.00  0.00    +0.000 F 
ATOM     12  F   UNL     1      -0.525   7.986  21.521  0.00  0.00    +0.000 F 
ENDBRANCH   6   9
ENDBRANCH   2   3
BRANCH   1  13
ATOM     13  S   UNL     1       5.381   4.878  15.416  0.00  0.00    +0.000 S 
ATOM     14  O   UNL     1       4.968   3.833  14.504  0.00  0.00    +0.000 OA
ATOM     15  O   UNL     1       5.722   6.200  14.916  0.00  0.00    +0.000 OA
BRANCH  13  16
ATOM     16  C   UNL     1       6.824   4.250  16.281  0.00  0.00    +0.000 C 
BRANCH  16  17
ATOM     17  C   UNL     1       7.340   5.315  17.227  0.00  0.00    +0.000 A 
ATOM     18  C   UNL     1       7.655   5.004  18.558  0.00  0.00    +0.000 A 
ATOM     19  C   UNL     1       8.091   6.001  19.437  0.00  0.00    +0.000 A 
ATOM     20  C   UNL     1       8.213   7.318  18.999  0.00  0.00    +0.000 A 
ATOM     21  C   UNL     1       7.903   7.641  17.682  0.00  0.00    +0.000 A 
ATOM     22  C   UNL     1       7.471   6.646  16.800  0.00  0.00    +0.000 A 
ENDBRANCH  16  17
ENDBRANCH  13  16
ENDBRANCH   1  13
BRANCH   1  24
ATOM     23  O   UNL     1       2.684   3.453  15.945  0.00  0.00    +0.000 OA
ATOM     24  C   UNL     1       3.237   3.961  16.918  0.00  0.00    +0.000 C 
BRANCH  24  25
ATOM     25  C   UNL     1       2.828   3.454  18.259  0.00  0.00    +0.000 A 
ATOM     26  C   UNL     1       3.715   3.030  19.254  0.00  0.00    +0.000 A 
ATOM     27  C   UNL     1       3.230   2.692  20.525  0.00  0.00    +0.000 A 
ATOM     28  C   UNL     1       1.860   2.721  20.788  0.00  0.00    +0.000 A 
ATOM     29 CL   UNL     1       1.274   2.298  22.348  0.00  0.00    +0.000 Cl
ATOM     30  C   UNL     1       0.963   3.089  19.793  0.00  0.00    +0.000 A 
ATOM     31  C   UNL     1       1.446   3.458  18.536  0.00  0.00    +0.000 A 
ENDBRANCH  24  25
ENDBRANCH   1  24
TORSDOF 7
ENDMDL
