MODEL 1
REMARK VINA RESULT:      -7.4      0.000      0.000
REMARK  Name = 
REMARK  5 active torsions:
REMARK  status: ('A' for Active; 'I' for Inactive)
REMARK    1  A    between atoms: C_5  and  C_6
REMARK    2  A    between atoms: N_16  and  C_17
REMARK    3  A    between atoms: C_17  and  C_18
REMARK    4  A    between atoms: C_18  and  C_19
REMARK    5  A    between atoms: C_19  and  O_20
REMARK                            x       y       z     vdW  Elec       q    Type
REMARK                         _______ _______ _______ _____ _____    ______ ____
ROOT
ATOM      1  O   UNL     1       3.768   3.001  19.222  0.00  0.00    +0.000 OA
ATOM      2  C   UNL     1       3.714   4.167  18.836  0.00  0.00    +0.000 C 
ATOM      3  C   UNL     1       4.299   4.592  17.606  0.00  0.00    +0.000 A 
ATOM      4  C   UNL     1       4.979   3.882  16.640  0.00  0.00    +0.000 A 
ATOM      5  C   UNL     1       5.318   4.819  15.626  0.00  0.00    +0.000 A 
ATOM      6  N   UNL     1       4.879   6.046  15.967  0.00  0.00    +0.000 NA
ATOM      7  N   UNL     1       4.264   5.864  17.144  0.00  0.00    +0.000 N 
ATOM      8  C   UNL     1       3.595   6.955  17.799  0.00  0.00    +0.000 C 
ATOM      9  C   UNL     1       2.989   6.567  19.148  0.00  0.00    +0.000 C 
ATOM     10  N   UNL     1       3.071   5.163  19.568  0.00  0.00    +0.000 N 
ENDROOT
BRANCH   5  11
ATOM     11  C   UNL     1       6.026   4.570  14.365  0.00  0.00    +0.000 A 
ATOM     12  C   UNL     1       5.531   3.654  13.423  0.00  0.00    +0.000 A 
ATOM     13  C   UNL     1       6.203   3.438  12.217  0.00  0.00    +0.000 A 
ATOM     14  C   UNL     1       7.377   4.132  11.936  0.00  0.00    +0.000 A 
ATOM     15  C   UNL     1       7.883   5.042  12.862  0.00  0.00    +0.000 A 
ATOM     16  C   UNL     1       7.212   5.258  14.067  0.00  0.00    +0.000 A 
ENDBRANCH   5  11
BRANCH  10  17
ATOM     17  C   UNL     1       2.470   4.800  20.850  0.00  0.00    +0.000 C 
BRANCH  17  18
ATOM     18  C   UNL     1       1.277   3.851  20.737  0.00  0.00    +0.000 C 
BRANCH  18  19
ATOM     19  C   UNL     1       1.353   2.640  21.657  0.00  0.00    +0.000 C 
BRANCH  19  20
ATOM     20  O   UNL     1       2.709   2.433  22.047  0.00  0.00    +0.000 OA
ATOM     21  H   UNL     1       2.854   2.927  22.871  0.00  0.00    +0.000 HD
ENDBRANCH  19  20
ENDBRANCH  18  19
ENDBRANCH  17  18
ENDBRANCH  10  17
TORSDOF 5
ENDMDL
MODEL 2
REMARK VINA RESULT:      -7.1      0.188      1.094
REMARK  Name = 
REMARK  5 active torsions:
REMARK  status: ('A' for Active; 'I' for Inactive)
REMARK    1  A    between atoms: C_5  and  C_6
REMARK    2  A    between atoms: N_16  and  C_17
REMARK    3  A    between atoms: C_17  and  C_18
REMARK    4  A    between atoms: C_18  and  C_19
REMARK    5  A    between atoms: C_19  and  O_20
REMARK                            x       y       z     vdW  Elec       q    Type
REMARK                         _______ _______ _______ _____ _____    ______ ____
ROOT
ATOM      1  O   UNL     1       3.945   2.969  19.175  0.00  0.00    +0.000 OA
ATOM      2  C   UNL     1       3.863   4.134  18.793  0.00  0.00    +0.000 C 
ATOM      3  C   UNL     1       4.417   4.573  17.553  0.00  0.00    +0.000 A 
ATOM      4  C   UNL     1       5.093   3.877  16.574  0.00  0.00    +0.000 A 
ATOM      5  C   UNL     1       5.396   4.822  15.556  0.00  0.00    +0.000 A 
ATOM      6  N   UNL     1       4.940   6.040  15.907  0.00  0.00    +0.000 NA
ATOM      7  N   UNL     1       4.350   5.844  17.095  0.00  0.00    +0.000 N 
ATOM      8  C   UNL     1       3.673   6.922  17.764  0.00  0.00    +0.000 C 
ATOM      9  C   UNL     1       3.100   6.520  19.124  0.00  0.00    +0.000 C 
ATOM     10  N   UNL     1       3.215   5.116  19.539  0.00  0.00    +0.000 N 
ENDROOT
BRANCH   5  11
ATOM     11  C   UNL     1       6.085   4.589  14.281  0.00  0.00    +0.000 A 
ATOM     12  C   UNL     1       7.262   5.280  13.954  0.00  0.00    +0.000 A 
ATOM     13  C   UNL     1       7.920   5.037  12.746  0.00  0.00    +0.000 A 
ATOM     14  C   UNL     1       7.411   4.101  11.848  0.00  0.00    +0.000 A 
ATOM     15  C   UNL     1       6.242   3.410  12.156  0.00  0.00    +0.000 A 
ATOM     16  C   UNL     1       5.584   3.653  13.364  0.00  0.00    +0.000 A 
ENDBRANCH   5  11
BRANCH  10  17
ATOM     17  C   UNL     1       2.644   4.740  20.831  0.00  0.00    +0.000 C 
BRANCH  17  18
ATOM     18  C   UNL     1       1.256   4.107  20.742  0.00  0.00    +0.000 C 
BRANCH  18  19
ATOM     19  C   UNL     1       1.191   2.671  21.244  0.00  0.00    +0.000 C 
BRANCH  19  20
ATOM     20  O   UNL     1       2.297   2.428  22.109  0.00  0.00    +0.000 OA
ATOM     21  H   UNL     1       1.949   2.347  23.013  0.00  0.00    +0.000 HD
ENDBRANCH  19  20
ENDBRANCH  18  19
ENDBRANCH  17  18
ENDBRANCH  10  17
TORSDOF 5
ENDMDL
MODEL 3
REMARK VINA RESULT:      -7.0      3.249      7.473
REMARK  Name = 
REMARK  5 active torsions:
REMARK  status: ('A' for Active; 'I' for Inactive)
REMARK    1  A    between atoms: C_5  and  C_6
REMARK    2  A    between atoms: N_16  and  C_17
REMARK    3  A    between atoms: C_17  and  C_18
REMARK    4  A    between atoms: C_18  and  C_19
REMARK    5  A    between atoms: C_19  and  O_20
REMARK                            x       y       z     vdW  Elec       q    Type
REMARK                         _______ _______ _______ _____ _____    ______ ____
ROOT
ATOM      1  O   UNL     1       5.348   6.816  15.842  0.00  0.00    +0.000 OA
ATOM      2  C   UNL     1       4.999   6.222  16.861  0.00  0.00    +0.000 C 
ATOM      3  C   UNL     1       3.984   6.724  17.729  0.00  0.00    +0.000 A 
ATOM      4  C   UNL     1       3.213   7.864  17.646  0.00  0.00    +0.000 A 
ATOM      5  C   UNL     1       2.357   7.844  18.781  0.00  0.00    +0.000 A 
ATOM      6  N   UNL     1       2.607   6.751  19.528  0.00  0.00    +0.000 NA
ATOM      7  N   UNL     1       3.570   6.104  18.858  0.00  0.00    +0.000 N 
ATOM      8  C   UNL     1       4.057   4.832  19.319  0.00  0.00    +0.000 C 
ATOM      9  C   UNL     1       5.182   4.268  18.451  0.00  0.00    +0.000 C 
ATOM     10  N   UNL     1       5.564   5.007  17.241  0.00  0.00    +0.000 N 
ENDROOT
BRANCH   5  11
ATOM     11  C   UNL     1       1.323   8.818  19.151  0.00  0.00    +0.000 A 
ATOM     12  C   UNL     1       0.927   8.985  20.487  0.00  0.00    +0.000 A 
ATOM     13  C   UNL     1      -0.045   9.928  20.831  0.00  0.00    +0.000 A 
ATOM     14  C   UNL     1      -0.635  10.716  19.844  0.00  0.00    +0.000 A 
ATOM     15  C   UNL     1      -0.255  10.560  18.514  0.00  0.00    +0.000 A 
ATOM     16  C   UNL     1       0.717   9.617  18.170  0.00  0.00    +0.000 A 
ENDBRANCH   5  11
BRANCH  10  17
ATOM     17  C   UNL     1       6.627   4.446  16.409  0.00  0.00    +0.000 C 
BRANCH  17  18
ATOM     18  C   UNL     1       6.134   3.802  15.113  0.00  0.00    +0.000 C 
BRANCH  18  19
ATOM     19  C   UNL     1       6.774   4.366  13.852  0.00  0.00    +0.000 C 
BRANCH  19  20
ATOM     20  O   UNL     1       7.618   5.459  14.205  0.00  0.00    +0.000 OA
ATOM     21  H   UNL     1       8.248   5.137  14.872  0.00  0.00    +0.000 HD
ENDBRANCH  19  20
ENDBRANCH  18  19
ENDBRANCH  17  18
ENDBRANCH  10  17
TORSDOF 5
ENDMDL
MODEL 4
REMARK VINA RESULT:      -7.0      3.291      7.477
REMARK  Name = 
REMARK  5 active torsions:
REMARK  status: ('A' for Active; 'I' for Inactive)
REMARK    1  A    between atoms: C_5  and  C_6
REMARK    2  A    between atoms: N_16  and  C_17
REMARK    3  A    between atoms: C_17  and  C_18
REMARK    4  A    between atoms: C_18  and  C_19
REMARK    5  A    between atoms: C_19  and  O_20
REMARK                            x       y       z     vdW  Elec       q    Type
REMARK                         _______ _______ _______ _____ _____    ______ ____
ROOT
ATOM      1  O   UNL     1       5.328   6.881  15.961  0.00  0.00    +0.000 OA
ATOM      2  C   UNL     1       4.942   6.290  16.967  0.00  0.00    +0.000 C 
ATOM      3  C   UNL     1       3.907   6.803  17.805  0.00  0.00    +0.000 A 
ATOM      4  C   UNL     1       3.153   7.951  17.702  0.00  0.00    +0.000 A 
ATOM      5  C   UNL     1       2.263   7.940  18.811  0.00  0.00    +0.000 A 
ATOM      6  N   UNL     1       2.477   6.843  19.563  0.00  0.00    +0.000 NA
ATOM      7  N   UNL     1       3.453   6.186  18.920  0.00  0.00    +0.000 N 
ATOM      8  C   UNL     1       3.910   4.907  19.394  0.00  0.00    +0.000 C 
ATOM      9  C   UNL     1       5.054   4.331  18.559  0.00  0.00    +0.000 C 
ATOM     10  N   UNL     1       5.481   5.067  17.362  0.00  0.00    +0.000 N 
ENDROOT
BRANCH   5  11
ATOM     11  C   UNL     1       1.230   8.926  19.151  0.00  0.00    +0.000 A 
ATOM     12  C   UNL     1       0.551   9.640  18.152  0.00  0.00    +0.000 A 
ATOM     13  C   UNL     1      -0.444  10.563  18.486  0.00  0.00    +0.000 A 
ATOM     14  C   UNL     1      -0.773  10.785  19.822  0.00  0.00    +0.000 A 
ATOM     15  C   UNL     1      -0.105  10.087  20.825  0.00  0.00    +0.000 A 
ATOM     16  C   UNL     1       0.890   9.164  20.491  0.00  0.00    +0.000 A 
ENDBRANCH   5  11
BRANCH  10  17
ATOM     17  C   UNL     1       6.561   4.496  16.561  0.00  0.00    +0.000 C 
BRANCH  17  18
ATOM     18  C   UNL     1       6.094   3.803  15.282  0.00  0.00    +0.000 C 
BRANCH  18  19
ATOM     19  C   UNL     1       6.750   4.326  14.012  0.00  0.00    +0.000 C 
BRANCH  19  20
ATOM     20  O   UNL     1       7.548   5.462  14.332  0.00  0.00    +0.000 OA
ATOM     21  H   UNL     1       8.153   5.202  15.047  0.00  0.00    +0.000 HD
ENDBRANCH  19  20
ENDBRANCH  18  19
ENDBRANCH  17  18
ENDBRANCH  10  17
TORSDOF 5
ENDMDL
MODEL 5
REMARK VINA RESULT:      -6.9      1.042      1.617
REMARK  Name = 
REMARK  5 active torsions:
REMARK  status: ('A' for Active; 'I' for Inactive)
REMARK    1  A    between atoms: C_5  and  C_6
REMARK    2  A    between atoms: N_16  and  C_17
REMARK    3  A    between atoms: C_17  and  C_18
REMARK    4  A    between atoms: C_18  and  C_19
REMARK    5  A    between atoms: C_19  and  O_20
REMARK                            x       y       z     vdW  Elec       q    Type
REMARK                         _______ _______ _______ _____ _____    ______ ____
ROOT
ATOM      1  O   UNL     1       3.964   2.067  19.031  0.00  0.00    +0.000 OA
ATOM      2  C   UNL     1       3.863   3.276  18.828  0.00  0.00    +0.000 C 
ATOM      3  C   UNL     1       4.402   3.904  17.666  0.00  0.00    +0.000 A 
ATOM      4  C   UNL     1       5.082   3.373  16.591  0.00  0.00    +0.000 A 
ATOM      5  C   UNL     1       5.365   4.465  15.725  0.00  0.00    +0.000 A 
ATOM      6  N   UNL     1       4.893   5.609  16.257  0.00  0.00    +0.000 NA
ATOM      7  N   UNL     1       4.314   5.228  17.404  0.00  0.00    +0.000 N 
ATOM      8  C   UNL     1       3.625   6.182  18.230  0.00  0.00    +0.000 C 
ATOM      9  C   UNL     1       3.066   5.572  19.516  0.00  0.00    +0.000 C 
ATOM     10  N   UNL     1       3.204   4.124  19.715  0.00  0.00    +0.000 N 
ENDROOT
BRANCH   5  11
ATOM     11  C   UNL     1       6.049   4.436  14.427  0.00  0.00    +0.000 A 
ATOM     12  C   UNL     1       7.188   5.221  14.189  0.00  0.00    +0.000 A 
ATOM     13  C   UNL     1       7.843   5.173  12.955  0.00  0.00    +0.000 A 
ATOM     14  C   UNL     1       7.369   4.340  11.944  0.00  0.00    +0.000 A 
ATOM     15  C   UNL     1       6.238   3.557  12.164  0.00  0.00    +0.000 A 
ATOM     16  C   UNL     1       5.583   3.606  13.397  0.00  0.00    +0.000 A 
ENDBRANCH   5  11
BRANCH  10  17
ATOM     17  C   UNL     1       2.647   3.549  20.939  0.00  0.00    +0.000 C 
BRANCH  17  18
ATOM     18  C   UNL     1       1.218   3.028  20.792  0.00  0.00    +0.000 C 
BRANCH  18  19
ATOM     19  C   UNL     1       0.694   3.035  19.362  0.00  0.00    +0.000 C 
BRANCH  19  20
ATOM     20  O   UNL     1       0.904   1.750  18.781  0.00  0.00    +0.000 OA
ATOM     21  H   UNL     1       0.046   1.296  18.759  0.00  0.00    +0.000 HD
ENDBRANCH  19  20
ENDBRANCH  18  19
ENDBRANCH  17  18
ENDBRANCH  10  17
TORSDOF 5
ENDMDL
MODEL 6
REMARK VINA RESULT:      -6.9      0.990      1.174
REMARK  Name = 
REMARK  5 active torsions:
REMARK  status: ('A' for Active; 'I' for Inactive)
REMARK    1  A    between atoms: C_5  and  C_6
REMARK    2  A    between atoms: N_16  and  C_17
REMARK    3  A    between atoms: C_17  and  C_18
REMARK    4  A    between atoms: C_18  and  C_19
REMARK    5  A    between atoms: C_19  and  O_20
REMARK                            x       y       z     vdW  Elec       q    Type
REMARK                         _______ _______ _______ _____ _____    ______ ____
ROOT
ATOM      1  O   UNL     1       4.015   2.206  19.156  0.00  0.00    +0.000 OA
ATOM      2  C   UNL     1       3.864   3.397  18.894  0.00  0.00    +0.000 C 
ATOM      3  C   UNL     1       4.388   3.990  17.706  0.00  0.00    +0.000 A 
ATOM      4  C   UNL     1       5.099   3.438  16.663  0.00  0.00    +0.000 A 
ATOM      5  C   UNL     1       5.344   4.497  15.747  0.00  0.00    +0.000 A 
ATOM      6  N   UNL     1       4.819   5.644  16.218  0.00  0.00    +0.000 NA
ATOM      7  N   UNL     1       4.245   5.295  17.378  0.00  0.00    +0.000 N 
ATOM      8  C   UNL     1       3.509   6.258  18.151  0.00  0.00    +0.000 C 
ATOM      9  C   UNL     1       2.964   5.689  19.461  0.00  0.00    +0.000 C 
ATOM     10  N   UNL     1       3.162   4.259  19.733  0.00  0.00    +0.000 N 
ENDROOT
BRANCH   5  11
ATOM     11  C   UNL     1       6.041   4.434  14.457  0.00  0.00    +0.000 A 
ATOM     12  C   UNL     1       5.582   3.603  13.423  0.00  0.00    +0.000 A 
ATOM     13  C   UNL     1       6.242   3.564  12.192  0.00  0.00    +0.000 A 
ATOM     14  C   UNL     1       7.370   4.353  11.978  0.00  0.00    +0.000 A 
ATOM     15  C   UNL     1       7.840   5.180  12.995  0.00  0.00    +0.000 A 
ATOM     16  C   UNL     1       7.180   5.219  14.225  0.00  0.00    +0.000 A 
ENDBRANCH   5  11
BRANCH  10  17
ATOM     17  C   UNL     1       2.619   3.722  20.979  0.00  0.00    +0.000 C 
BRANCH  17  18
ATOM     18  C   UNL     1       1.331   2.917  20.805  0.00  0.00    +0.000 C 
BRANCH  18  19
ATOM     19  C   UNL     1       0.698   3.041  19.426  0.00  0.00    +0.000 C 
BRANCH  19  20
ATOM     20  O   UNL     1       0.919   1.834  18.701  0.00  0.00    +0.000 OA
ATOM     21  H   UNL     1       0.210   1.756  18.041  0.00  0.00    +0.000 HD
ENDBRANCH  19  20
ENDBRANCH  18  19
ENDBRANCH  17  18
ENDBRANCH  10  17
TORSDOF 5
ENDMDL
MODEL 7
REMARK VINA RESULT:      -6.8      3.073      7.628
REMARK  Name = 
REMARK  5 active torsions:
REMARK  status: ('A' for Active; 'I' for Inactive)
REMARK    1  A    between atoms: C_5  and  C_6
REMARK    2  A    between atoms: N_16  and  C_17
REMARK    3  A    between atoms: C_17  and  C_18
REMARK    4  A    between atoms: C_18  and  C_19
REMARK    5  A    between atoms: C_19  and  O_20
REMARK                            x       y       z     vdW  Elec       q    Type
REMARK                         _______ _______ _______ _____ _____    ______ ____
ROOT
ATOM      1  O   UNL     1       5.129   6.999  15.403  0.00  0.00    +0.000 OA
ATOM      2  C   UNL     1       4.949   6.219  16.336  0.00  0.00    +0.000 C 
ATOM      3  C   UNL     1       4.092   6.526  17.435  0.00  0.00    +0.000 A 
ATOM      4  C   UNL     1       3.323   7.640  17.692  0.00  0.00    +0.000 A 
ATOM      5  C   UNL     1       2.665   7.390  18.927  0.00  0.00    +0.000 A 
ATOM      6  N   UNL     1       3.029   6.186  19.407  0.00  0.00    +0.000 NA
ATOM      7  N   UNL     1       3.867   5.698  18.482  0.00  0.00    +0.000 N 
ATOM      8  C   UNL     1       4.417   4.377  18.614  0.00  0.00    +0.000 C 
ATOM      9  C   UNL     1       5.383   4.011  17.486  0.00  0.00    +0.000 C 
ATOM     10  N   UNL     1       5.563   4.969  16.388  0.00  0.00    +0.000 N 
ENDROOT
BRANCH   5  11
ATOM     11  C   UNL     1       1.710   8.252  19.633  0.00  0.00    +0.000 A 
ATOM     12  C   UNL     1       1.178   9.399  19.024  0.00  0.00    +0.000 A 
ATOM     13  C   UNL     1       0.255  10.203  19.699  0.00  0.00    +0.000 A 
ATOM     14  C   UNL     1      -0.148   9.872  20.991  0.00  0.00    +0.000 A 
ATOM     15  C   UNL     1       0.373   8.738  21.610  0.00  0.00    +0.000 A 
ATOM     16  C   UNL     1       1.295   7.935  20.936  0.00  0.00    +0.000 A 
ENDBRANCH   5  11
BRANCH  10  17
ATOM     17  C   UNL     1       6.473   4.600  15.305  0.00  0.00    +0.000 C 
BRANCH  17  18
ATOM     18  C   UNL     1       5.792   3.912  14.122  0.00  0.00    +0.000 C 
BRANCH  18  19
ATOM     19  C   UNL     1       6.633   3.873  12.854  0.00  0.00    +0.000 C 
BRANCH  19  20
ATOM     20  O   UNL     1       6.489   2.596  12.237  0.00  0.00    +0.000 OA
ATOM     21  H   UNL     1       6.742   1.925  12.893  0.00  0.00    +0.000 HD
ENDBRANCH  19  20
ENDBRANCH  18  19
ENDBRANCH  17  18
ENDBRANCH  10  17
TORSDOF 5
ENDMDL
MODEL 8
REMARK VINA RESULT:      -6.6      1.428      1.873
REMARK  Name = 
REMARK  5 active torsions:
REMARK  status: ('A' for Active; 'I' for Inactive)
REMARK    1  A    between atoms: C_5  and  C_6
REMARK    2  A    between atoms: N_16  and  C_17
REMARK    3  A    between atoms: C_17  and  C_18
REMARK    4  A    between atoms: C_18  and  C_19
REMARK    5  A    between atoms: C_19  and  O_20
REMARK                            x       y       z     vdW  Elec       q    Type
REMARK                         _______ _______ _______ _____ _____    ______ ____
ROOT
ATOM      1  O   UNL     1       1.837   4.595  17.729  0.00  0.00    +0.000 OA
ATOM      2  C   UNL     1       2.993   4.702  18.136  0.00  0.00    +0.000 C 
ATOM      3  C   UNL     1       4.119   4.637  17.262  0.00  0.00    +0.000 A 
ATOM      4  C   UNL     1       4.189   4.474  15.895  0.00  0.00    +0.000 A 
ATOM      5  C   UNL     1       5.572   4.500  15.565  0.00  0.00    +0.000 A 
ATOM      6  N   UNL     1       6.309   4.655  16.681  0.00  0.00    +0.000 NA
ATOM      7  N   UNL     1       5.405   4.749  17.667  0.00  0.00    +0.000 N 
ATOM      8  C   UNL     1       5.820   4.996  19.021  0.00  0.00    +0.000 C 
ATOM      9  C   UNL     1       4.654   5.028  20.010  0.00  0.00    +0.000 C 
ATOM     10  N   UNL     1       3.290   4.903  19.482  0.00  0.00    +0.000 N 
ENDROOT
BRANCH   5  11
ATOM     11  C   UNL     1       6.186   4.393  14.236  0.00  0.00    +0.000 A 
ATOM     12  C   UNL     1       7.304   5.167  13.889  0.00  0.00    +0.000 A 
ATOM     13  C   UNL     1       7.893   5.045  12.627  0.00  0.00    +0.000 A 
ATOM     14  C   UNL     1       7.372   4.150  11.696  0.00  0.00    +0.000 A 
ATOM     15  C   UNL     1       6.261   3.377  12.024  0.00  0.00    +0.000 A 
ATOM     16  C   UNL     1       5.672   3.499  13.285  0.00  0.00    +0.000 A 
ENDBRANCH   5  11
BRANCH  10  17
ATOM     17  C   UNL     1       2.184   4.956  20.435  0.00  0.00    +0.000 C 
BRANCH  17  18
ATOM     18  C   UNL     1       2.205   3.843  21.482  0.00  0.00    +0.000 C 
BRANCH  18  19
ATOM     19  C   UNL     1       1.237   2.702  21.201  0.00  0.00    +0.000 C 
BRANCH  19  20
ATOM     20  O   UNL     1       0.458   3.022  20.051  0.00  0.00    +0.000 OA
ATOM     21  H   UNL     1      -0.258   3.613  20.339  0.00  0.00    +0.000 HD
ENDBRANCH  19  20
ENDBRANCH  18  19
ENDBRANCH  17  18
ENDBRANCH  10  17
TORSDOF 5
ENDMDL
MODEL 9
REMARK VINA RESULT:      -6.6      3.807      7.948
REMARK  Name = 
REMARK  5 active torsions:
REMARK  status: ('A' for Active; 'I' for Inactive)
REMARK    1  A    between atoms: C_5  and  C_6
REMARK    2  A    between atoms: N_16  and  C_17
REMARK    3  A    between atoms: C_17  and  C_18
REMARK    4  A    between atoms: C_18  and  C_19
REMARK    5  A    between atoms: C_19  and  O_20
REMARK                            x       y       z     vdW  Elec       q    Type
REMARK                         _______ _______ _______ _____ _____    ______ ____
ROOT
ATOM      1  O   UNL     1       2.808   4.722  20.593  0.00  0.00    +0.000 OA
ATOM      2  C   UNL     1       2.904   5.603  19.740  0.00  0.00    +0.000 C 
ATOM      3  C   UNL     1       2.246   6.863  19.865  0.00  0.00    +0.000 A 
ATOM      4  C   UNL     1       1.442   7.362  20.868  0.00  0.00    +0.000 A 
ATOM      5  C   UNL     1       1.079   8.676  20.465  0.00  0.00    +0.000 A 
ATOM      6  N   UNL     1       1.624   8.958  19.266  0.00  0.00    +0.000 NA
ATOM      7  N   UNL     1       2.323   7.858  18.952  0.00  0.00    +0.000 N 
ATOM      8  C   UNL     1       3.114   7.809  17.752  0.00  0.00    +0.000 C 
ATOM      9  C   UNL     1       3.805   6.462  17.542  0.00  0.00    +0.000 C 
ATOM     10  N   UNL     1       3.670   5.441  18.588  0.00  0.00    +0.000 N 
ENDROOT
BRANCH   5  11
ATOM     11  C   UNL     1       0.253   9.648  21.191  0.00  0.00    +0.000 A 
ATOM     12  C   UNL     1      -0.214  10.814  20.566  0.00  0.00    +0.000 A 
ATOM     13  C   UNL     1      -1.016  11.725  21.260  0.00  0.00    +0.000 A 
ATOM     14  C   UNL     1      -1.360  11.482  22.588  0.00  0.00    +0.000 A 
ATOM     15  C   UNL     1      -0.902  10.331  23.224  0.00  0.00    +0.000 A 
ATOM     16  C   UNL     1      -0.101   9.421  22.530  0.00  0.00    +0.000 A 
ENDBRANCH   5  11
BRANCH  10  17
ATOM     17  C   UNL     1       4.352   4.164  18.384  0.00  0.00    +0.000 C 
BRANCH  17  18
ATOM     18  C   UNL     1       3.699   3.264  17.336  0.00  0.00    +0.000 C 
BRANCH  18  19
ATOM     19  C   UNL     1       2.826   2.160  17.917  0.00  0.00    +0.000 C 
BRANCH  19  20
ATOM     20  O   UNL     1       3.079   2.052  19.315  0.00  0.00    +0.000 OA
ATOM     21  H   UNL     1       3.051   1.108  19.545  0.00  0.00    +0.000 HD
ENDBRANCH  19  20
ENDBRANCH  18  19
ENDBRANCH  17  18
ENDBRANCH  10  17
TORSDOF 5
ENDMDL
