MODEL 1
REMARK VINA RESULT:      -7.1      0.000      0.000
REMARK  Name = 
REMARK  9 active torsions:
REMARK  status: ('A' for Active; 'I' for Inactive)
REMARK    1  A    between atoms: C_1  and  C_2
REMARK    2  A    between atoms: C_5  and  N_6
REMARK    3  A    between atoms: C_7  and  C_9
REMARK    4  A    between atoms: N_18  and  C_19
REMARK    5  A    between atoms: C_19  and  C_20
REMARK    6  A    between atoms: C_20  and  C_21
REMARK    7  A    between atoms: C_20  and  C_22
REMARK    8  A    between atoms: C_23  and  C_24
REMARK    9  A    between atoms: C_30  and  C_31
REMARK                            x       y       z     vdW  Elec       q    Type
REMARK                         _______ _______ _______ _____ _____    ______ ____
ROOT
ATOM      1  C   UNL     1       0.498  11.019  19.807  0.00  0.00    +0.000 C 
ATOM      2  C   UNL     1       1.102  12.278  19.217  0.00  0.00    +0.000 A 
ATOM      3  C   UNL     1       2.259  12.284  18.433  0.00  0.00    +0.000 A 
ATOM      4  C   UNL     1       2.696  13.473  17.840  0.00  0.00    +0.000 A 
ATOM      5  C   UNL     1       1.999  14.661  18.047  0.00  0.00    +0.000 A 
ATOM      6  C   UNL     1       0.901  14.685  18.902  0.00  0.00    +0.000 A 
ATOM      7  C   UNL     1       0.467  13.503  19.514  0.00  0.00    +0.000 A 
ATOM      8  C   UNL     1      -0.714  13.568  20.437  0.00  0.00    +0.000 C 
ATOM      9  O   UNL     1      -1.075  14.656  20.875  0.00  0.00    +0.000 OA
ATOM     10  N   UNL     1      -1.346  12.358  20.756  0.00  0.00    +0.000 N 
ATOM     11  C   UNL     1      -1.036  11.162  19.963  0.00  0.00    +0.000 C 
ENDROOT
BRANCH  11  12
ATOM     12  C   UNL     1      -1.765  11.188  18.630  0.00  0.00    +0.000 A 
ATOM     13  C   UNL     1      -1.650  12.039  17.541  0.00  0.00    +0.000 A 
ATOM     14  C   UNL     1      -2.062  11.397  16.341  0.00  0.00    +0.000 A 
ATOM     15  C   UNL     1      -2.732  10.224  16.595  0.00  0.00    +0.000 A 
ATOM     16  S   UNL     1      -2.885   9.933  18.271  0.00  0.00    +0.000 S 
ENDBRANCH  11  12
BRANCH   1  18
ATOM     17  N   UNL     1       1.561   8.740  20.046  0.00  0.00    +0.000 N 
ATOM     18  C   UNL     1       0.899   9.657  19.243  0.00  0.00    +0.000 C 
ATOM     19  O   UNL     1       0.607   9.442  18.049  0.00  0.00    +0.000 OA
ATOM     20  H   UNL     1       1.669   8.961  21.032  0.00  0.00    +0.000 HD
BRANCH  17  25
ATOM     21  C   UNL     1       2.987   3.393  18.353  0.00  0.00    +0.000 C 
ATOM     22  C   UNL     1       2.642   4.774  18.851  0.00  0.00    +0.000 A 
ATOM     23  C   UNL     1       3.025   5.880  18.086  0.00  0.00    +0.000 A 
ATOM     24  C   UNL     1       2.695   7.182  18.483  0.00  0.00    +0.000 A 
ATOM     25  C   UNL     1       1.969   7.426  19.651  0.00  0.00    +0.000 A 
ATOM     26  C   UNL     1       1.625   6.315  20.447  0.00  0.00    +0.000 A 
ATOM     27  C   UNL     1       1.945   4.992  20.051  0.00  0.00    +0.000 A 
ATOM     28  C   UNL     1       1.524   3.818  20.901  0.00  0.00    +0.000 C 
ENDBRANCH  17  25
ENDBRANCH   1  18
BRANCH  10  29
ATOM     29  C   UNL     1      -2.542  12.400  21.613  0.00  0.00    +0.000 C 
BRANCH  29  30
ATOM     30  C   UNL     1      -2.313  12.238  23.133  0.00  0.00    +0.000 C 
ATOM     31  C   UNL     1      -3.627  12.208  23.915  0.00  0.00    +0.000 C 
ATOM     32  C   UNL     1      -1.524  10.952  23.402  0.00  0.00    +0.000 C 
ENDBRANCH  29  30
ENDBRANCH  10  29
TORSDOF 5
ENDMDL
MODEL 2
REMARK VINA RESULT:      -7.0      1.672      4.051
REMARK  Name = 
REMARK  9 active torsions:
REMARK  status: ('A' for Active; 'I' for Inactive)
REMARK    1  A    between atoms: C_1  and  C_2
REMARK    2  A    between atoms: C_5  and  N_6
REMARK    3  A    between atoms: C_7  and  C_9
REMARK    4  A    between atoms: N_18  and  C_19
REMARK    5  A    between atoms: C_19  and  C_20
REMARK    6  A    between atoms: C_20  and  C_21
REMARK    7  A    between atoms: C_20  and  C_22
REMARK    8  A    between atoms: C_23  and  C_24
REMARK    9  A    between atoms: C_30  and  C_31
REMARK                            x       y       z     vdW  Elec       q    Type
REMARK                         _______ _______ _______ _____ _____    ______ ____
ROOT
ATOM      1  C   UNL     1       0.887  10.514  18.590  0.00  0.00    +0.000 C 
ATOM      2  C   UNL     1      -0.582  10.628  18.232  0.00  0.00    +0.000 A 
ATOM      3  C   UNL     1      -1.260   9.689  17.448  0.00  0.00    +0.000 A 
ATOM      4  C   UNL     1      -2.638   9.810  17.246  0.00  0.00    +0.000 A 
ATOM      5  C   UNL     1      -3.340  10.877  17.803  0.00  0.00    +0.000 A 
ATOM      6  C   UNL     1      -2.661  11.868  18.505  0.00  0.00    +0.000 A 
ATOM      7  C   UNL     1      -1.277  11.764  18.696  0.00  0.00    +0.000 A 
ATOM      8  C   UNL     1      -0.576  12.856  19.450  0.00  0.00    +0.000 C 
ATOM      9  O   UNL     1      -1.141  13.934  19.609  0.00  0.00    +0.000 OA
ATOM     10  N   UNL     1       0.709  12.578  19.934  0.00  0.00    +0.000 N 
ATOM     11  C   UNL     1       1.177  11.185  19.956  0.00  0.00    +0.000 C 
ENDROOT
BRANCH  11  12
ATOM     12  C   UNL     1       0.574  10.426  21.126  0.00  0.00    +0.000 A 
ATOM     13  C   UNL     1       1.083   9.407  21.916  0.00  0.00    +0.000 A 
ATOM     14  C   UNL     1       0.465   9.391  23.197  0.00  0.00    +0.000 A 
ATOM     15  C   UNL     1      -0.660  10.180  23.229  0.00  0.00    +0.000 A 
ATOM     16  S   UNL     1      -0.975  10.897  21.711  0.00  0.00    +0.000 S 
ENDBRANCH  11  12
BRANCH   1  18
ATOM     17  N   UNL     1       1.669   8.302  19.526  0.00  0.00    +0.000 N 
ATOM     18  C   UNL     1       1.594   9.168  18.445  0.00  0.00    +0.000 C 
ATOM     19  O   UNL     1       2.089   8.918  17.327  0.00  0.00    +0.000 OA
ATOM     20  H   UNL     1       1.153   8.545  20.368  0.00  0.00    +0.000 HD
BRANCH  17  25
ATOM     21  C   UNL     1       3.943   2.983  19.357  0.00  0.00    +0.000 C 
ATOM     22  C   UNL     1       3.363   4.371  19.464  0.00  0.00    +0.000 A 
ATOM     23  C   UNL     1       3.824   5.362  18.591  0.00  0.00    +0.000 A 
ATOM     24  C   UNL     1       3.291   6.656  18.622  0.00  0.00    +0.000 A 
ATOM     25  C   UNL     1       2.278   7.007  19.518  0.00  0.00    +0.000 A 
ATOM     26  C   UNL     1       1.847   6.022  20.429  0.00  0.00    +0.000 A 
ATOM     27  C   UNL     1       2.372   4.706  20.401  0.00  0.00    +0.000 A 
ATOM     28  C   UNL     1       1.859   3.659  21.360  0.00  0.00    +0.000 C 
ENDBRANCH  17  25
ENDBRANCH   1  18
BRANCH  10  29
ATOM     29  C   UNL     1       1.396  13.610  20.726  0.00  0.00    +0.000 C 
BRANCH  29  30
ATOM     30  C   UNL     1       2.375  14.533  19.966  0.00  0.00    +0.000 C 
ATOM     31  C   UNL     1       2.707  14.000  18.572  0.00  0.00    +0.000 C 
ATOM     32  C   UNL     1       1.775  15.939  19.852  0.00  0.00    +0.000 C 
ENDBRANCH  29  30
ENDBRANCH  10  29
TORSDOF 5
ENDMDL
MODEL 3
REMARK VINA RESULT:      -6.9      7.277     11.129
REMARK  Name = 
REMARK  9 active torsions:
REMARK  status: ('A' for Active; 'I' for Inactive)
REMARK    1  A    between atoms: C_1  and  C_2
REMARK    2  A    between atoms: C_5  and  N_6
REMARK    3  A    between atoms: C_7  and  C_9
REMARK    4  A    between atoms: N_18  and  C_19
REMARK    5  A    between atoms: C_19  and  C_20
REMARK    6  A    between atoms: C_20  and  C_21
REMARK    7  A    between atoms: C_20  and  C_22
REMARK    8  A    between atoms: C_23  and  C_24
REMARK    9  A    between atoms: C_30  and  C_31
REMARK                            x       y       z     vdW  Elec       q    Type
REMARK                         _______ _______ _______ _____ _____    ______ ____
ROOT
ATOM      1  C   UNL     1       8.370  14.976  17.824  0.00  0.00    +0.000 C 
ATOM      2  C   UNL     1       9.547  15.911  17.626  0.00  0.00    +0.000 A 
ATOM      3  C   UNL     1       9.423  17.301  17.545  0.00  0.00    +0.000 A 
ATOM      4  C   UNL     1      10.566  18.102  17.465  0.00  0.00    +0.000 A 
ATOM      5  C   UNL     1      11.833  17.522  17.439  0.00  0.00    +0.000 A 
ATOM      6  C   UNL     1      11.964  16.136  17.423  0.00  0.00    +0.000 A 
ATOM      7  C   UNL     1      10.823  15.326  17.485  0.00  0.00    +0.000 A 
ATOM      8  C   UNL     1      11.002  13.836  17.457  0.00  0.00    +0.000 C 
ATOM      9  O   UNL     1      12.071  13.368  17.077  0.00  0.00    +0.000 OA
ATOM     10  N   UNL     1       9.917  13.052  17.868  0.00  0.00    +0.000 N 
ATOM     11  C   UNL     1       8.802  13.694  18.577  0.00  0.00    +0.000 C 
ENDROOT
BRANCH  11  12
ATOM     12  C   UNL     1       9.161  13.957  20.031  0.00  0.00    +0.000 A 
ATOM     13  C   UNL     1      10.327  14.426  20.615  0.00  0.00    +0.000 A 
ATOM     14  C   UNL     1      10.060  15.054  21.864  0.00  0.00    +0.000 A 
ATOM     15  C   UNL     1       8.787  14.784  22.308  0.00  0.00    +0.000 A 
ATOM     16  S   UNL     1       7.948  13.753  21.235  0.00  0.00    +0.000 S 
ENDBRANCH  11  12
BRANCH   1  18
ATOM     17  N   UNL     1       5.847  14.960  17.944  0.00  0.00    +0.000 N 
ATOM     18  C   UNL     1       7.046  15.534  18.342  0.00  0.00    +0.000 C 
ATOM     19  O   UNL     1       7.118  16.513  19.112  0.00  0.00    +0.000 OA
ATOM     20  H   UNL     1       5.887  14.105  17.394  0.00  0.00    +0.000 HD
BRANCH  17  25
ATOM     21  C   UNL     1       0.682  16.780  19.813  0.00  0.00    +0.000 C 
ATOM     22  C   UNL     1       2.009  16.245  19.336  0.00  0.00    +0.000 A 
ATOM     23  C   UNL     1       2.496  16.667  18.095  0.00  0.00    +0.000 A 
ATOM     24  C   UNL     1       3.740  16.232  17.623  0.00  0.00    +0.000 A 
ATOM     25  C   UNL     1       4.543  15.367  18.371  0.00  0.00    +0.000 A 
ATOM     26  C   UNL     1       4.031  14.905  19.600  0.00  0.00    +0.000 A 
ATOM     27  C   UNL     1       2.778  15.346  20.093  0.00  0.00    +0.000 A 
ATOM     28  C   UNL     1       2.274  14.870  21.434  0.00  0.00    +0.000 C 
ENDBRANCH  17  25
ENDBRANCH   1  18
BRANCH  10  29
ATOM     29  C   UNL     1      10.085  11.591  17.905  0.00  0.00    +0.000 C 
BRANCH  29  30
ATOM     30  C   UNL     1       9.068  10.796  18.754  0.00  0.00    +0.000 C 
ATOM     31  C   UNL     1       8.583   9.531  18.043  0.00  0.00    +0.000 C 
ATOM     32  C   UNL     1       9.700  10.420  20.100  0.00  0.00    +0.000 C 
ENDBRANCH  29  30
ENDBRANCH  10  29
TORSDOF 5
ENDMDL
MODEL 4
REMARK VINA RESULT:      -6.9      2.059      4.264
REMARK  Name = 
REMARK  9 active torsions:
REMARK  status: ('A' for Active; 'I' for Inactive)
REMARK    1  A    between atoms: C_1  and  C_2
REMARK    2  A    between atoms: C_5  and  N_6
REMARK    3  A    between atoms: C_7  and  C_9
REMARK    4  A    between atoms: N_18  and  C_19
REMARK    5  A    between atoms: C_19  and  C_20
REMARK    6  A    between atoms: C_20  and  C_21
REMARK    7  A    between atoms: C_20  and  C_22
REMARK    8  A    between atoms: C_23  and  C_24
REMARK    9  A    between atoms: C_30  and  C_31
REMARK                            x       y       z     vdW  Elec       q    Type
REMARK                         _______ _______ _______ _____ _____    ______ ____
ROOT
ATOM      1  C   UNL     1       0.859  10.563  18.869  0.00  0.00    +0.000 C 
ATOM      2  C   UNL     1      -0.603  10.804  18.549  0.00  0.00    +0.000 A 
ATOM      3  C   UNL     1      -1.427   9.850  17.946  0.00  0.00    +0.000 A 
ATOM      4  C   UNL     1      -2.791  10.110  17.777  0.00  0.00    +0.000 A 
ATOM      5  C   UNL     1      -3.332  11.327  18.185  0.00  0.00    +0.000 A 
ATOM      6  C   UNL     1      -2.504  12.320  18.700  0.00  0.00    +0.000 A 
ATOM      7  C   UNL     1      -1.134  12.075  18.855  0.00  0.00    +0.000 A 
ATOM      8  C   UNL     1      -0.269  13.172  19.405  0.00  0.00    +0.000 C 
ATOM      9  O   UNL     1      -0.694  14.323  19.414  0.00  0.00    +0.000 OA
ATOM     10  N   UNL     1       0.999  12.812  19.881  0.00  0.00    +0.000 N 
ATOM     11  C   UNL     1       1.300  11.391  20.102  0.00  0.00    +0.000 C 
ENDROOT
BRANCH  11  12
ATOM     12  C   UNL     1       0.676  10.897  21.397  0.00  0.00    +0.000 A 
ATOM     13  C   UNL     1      -0.517  11.227  22.022  0.00  0.00    +0.000 A 
ATOM     14  C   UNL     1      -0.973  10.167  22.853  0.00  0.00    +0.000 A 
ATOM     15  C   UNL     1       0.005   9.221  23.055  0.00  0.00    +0.000 A 
ATOM     16  S   UNL     1       1.464   9.643  22.272  0.00  0.00    +0.000 S 
ENDBRANCH  11  12
BRANCH   1  18
ATOM     17  N   UNL     1       2.173   8.653  17.866  0.00  0.00    +0.000 N 
ATOM     18  C   UNL     1       1.395   9.134  18.910  0.00  0.00    +0.000 C 
ATOM     19  O   UNL     1       1.085   8.452  19.908  0.00  0.00    +0.000 OA
ATOM     20  H   UNL     1       2.457   9.309  17.143  0.00  0.00    +0.000 HD
BRANCH  17  25
ATOM     21  C   UNL     1       4.444   3.358  17.330  0.00  0.00    +0.000 C 
ATOM     22  C   UNL     1       3.830   4.721  17.527  0.00  0.00    +0.000 A 
ATOM     23  C   UNL     1       4.635   5.852  17.362  0.00  0.00    +0.000 A 
ATOM     24  C   UNL     1       4.105   7.141  17.495  0.00  0.00    +0.000 A 
ATOM     25  C   UNL     1       2.755   7.348  17.791  0.00  0.00    +0.000 A 
ATOM     26  C   UNL     1       1.954   6.208  18.004  0.00  0.00    +0.000 A 
ATOM     27  C   UNL     1       2.477   4.898  17.863  0.00  0.00    +0.000 A 
ATOM     28  C   UNL     1       1.585   3.696  18.053  0.00  0.00    +0.000 C 
ENDBRANCH  17  25
ENDBRANCH   1  18
BRANCH  10  29
ATOM     29  C   UNL     1       1.844  13.857  20.478  0.00  0.00    +0.000 C 
BRANCH  29  30
ATOM     30  C   UNL     1       2.934  14.471  19.571  0.00  0.00    +0.000 C 
ATOM     31  C   UNL     1       2.992  13.798  18.199  0.00  0.00    +0.000 C 
ATOM     32  C   UNL     1       2.678  15.973  19.399  0.00  0.00    +0.000 C 
ENDBRANCH  29  30
ENDBRANCH  10  29
TORSDOF 5
ENDMDL
MODEL 5
REMARK VINA RESULT:      -6.9      1.159      1.409
REMARK  Name = 
REMARK  9 active torsions:
REMARK  status: ('A' for Active; 'I' for Inactive)
REMARK    1  A    between atoms: C_1  and  C_2
REMARK    2  A    between atoms: C_5  and  N_6
REMARK    3  A    between atoms: C_7  and  C_9
REMARK    4  A    between atoms: N_18  and  C_19
REMARK    5  A    between atoms: C_19  and  C_20
REMARK    6  A    between atoms: C_20  and  C_21
REMARK    7  A    between atoms: C_20  and  C_22
REMARK    8  A    between atoms: C_23  and  C_24
REMARK    9  A    between atoms: C_30  and  C_31
REMARK                            x       y       z     vdW  Elec       q    Type
REMARK                         _______ _______ _______ _____ _____    ______ ____
ROOT
ATOM      1  C   UNL     1      -0.246  11.270  20.485  0.00  0.00    +0.000 C 
ATOM      2  C   UNL     1       0.510  12.430  19.866  0.00  0.00    +0.000 A 
ATOM      3  C   UNL     1       1.838  12.344  19.438  0.00  0.00    +0.000 A 
ATOM      4  C   UNL     1       2.434  13.427  18.784  0.00  0.00    +0.000 A 
ATOM      5  C   UNL     1       1.719  14.605  18.577  0.00  0.00    +0.000 A 
ATOM      6  C   UNL     1       0.429  14.735  19.083  0.00  0.00    +0.000 A 
ATOM      7  C   UNL     1      -0.168  13.662  19.756  0.00  0.00    +0.000 A 
ATOM      8  C   UNL     1      -1.557  13.841  20.296  0.00  0.00    +0.000 C 
ATOM      9  O   UNL     1      -2.012  14.974  20.417  0.00  0.00    +0.000 OA
ATOM     10  N   UNL     1      -2.265  12.682  20.642  0.00  0.00    +0.000 N 
ATOM     11  C   UNL     1      -1.763  11.379  20.190  0.00  0.00    +0.000 C 
ENDROOT
BRANCH  11  12
ATOM     12  C   UNL     1      -2.097  11.143  18.726  0.00  0.00    +0.000 A 
ATOM     13  C   UNL     1      -1.353  10.591  17.695  0.00  0.00    +0.000 A 
ATOM     14  C   UNL     1      -2.195  10.044  16.688  0.00  0.00    +0.000 A 
ATOM     15  C   UNL     1      -3.500  10.449  16.841  0.00  0.00    +0.000 A 
ATOM     16  S   UNL     1      -3.683  11.509  18.168  0.00  0.00    +0.000 S 
ENDBRANCH  11  12
BRANCH   1  18
ATOM     17  N   UNL     1       1.323   9.600  19.422  0.00  0.00    +0.000 N 
ATOM     18  C   UNL     1       0.280   9.848  20.303  0.00  0.00    +0.000 C 
ATOM     19  O   UNL     1      -0.282   8.957  20.972  0.00  0.00    +0.000 OA
ATOM     20  H   UNL     1       1.785  10.398  18.994  0.00  0.00    +0.000 HD
BRANCH  17  25
ATOM     21  C   UNL     1       3.533   4.358  18.361  0.00  0.00    +0.000 C 
ATOM     22  C   UNL     1       2.989   5.725  18.693  0.00  0.00    +0.000 A 
ATOM     23  C   UNL     1       3.131   6.752  17.755  0.00  0.00    +0.000 A 
ATOM     24  C   UNL     1       2.610   8.028  17.997  0.00  0.00    +0.000 A 
ATOM     25  C   UNL     1       1.924   8.324  19.178  0.00  0.00    +0.000 A 
ATOM     26  C   UNL     1       1.822   7.303  20.144  0.00  0.00    +0.000 A 
ATOM     27  C   UNL     1       2.337   6.004  19.906  0.00  0.00    +0.000 A 
ATOM     28  C   UNL     1       2.174   4.917  20.940  0.00  0.00    +0.000 C 
ENDBRANCH  17  25
ENDBRANCH   1  18
BRANCH  10  29
ATOM     29  C   UNL     1      -3.649  12.826  21.120  0.00  0.00    +0.000 C 
BRANCH  29  30
ATOM     30  C   UNL     1      -3.869  12.741  22.647  0.00  0.00    +0.000 C 
ATOM     31  C   UNL     1      -2.639  12.203  23.380  0.00  0.00    +0.000 C 
ATOM     32  C   UNL     1      -4.232  14.126  23.195  0.00  0.00    +0.000 C 
ENDBRANCH  29  30
ENDBRANCH  10  29
TORSDOF 5
ENDMDL
MODEL 6
REMARK VINA RESULT:      -6.9      1.872      4.206
REMARK  Name = 
REMARK  9 active torsions:
REMARK  status: ('A' for Active; 'I' for Inactive)
REMARK    1  A    between atoms: C_1  and  C_2
REMARK    2  A    between atoms: C_5  and  N_6
REMARK    3  A    between atoms: C_7  and  C_9
REMARK    4  A    between atoms: N_18  and  C_19
REMARK    5  A    between atoms: C_19  and  C_20
REMARK    6  A    between atoms: C_20  and  C_21
REMARK    7  A    between atoms: C_20  and  C_22
REMARK    8  A    between atoms: C_23  and  C_24
REMARK    9  A    between atoms: C_30  and  C_31
REMARK                            x       y       z     vdW  Elec       q    Type
REMARK                         _______ _______ _______ _____ _____    ______ ____
ROOT
ATOM      1  C   UNL     1       0.580  11.238  18.729  0.00  0.00    +0.000 C 
ATOM      2  C   UNL     1      -0.876  11.035  18.355  0.00  0.00    +0.000 A 
ATOM      3  C   UNL     1      -1.312  10.058  17.455  0.00  0.00    +0.000 A 
ATOM      4  C   UNL     1      -2.680   9.866  17.240  0.00  0.00    +0.000 A 
ATOM      5  C   UNL     1      -3.616  10.661  17.900  0.00  0.00    +0.000 A 
ATOM      6  C   UNL     1      -3.191  11.698  18.724  0.00  0.00    +0.000 A 
ATOM      7  C   UNL     1      -1.822  11.909  18.931  0.00  0.00    +0.000 A 
ATOM      8  C   UNL     1      -1.399  13.043  19.819  0.00  0.00    +0.000 C 
ATOM      9  O   UNL     1      -2.207  13.927  20.088  0.00  0.00    +0.000 OA
ATOM     10  N   UNL     1      -0.082  13.029  20.295  0.00  0.00    +0.000 N 
ATOM     11  C   UNL     1       0.709  11.797  20.168  0.00  0.00    +0.000 C 
ENDROOT
BRANCH  11  12
ATOM     12  C   UNL     1       0.315  10.785  21.231  0.00  0.00    +0.000 A 
ATOM     13  C   UNL     1       0.979   9.673  21.726  0.00  0.00    +0.000 A 
ATOM     14  C   UNL     1       0.554   9.366  23.048  0.00  0.00    +0.000 A 
ATOM     15  C   UNL     1      -0.590  10.049  23.386  0.00  0.00    +0.000 A 
ATOM     16  S   UNL     1      -1.153  11.020  22.098  0.00  0.00    +0.000 S 
ENDBRANCH  11  12
BRANCH   1  18
ATOM     17  N   UNL     1       1.439   8.883  19.038  0.00  0.00    +0.000 N 
ATOM     18  C   UNL     1       1.590  10.129  18.446  0.00  0.00    +0.000 C 
ATOM     19  O   UNL     1       2.532  10.416  17.679  0.00  0.00    +0.000 OA
ATOM     20  H   UNL     1       0.589   8.708  19.569  0.00  0.00    +0.000 HD
BRANCH  17  25
ATOM     21  C   UNL     1       5.089   4.450  18.326  0.00  0.00    +0.000 C 
ATOM     22  C   UNL     1       4.115   5.594  18.452  0.00  0.00    +0.000 A 
ATOM     23  C   UNL     1       3.269   5.638  19.565  0.00  0.00    +0.000 A 
ATOM     24  C   UNL     1       2.375   6.698  19.751  0.00  0.00    +0.000 A 
ATOM     25  C   UNL     1       2.295   7.754  18.839  0.00  0.00    +0.000 A 
ATOM     26  C   UNL     1       3.113   7.687  17.694  0.00  0.00    +0.000 A 
ATOM     27  C   UNL     1       4.030   6.623  17.499  0.00  0.00    +0.000 A 
ATOM     28  C   UNL     1       4.926   6.600  16.285  0.00  0.00    +0.000 C 
ENDBRANCH  17  25
ENDBRANCH   1  18
BRANCH  10  29
ATOM     29  C   UNL     1       0.341  14.097  21.214  0.00  0.00    +0.000 C 
BRANCH  29  30
ATOM     30  C   UNL     1       1.018  15.333  20.579  0.00  0.00    +0.000 C 
ATOM     31  C   UNL     1       1.331  15.122  19.097  0.00  0.00    +0.000 C 
ATOM     32  C   UNL     1       0.114  16.560  20.746  0.00  0.00    +0.000 C 
ENDBRANCH  29  30
ENDBRANCH  10  29
TORSDOF 5
ENDMDL
MODEL 7
REMARK VINA RESULT:      -6.9      0.463      1.446
REMARK  Name = 
REMARK  9 active torsions:
REMARK  status: ('A' for Active; 'I' for Inactive)
REMARK    1  A    between atoms: C_1  and  C_2
REMARK    2  A    between atoms: C_5  and  N_6
REMARK    3  A    between atoms: C_7  and  C_9
REMARK    4  A    between atoms: N_18  and  C_19
REMARK    5  A    between atoms: C_19  and  C_20
REMARK    6  A    between atoms: C_20  and  C_21
REMARK    7  A    between atoms: C_20  and  C_22
REMARK    8  A    between atoms: C_23  and  C_24
REMARK    9  A    between atoms: C_30  and  C_31
REMARK                            x       y       z     vdW  Elec       q    Type
REMARK                         _______ _______ _______ _____ _____    ______ ____
ROOT
ATOM      1  C   UNL     1       0.324  11.038  19.835  0.00  0.00    +0.000 C 
ATOM      2  C   UNL     1       0.910  12.311  19.256  0.00  0.00    +0.000 A 
ATOM      3  C   UNL     1       2.099  12.348  18.522  0.00  0.00    +0.000 A 
ATOM      4  C   UNL     1       2.521  13.545  17.934  0.00  0.00    +0.000 A 
ATOM      5  C   UNL     1       1.776  14.711  18.096  0.00  0.00    +0.000 A 
ATOM      6  C   UNL     1       0.643  14.707  18.904  0.00  0.00    +0.000 A 
ATOM      7  C   UNL     1       0.223  13.517  19.511  0.00  0.00    +0.000 A 
ATOM      8  C   UNL     1      -0.999  13.551  20.383  0.00  0.00    +0.000 C 
ATOM      9  O   UNL     1      -1.414  14.632  20.791  0.00  0.00    +0.000 OA
ATOM     10  N   UNL     1      -1.603  12.325  20.689  0.00  0.00    +0.000 N 
ATOM     11  C   UNL     1      -1.220  11.131  19.924  0.00  0.00    +0.000 C 
ENDROOT
BRANCH  11  12
ATOM     12  C   UNL     1      -1.891  11.119  18.561  0.00  0.00    +0.000 A 
ATOM     13  C   UNL     1      -1.751  11.956  17.464  0.00  0.00    +0.000 A 
ATOM     14  C   UNL     1      -2.095  11.285  16.258  0.00  0.00    +0.000 A 
ATOM     15  C   UNL     1      -2.746  10.099  16.502  0.00  0.00    +0.000 A 
ATOM     16  S   UNL     1      -2.964   9.830  18.175  0.00  0.00    +0.000 S 
ENDBRANCH  11  12
BRANCH   1  18
ATOM     17  N   UNL     1       1.466   8.807  20.141  0.00  0.00    +0.000 N 
ATOM     18  C   UNL     1       0.794   9.686  19.304  0.00  0.00    +0.000 C 
ATOM     19  O   UNL     1       0.546   9.441  18.106  0.00  0.00    +0.000 OA
ATOM     20  H   UNL     1       1.536   9.046  21.127  0.00  0.00    +0.000 HD
BRANCH  17  25
ATOM     21  C   UNL     1       3.579   3.590  18.797  0.00  0.00    +0.000 C 
ATOM     22  C   UNL     1       3.008   4.955  19.087  0.00  0.00    +0.000 A 
ATOM     23  C   UNL     1       2.138   5.104  20.172  0.00  0.00    +0.000 A 
ATOM     24  C   UNL     1       1.611   6.357  20.508  0.00  0.00    +0.000 A 
ATOM     25  C   UNL     1       1.936   7.504  19.780  0.00  0.00    +0.000 A 
ATOM     26  C   UNL     1       2.775   7.346  18.658  0.00  0.00    +0.000 A 
ATOM     27  C   UNL     1       3.322   6.085  18.314  0.00  0.00    +0.000 A 
ATOM     28  C   UNL     1       4.253   5.954  17.133  0.00  0.00    +0.000 C 
ENDBRANCH  17  25
ENDBRANCH   1  18
BRANCH  10  29
ATOM     29  C   UNL     1      -2.835  12.334  21.494  0.00  0.00    +0.000 C 
BRANCH  29  30
ATOM     30  C   UNL     1      -2.682  12.038  23.002  0.00  0.00    +0.000 C 
ATOM     31  C   UNL     1      -1.437  11.202  23.304  0.00  0.00    +0.000 C 
ATOM     32  C   UNL     1      -2.620  13.356  23.784  0.00  0.00    +0.000 C 
ENDBRANCH  29  30
ENDBRANCH  10  29
TORSDOF 5
ENDMDL
MODEL 8
REMARK VINA RESULT:      -6.8      1.922      4.283
REMARK  Name = 
REMARK  9 active torsions:
REMARK  status: ('A' for Active; 'I' for Inactive)
REMARK    1  A    between atoms: C_1  and  C_2
REMARK    2  A    between atoms: C_5  and  N_6
REMARK    3  A    between atoms: C_7  and  C_9
REMARK    4  A    between atoms: N_18  and  C_19
REMARK    5  A    between atoms: C_19  and  C_20
REMARK    6  A    between atoms: C_20  and  C_21
REMARK    7  A    between atoms: C_20  and  C_22
REMARK    8  A    between atoms: C_23  and  C_24
REMARK    9  A    between atoms: C_30  and  C_31
REMARK                            x       y       z     vdW  Elec       q    Type
REMARK                         _______ _______ _______ _____ _____    ______ ____
ROOT
ATOM      1  C   UNL     1       0.178  10.728  18.479  0.00  0.00    +0.000 C 
ATOM      2  C   UNL     1      -1.300  10.944  18.216  0.00  0.00    +0.000 A 
ATOM      3  C   UNL     1      -2.061  10.126  17.374  0.00  0.00    +0.000 A 
ATOM      4  C   UNL     1      -3.440  10.328  17.263  0.00  0.00    +0.000 A 
ATOM      5  C   UNL     1      -4.061  11.358  17.968  0.00  0.00    +0.000 A 
ATOM      6  C   UNL     1      -3.299  12.236  18.734  0.00  0.00    +0.000 A 
ATOM      7  C   UNL     1      -1.914  12.052  18.836  0.00  0.00    +0.000 A 
ATOM      8  C   UNL     1      -1.123  13.023  19.663  0.00  0.00    +0.000 C 
ATOM      9  O   UNL     1      -1.627  14.101  19.966  0.00  0.00    +0.000 OA
ATOM     10  N   UNL     1       0.169  12.639  20.043  0.00  0.00    +0.000 N 
ATOM     11  C   UNL     1       0.568  11.234  19.890  0.00  0.00    +0.000 C 
ENDROOT
BRANCH  11  12
ATOM     12  C   UNL     1      -0.012  10.378  21.004  0.00  0.00    +0.000 A 
ATOM     13  C   UNL     1      -0.067   9.002  21.167  0.00  0.00    +0.000 A 
ATOM     14  C   UNL     1      -0.154   8.651  22.543  0.00  0.00    +0.000 A 
ATOM     15  C   UNL     1      -0.453   9.739  23.328  0.00  0.00    +0.000 A 
ATOM     16  S   UNL     1      -0.659  11.155  22.396  0.00  0.00    +0.000 S 
ENDBRANCH  11  12
BRANCH   1  18
ATOM     17  N   UNL     1       2.006   9.007  18.749  0.00  0.00    +0.000 N 
ATOM     18  C   UNL     1       0.810   9.377  18.151  0.00  0.00    +0.000 C 
ATOM     19  O   UNL     1       0.201   8.661  17.331  0.00  0.00    +0.000 OA
ATOM     20  H   UNL     1       2.380   9.608  19.479  0.00  0.00    +0.000 HD
BRANCH  17  25
ATOM     21  C   UNL     1       4.968   4.084  18.057  0.00  0.00    +0.000 C 
ATOM     22  C   UNL     1       4.177   5.362  18.177  0.00  0.00    +0.000 A 
ATOM     23  C   UNL     1       3.270   5.495  19.233  0.00  0.00    +0.000 A 
ATOM     24  C   UNL     1       2.539   6.675  19.412  0.00  0.00    +0.000 A 
ATOM     25  C   UNL     1       2.690   7.765  18.551  0.00  0.00    +0.000 A 
ATOM     26  C   UNL     1       3.568   7.614  17.459  0.00  0.00    +0.000 A 
ATOM     27  C   UNL     1       4.321   6.427  17.272  0.00  0.00    +0.000 A 
ATOM     28  C   UNL     1       5.287   6.310  16.119  0.00  0.00    +0.000 C 
ENDBRANCH  17  25
ENDBRANCH   1  18
BRANCH  10  29
ATOM     29  C   UNL     1       0.945  13.547  20.901  0.00  0.00    +0.000 C 
BRANCH  29  30
ATOM     30  C   UNL     1       2.448  13.694  20.579  0.00  0.00    +0.000 C 
ATOM     31  C   UNL     1       2.689  14.157  19.142  0.00  0.00    +0.000 C 
ATOM     32  C   UNL     1       3.092  14.686  21.556  0.00  0.00    +0.000 C 
ENDBRANCH  29  30
ENDBRANCH  10  29
TORSDOF 5
ENDMDL
MODEL 9
REMARK VINA RESULT:      -6.8      1.839      4.009
REMARK  Name = 
REMARK  9 active torsions:
REMARK  status: ('A' for Active; 'I' for Inactive)
REMARK    1  A    between atoms: C_1  and  C_2
REMARK    2  A    between atoms: C_5  and  N_6
REMARK    3  A    between atoms: C_7  and  C_9
REMARK    4  A    between atoms: N_18  and  C_19
REMARK    5  A    between atoms: C_19  and  C_20
REMARK    6  A    between atoms: C_20  and  C_21
REMARK    7  A    between atoms: C_20  and  C_22
REMARK    8  A    between atoms: C_23  and  C_24
REMARK    9  A    between atoms: C_30  and  C_31
REMARK                            x       y       z     vdW  Elec       q    Type
REMARK                         _______ _______ _______ _____ _____    ______ ____
ROOT
ATOM      1  C   UNL     1       0.168  10.730  18.483  0.00  0.00    +0.000 C 
ATOM      2  C   UNL     1      -1.312  10.928  18.217  0.00  0.00    +0.000 A 
ATOM      3  C   UNL     1      -2.059  10.106  17.367  0.00  0.00    +0.000 A 
ATOM      4  C   UNL     1      -3.440  10.291  17.253  0.00  0.00    +0.000 A 
ATOM      5  C   UNL     1      -4.077  11.306  17.964  0.00  0.00    +0.000 A 
ATOM      6  C   UNL     1      -3.329  12.189  18.738  0.00  0.00    +0.000 A 
ATOM      7  C   UNL     1      -1.943  12.023  18.843  0.00  0.00    +0.000 A 
ATOM      8  C   UNL     1      -1.167  12.999  19.679  0.00  0.00    +0.000 C 
ATOM      9  O   UNL     1      -1.686  14.067  19.989  0.00  0.00    +0.000 OA
ATOM     10  N   UNL     1       0.129  12.629  20.060  0.00  0.00    +0.000 N 
ATOM     11  C   UNL     1       0.548  11.230  19.898  0.00  0.00    +0.000 C 
ENDROOT
BRANCH  11  12
ATOM     12  C   UNL     1      -0.024  10.359  21.004  0.00  0.00    +0.000 A 
ATOM     13  C   UNL     1      -0.110   8.981  21.132  0.00  0.00    +0.000 A 
ATOM     14  C   UNL     1      -0.170   8.594  22.499  0.00  0.00    +0.000 A 
ATOM     15  C   UNL     1      -0.419   9.667  23.322  0.00  0.00    +0.000 A 
ATOM     16  S   UNL     1      -0.613  11.114  22.435  0.00  0.00    +0.000 S 
ENDBRANCH  11  12
BRANCH   1  18
ATOM     17  N   UNL     1       1.956   8.980  18.830  0.00  0.00    +0.000 N 
ATOM     18  C   UNL     1       0.819   9.390  18.147  0.00  0.00    +0.000 C 
ATOM     19  O   UNL     1       0.281   8.720  17.243  0.00  0.00    +0.000 OA
ATOM     20  H   UNL     1       2.268   9.542  19.617  0.00  0.00    +0.000 HD
BRANCH  17  25
ATOM     21  C   UNL     1       4.551   3.889  17.919  0.00  0.00    +0.000 C 
ATOM     22  C   UNL     1       3.898   5.215  18.217  0.00  0.00    +0.000 A 
ATOM     23  C   UNL     1       4.146   6.294  17.363  0.00  0.00    +0.000 A 
ATOM     24  C   UNL     1       3.533   7.535  17.571  0.00  0.00    +0.000 A 
ATOM     25  C   UNL     1       2.648   7.743  18.632  0.00  0.00    +0.000 A 
ATOM     26  C   UNL     1       2.434   6.669  19.520  0.00  0.00    +0.000 A 
ATOM     27  C   UNL     1       3.041   5.405  19.314  0.00  0.00    +0.000 A 
ATOM     28  C   UNL     1       2.759   4.260  20.256  0.00  0.00    +0.000 C 
ENDBRANCH  17  25
ENDBRANCH   1  18
BRANCH  10  29
ATOM     29  C   UNL     1       0.890  13.542  20.928  0.00  0.00    +0.000 C 
BRANCH  29  30
ATOM     30  C   UNL     1       2.387  13.729  20.596  0.00  0.00    +0.000 C 
ATOM     31  C   UNL     1       2.606  14.209  19.161  0.00  0.00    +0.000 C 
ATOM     32  C   UNL     1       3.012  14.730  21.576  0.00  0.00    +0.000 C 
ENDBRANCH  29  30
ENDBRANCH  10  29
TORSDOF 5
ENDMDL
