MODEL 1
REMARK VINA RESULT:      -7.5      0.000      0.000
REMARK  Name = 
REMARK  5 active torsions:
REMARK  status: ('A' for Active; 'I' for Inactive)
REMARK    1  A    between atoms: C_4  and  N_5
REMARK    2  A    between atoms: C_6  and  C_7
REMARK    3  A    between atoms: C_7  and  C_8
REMARK    4  A    between atoms: C_7  and  C_12
REMARK    5  A    between atoms: C_8  and  N_9
REMARK                            x       y       z     vdW  Elec       q    Type
REMARK                         _______ _______ _______ _____ _____    ______ ____
ROOT
ATOM      1  N   UNL     1       8.625   7.986  18.835  0.00  0.00    +0.000 N 
ATOM      2  C   UNL     1       7.773   7.092  18.278  0.00  0.00    +0.000 A 
ATOM      3  N   UNL     1       7.376   6.048  18.922  0.00  0.00    +0.000 NA
ATOM      4  C   UNL     1       6.535   5.155  18.302  0.00  0.00    +0.000 A 
ATOM      5  C   UNL     1       5.925   5.420  17.119  0.00  0.00    +0.000 A 
ATOM      6  C   UNL     1       6.225   6.776  16.584  0.00  0.00    +0.000 A 
ATOM      7  O   UNL     1       5.471   7.362  15.813  0.00  0.00    +0.000 OA
ATOM      8  N   UNL     1       7.351   7.374  17.031  0.00  0.00    +0.000 N 
ATOM      9  H   UNL     1       9.066   7.628  19.677  0.00  0.00    +0.000 HD
ATOM     10  H   UNL     1       9.278   8.441  18.210  0.00  0.00    +0.000 HD
ATOM     11  H   UNL     1       7.529   8.290  16.657  0.00  0.00    +0.000 HD
ENDROOT
BRANCH   4  12
ATOM     12  N   UNL     1       6.353   3.977  18.988  0.00  0.00    +0.000 N 
ATOM     13  H   UNL     1       6.634   4.083  19.958  0.00  0.00    +0.000 HD
ATOM     14  H   UNL     1       5.473   3.494  18.853  0.00  0.00    +0.000 HD
ENDBRANCH   4  12
BRANCH   5  15
ATOM     15  C   UNL     1       4.938   4.526  16.349  0.00  0.00    +0.000 C 
BRANCH  15  16
ATOM     16  C   UNL     1       3.725   4.000  17.143  0.00  0.00    +0.000 A 
ATOM     17  C   UNL     1       3.564   2.613  17.338  0.00  0.00    +0.000 A 
ATOM     18  C   UNL     1       2.448   2.112  18.012  0.00  0.00    +0.000 A 
ATOM     19  C   UNL     1       1.486   2.989  18.495  0.00  0.00    +0.000 A 
ATOM     20  F   UNL     1       0.398   2.505  19.108  0.00  0.00    +0.000 F 
ATOM     21  C   UNL     1       1.636   4.360  18.346  0.00  0.00    +0.000 A 
ATOM     22  C   UNL     1       2.759   4.864  17.689  0.00  0.00    +0.000 A 
ENDBRANCH  15  16
BRANCH  15  23
ATOM     23  C   UNL     1       5.476   3.413  15.420  0.00  0.00    +0.000 C 
BRANCH  23  24
ATOM     24  N   UNL     1       6.076   3.908  14.132  0.00  0.00    +0.000 N 
ATOM     25  O   UNL     1       5.460   3.610  13.100  0.00  0.00    +0.000 OA
ATOM     26  O   UNL     1       7.132   4.553  14.161  0.00  0.00    +0.000 OA
ENDBRANCH  23  24
ENDBRANCH  15  23
ENDBRANCH   5  15
TORSDOF 5
ENDMDL
MODEL 2
REMARK VINA RESULT:      -7.4      0.202      1.266
REMARK  Name = 
REMARK  5 active torsions:
REMARK  status: ('A' for Active; 'I' for Inactive)
REMARK    1  A    between atoms: C_4  and  N_5
REMARK    2  A    between atoms: C_6  and  C_7
REMARK    3  A    between atoms: C_7  and  C_8
REMARK    4  A    between atoms: C_7  and  C_12
REMARK    5  A    between atoms: C_8  and  N_9
REMARK                            x       y       z     vdW  Elec       q    Type
REMARK                         _______ _______ _______ _____ _____    ______ ____
ROOT
ATOM      1  N   UNL     1       8.626   7.752  18.946  0.00  0.00    +0.000 N 
ATOM      2  C   UNL     1       7.746   6.899  18.372  0.00  0.00    +0.000 A 
ATOM      3  N   UNL     1       7.255   5.899  19.020  0.00  0.00    +0.000 NA
ATOM      4  C   UNL     1       6.389   5.043  18.381  0.00  0.00    +0.000 A 
ATOM      5  C   UNL     1       5.851   5.314  17.166  0.00  0.00    +0.000 A 
ATOM      6  C   UNL     1       6.260   6.635  16.614  0.00  0.00    +0.000 A 
ATOM      7  O   UNL     1       5.580   7.246  15.795  0.00  0.00    +0.000 OA
ATOM      8  N   UNL     1       7.399   7.173  17.099  0.00  0.00    +0.000 N 
ATOM      9  H   UNL     1       9.004   7.390  19.817  0.00  0.00    +0.000 HD
ATOM     10  H   UNL     1       9.334   8.150  18.343  0.00  0.00    +0.000 HD
ATOM     11  H   UNL     1       7.652   8.066  16.713  0.00  0.00    +0.000 HD
ENDROOT
BRANCH   4  12
ATOM     12  N   UNL     1       6.101   3.898  19.086  0.00  0.00    +0.000 N 
ATOM     13  H   UNL     1       5.389   4.080  19.787  0.00  0.00    +0.000 HD
ATOM     14  H   UNL     1       5.962   3.049  18.552  0.00  0.00    +0.000 HD
ENDBRANCH   4  12
BRANCH   5  15
ATOM     15  C   UNL     1       4.846   4.463  16.370  0.00  0.00    +0.000 C 
BRANCH  15  16
ATOM     16  C   UNL     1       3.620   3.944  17.149  0.00  0.00    +0.000 A 
ATOM     17  C   UNL     1       2.698   4.861  17.694  0.00  0.00    +0.000 A 
ATOM     18  C   UNL     1       1.607   4.416  18.445  0.00  0.00    +0.000 A 
ATOM     19  C   UNL     1       1.428   3.055  18.656  0.00  0.00    +0.000 A 
ATOM     20  F   UNL     1       0.404   2.632  19.408  0.00  0.00    +0.000 F 
ATOM     21  C   UNL     1       2.301   2.130  18.104  0.00  0.00    +0.000 A 
ATOM     22  C   UNL     1       3.382   2.571  17.339  0.00  0.00    +0.000 A 
ENDBRANCH  15  16
BRANCH  15  23
ATOM     23  C   UNL     1       5.361   3.363  15.413  0.00  0.00    +0.000 C 
BRANCH  23  24
ATOM     24  N   UNL     1       5.877   3.872  14.095  0.00  0.00    +0.000 N 
ATOM     25  O   UNL     1       7.003   4.388  14.120  0.00  0.00    +0.000 OA
ATOM     26  O   UNL     1       5.168   3.773  13.085  0.00  0.00    +0.000 OA
ENDBRANCH  23  24
ENDBRANCH  15  23
ENDBRANCH   5  15
TORSDOF 5
ENDMDL
MODEL 3
REMARK VINA RESULT:      -7.4      3.298      5.096
REMARK  Name = 
REMARK  5 active torsions:
REMARK  status: ('A' for Active; 'I' for Inactive)
REMARK    1  A    between atoms: C_4  and  N_5
REMARK    2  A    between atoms: C_6  and  C_7
REMARK    3  A    between atoms: C_7  and  C_8
REMARK    4  A    between atoms: C_7  and  C_12
REMARK    5  A    between atoms: C_8  and  N_9
REMARK                            x       y       z     vdW  Elec       q    Type
REMARK                         _______ _______ _______ _____ _____    ______ ____
ROOT
ATOM      1  N   UNL     1       1.438   4.920  20.681  0.00  0.00    +0.000 N 
ATOM      2  C   UNL     1       2.534   5.173  19.928  0.00  0.00    +0.000 A 
ATOM      3  N   UNL     1       3.377   4.244  19.632  0.00  0.00    +0.000 NA
ATOM      4  C   UNL     1       4.492   4.558  18.890  0.00  0.00    +0.000 A 
ATOM      5  C   UNL     1       4.647   5.754  18.267  0.00  0.00    +0.000 A 
ATOM      6  C   UNL     1       3.484   6.668  18.435  0.00  0.00    +0.000 A 
ATOM      7  O   UNL     1       3.226   7.561  17.633  0.00  0.00    +0.000 OA
ATOM      8  N   UNL     1       2.674   6.439  19.491  0.00  0.00    +0.000 N 
ATOM      9  H   UNL     1       1.487   4.019  21.147  0.00  0.00    +0.000 HD
ATOM     10  H   UNL     1       1.123   5.664  21.291  0.00  0.00    +0.000 HD
ATOM     11  H   UNL     1       1.895   7.068  19.580  0.00  0.00    +0.000 HD
ENDROOT
BRANCH   4  12
ATOM     12  N   UNL     1       5.428   3.554  18.820  0.00  0.00    +0.000 N 
ATOM     13  H   UNL     1       6.058   3.598  19.616  0.00  0.00    +0.000 HD
ATOM     14  H   UNL     1       5.095   2.625  18.595  0.00  0.00    +0.000 HD
ENDBRANCH   4  12
BRANCH   5  15
ATOM     15  C   UNL     1       5.820   6.208  17.382  0.00  0.00    +0.000 C 
BRANCH  15  16
ATOM     16  C   UNL     1       6.000   5.460  16.045  0.00  0.00    +0.000 A 
ATOM     17  C   UNL     1       4.940   4.688  15.528  0.00  0.00    +0.000 A 
ATOM     18  C   UNL     1       5.097   3.963  14.344  0.00  0.00    +0.000 A 
ATOM     19  C   UNL     1       6.311   4.003  13.670  0.00  0.00    +0.000 A 
ATOM     20  F   UNL     1       6.472   3.277  12.556  0.00  0.00    +0.000 F 
ATOM     21  C   UNL     1       7.359   4.781  14.139  0.00  0.00    +0.000 A 
ATOM     22  C   UNL     1       7.198   5.520  15.312  0.00  0.00    +0.000 A 
ENDBRANCH  15  16
BRANCH  15  23
ATOM     23  C   UNL     1       7.202   6.479  18.020  0.00  0.00    +0.000 C 
BRANCH  23  24
ATOM     24  N   UNL     1       7.704   5.378  18.914  0.00  0.00    +0.000 N 
ATOM     25  O   UNL     1       8.190   4.395  18.339  0.00  0.00    +0.000 OA
ATOM     26  O   UNL     1       7.595   5.495  20.142  0.00  0.00    +0.000 OA
ENDBRANCH  23  24
ENDBRANCH  15  23
ENDBRANCH   5  15
TORSDOF 5
ENDMDL
MODEL 4
REMARK VINA RESULT:      -7.4      3.304      5.316
REMARK  Name = 
REMARK  5 active torsions:
REMARK  status: ('A' for Active; 'I' for Inactive)
REMARK    1  A    between atoms: C_4  and  N_5
REMARK    2  A    between atoms: C_6  and  C_7
REMARK    3  A    between atoms: C_7  and  C_8
REMARK    4  A    between atoms: C_7  and  C_12
REMARK    5  A    between atoms: C_8  and  N_9
REMARK                            x       y       z     vdW  Elec       q    Type
REMARK                         _______ _______ _______ _____ _____    ______ ____
ROOT
ATOM      1  N   UNL     1       0.765   3.354  20.553  0.00  0.00    +0.000 N 
ATOM      2  C   UNL     1       1.821   3.525  19.722  0.00  0.00    +0.000 A 
ATOM      3  N   UNL     1       2.400   2.524  19.154  0.00  0.00    +0.000 NA
ATOM      4  C   UNL     1       3.489   2.749  18.344  0.00  0.00    +0.000 A 
ATOM      5  C   UNL     1       3.858   3.989  17.936  0.00  0.00    +0.000 A 
ATOM      6  C   UNL     1       2.953   5.069  18.418  0.00  0.00    +0.000 A 
ATOM      7  O   UNL     1       2.839   6.142  17.834  0.00  0.00    +0.000 OA
ATOM      8  N   UNL     1       2.208   4.798  19.511  0.00  0.00    +0.000 N 
ATOM      9  H   UNL     1       0.648   2.386  20.836  0.00  0.00    +0.000 HD
ATOM     10  H   UNL     1       0.683   4.004  21.324  0.00  0.00    +0.000 HD
ATOM     11  H   UNL     1       1.603   5.542  19.814  0.00  0.00    +0.000 HD
ENDROOT
BRANCH   4  12
ATOM     12  N   UNL     1       4.161   1.609  17.969  0.00  0.00    +0.000 N 
ATOM     13  H   UNL     1       4.251   1.565  16.959  0.00  0.00    +0.000 HD
ATOM     14  H   UNL     1       5.005   1.380  18.480  0.00  0.00    +0.000 HD
ENDBRANCH   4  12
BRANCH   5  15
ATOM     15  C   UNL     1       5.022   4.365  17.003  0.00  0.00    +0.000 C 
BRANCH  15  16
ATOM     16  C   UNL     1       6.052   5.367  17.563  0.00  0.00    +0.000 A 
ATOM     17  C   UNL     1       6.215   6.623  16.942  0.00  0.00    +0.000 A 
ATOM     18  C   UNL     1       7.175   7.528  17.402  0.00  0.00    +0.000 A 
ATOM     19  C   UNL     1       7.979   7.187  18.481  0.00  0.00    +0.000 A 
ATOM     20  F   UNL     1       8.925   8.039  18.897  0.00  0.00    +0.000 F 
ATOM     21  C   UNL     1       7.817   5.972  19.132  0.00  0.00    +0.000 A 
ATOM     22  C   UNL     1       6.847   5.074  18.685  0.00  0.00    +0.000 A 
ENDBRANCH  15  16
BRANCH  15  23
ATOM     23  C   UNL     1       4.743   4.678  15.515  0.00  0.00    +0.000 C 
BRANCH  23  24
ATOM     24  N   UNL     1       5.706   4.041  14.550  0.00  0.00    +0.000 N 
ATOM     25  O   UNL     1       6.782   3.662  15.033  0.00  0.00    +0.000 OA
ATOM     26  O   UNL     1       5.396   3.947  13.356  0.00  0.00    +0.000 OA
ENDBRANCH  23  24
ENDBRANCH  15  23
ENDBRANCH   5  15
TORSDOF 5
ENDMDL
MODEL 5
REMARK VINA RESULT:      -7.2      3.505      5.094
REMARK  Name = 
REMARK  5 active torsions:
REMARK  status: ('A' for Active; 'I' for Inactive)
REMARK    1  A    between atoms: C_4  and  N_5
REMARK    2  A    between atoms: C_6  and  C_7
REMARK    3  A    between atoms: C_7  and  C_8
REMARK    4  A    between atoms: C_7  and  C_12
REMARK    5  A    between atoms: C_8  and  N_9
REMARK                            x       y       z     vdW  Elec       q    Type
REMARK                         _______ _______ _______ _____ _____    ______ ____
ROOT
ATOM      1  N   UNL     1       3.709   0.844  18.581  0.00  0.00    +0.000 N 
ATOM      2  C   UNL     1       3.689   2.185  18.394  0.00  0.00    +0.000 A 
ATOM      3  N   UNL     1       2.589   2.819  18.173  0.00  0.00    +0.000 NA
ATOM      4  C   UNL     1       2.627   4.177  17.958  0.00  0.00    +0.000 A 
ATOM      5  C   UNL     1       3.736   4.925  18.180  0.00  0.00    +0.000 A 
ATOM      6  C   UNL     1       4.887   4.143  18.708  0.00  0.00    +0.000 A 
ATOM      7  O   UNL     1       5.785   4.656  19.370  0.00  0.00    +0.000 OA
ATOM      8  N   UNL     1       4.879   2.812  18.478  0.00  0.00    +0.000 N 
ATOM      9  H   UNL     1       2.836   0.402  18.307  0.00  0.00    +0.000 HD
ATOM     10  H   UNL     1       4.525   0.350  18.244  0.00  0.00    +0.000 HD
ATOM     11  H   UNL     1       5.665   2.306  18.848  0.00  0.00    +0.000 HD
ENDROOT
BRANCH   4  12
ATOM     12  N   UNL     1       1.441   4.714  17.516  0.00  0.00    +0.000 N 
ATOM     13  H   UNL     1       1.145   4.264  16.655  0.00  0.00    +0.000 HD
ATOM     14  H   UNL     1       0.706   4.842  18.201  0.00  0.00    +0.000 HD
ENDBRANCH   4  12
BRANCH   5  15
ATOM     15  C   UNL     1       3.893   6.447  18.018  0.00  0.00    +0.000 C 
BRANCH  15  16
ATOM     16  C   UNL     1       2.814   7.322  18.688  0.00  0.00    +0.000 A 
ATOM     17  C   UNL     1       2.248   8.401  17.978  0.00  0.00    +0.000 A 
ATOM     18  C   UNL     1       1.305   9.237  18.581  0.00  0.00    +0.000 A 
ATOM     19  C   UNL     1       0.920   9.003  19.895  0.00  0.00    +0.000 A 
ATOM     20  F   UNL     1       0.045   9.827  20.484  0.00  0.00    +0.000 F 
ATOM     21  C   UNL     1       1.436   7.928  20.605  0.00  0.00    +0.000 A 
ATOM     22  C   UNL     1       2.365   7.082  19.999  0.00  0.00    +0.000 A 
ENDBRANCH  15  16
BRANCH  15  23
ATOM     23  C   UNL     1       4.261   7.037  16.637  0.00  0.00    +0.000 C 
BRANCH  23  24
ATOM     24  N   UNL     1       5.635   6.670  16.146  0.00  0.00    +0.000 N 
ATOM     25  O   UNL     1       5.674   5.971  15.125  0.00  0.00    +0.000 OA
ATOM     26  O   UNL     1       6.629   7.054  16.776  0.00  0.00    +0.000 OA
ENDBRANCH  23  24
ENDBRANCH  15  23
ENDBRANCH   5  15
TORSDOF 5
ENDMDL
MODEL 6
REMARK VINA RESULT:      -7.2      0.716      1.266
REMARK  Name = 
REMARK  5 active torsions:
REMARK  status: ('A' for Active; 'I' for Inactive)
REMARK    1  A    between atoms: C_4  and  N_5
REMARK    2  A    between atoms: C_6  and  C_7
REMARK    3  A    between atoms: C_7  and  C_8
REMARK    4  A    between atoms: C_7  and  C_12
REMARK    5  A    between atoms: C_8  and  N_9
REMARK                            x       y       z     vdW  Elec       q    Type
REMARK                         _______ _______ _______ _____ _____    ______ ____
ROOT
ATOM      1  N   UNL     1       8.377   8.635  18.373  0.00  0.00    +0.000 N 
ATOM      2  C   UNL     1       7.649   7.601  17.889  0.00  0.00    +0.000 A 
ATOM      3  N   UNL     1       7.828   6.395  18.311  0.00  0.00    +0.000 NA
ATOM      4  C   UNL     1       7.085   5.376  17.765  0.00  0.00    +0.000 A 
ATOM      5  C   UNL     1       6.018   5.595  16.955  0.00  0.00    +0.000 A 
ATOM      6  C   UNL     1       5.713   7.038  16.749  0.00  0.00    +0.000 A 
ATOM      7  O   UNL     1       4.593   7.438  16.448  0.00  0.00    +0.000 OA
ATOM      8  N   UNL     1       6.719   7.912  16.966  0.00  0.00    +0.000 N 
ATOM      9  H   UNL     1       9.188   8.325  18.902  0.00  0.00    +0.000 HD
ATOM     10  H   UNL     1       8.590   9.383  17.727  0.00  0.00    +0.000 HD
ATOM     11  H   UNL     1       6.487   8.880  16.823  0.00  0.00    +0.000 HD
ENDROOT
BRANCH   4  12
ATOM     12  N   UNL     1       7.504   4.115  18.121  0.00  0.00    +0.000 N 
ATOM     13  H   UNL     1       8.038   3.692  17.368  0.00  0.00    +0.000 HD
ATOM     14  H   UNL     1       7.910   4.005  19.042  0.00  0.00    +0.000 HD
ENDBRANCH   4  12
BRANCH   5  15
ATOM     15  C   UNL     1       5.089   4.547  16.319  0.00  0.00    +0.000 C 
BRANCH  15  16
ATOM     16  C   UNL     1       4.028   3.919  17.246  0.00  0.00    +0.000 A 
ATOM     17  C   UNL     1       2.952   4.702  17.710  0.00  0.00    +0.000 A 
ATOM     18  C   UNL     1       2.006   4.167  18.589  0.00  0.00    +0.000 A 
ATOM     19  C   UNL     1       2.129   2.850  19.011  0.00  0.00    +0.000 A 
ATOM     20  F   UNL     1       1.244   2.351  19.883  0.00  0.00    +0.000 F 
ATOM     21  C   UNL     1       3.159   2.047  18.544  0.00  0.00    +0.000 A 
ATOM     22  C   UNL     1       4.094   2.574  17.652  0.00  0.00    +0.000 A 
ENDBRANCH  15  16
BRANCH  15  23
ATOM     23  C   UNL     1       5.679   3.463  15.389  0.00  0.00    +0.000 C 
BRANCH  23  24
ATOM     24  N   UNL     1       6.265   3.988  14.107  0.00  0.00    +0.000 N 
ATOM     25  O   UNL     1       5.772   3.538  13.064  0.00  0.00    +0.000 OA
ATOM     26  O   UNL     1       7.194   4.805  14.153  0.00  0.00    +0.000 OA
ENDBRANCH  23  24
ENDBRANCH  15  23
ENDBRANCH   5  15
TORSDOF 5
ENDMDL
MODEL 7
REMARK VINA RESULT:      -7.2      3.579      4.428
REMARK  Name = 
REMARK  5 active torsions:
REMARK  status: ('A' for Active; 'I' for Inactive)
REMARK    1  A    between atoms: C_4  and  N_5
REMARK    2  A    between atoms: C_6  and  C_7
REMARK    3  A    between atoms: C_7  and  C_8
REMARK    4  A    between atoms: C_7  and  C_12
REMARK    5  A    between atoms: C_8  and  N_9
REMARK                            x       y       z     vdW  Elec       q    Type
REMARK                         _______ _______ _______ _____ _____    ______ ____
ROOT
ATOM      1  N   UNL     1       8.188   4.318  17.787  0.00  0.00    +0.000 N 
ATOM      2  C   UNL     1       6.859   4.565  17.864  0.00  0.00    +0.000 A 
ATOM      3  N   UNL     1       6.204   4.389  18.960  0.00  0.00    +0.000 NA
ATOM      4  C   UNL     1       4.849   4.624  18.978  0.00  0.00    +0.000 A 
ATOM      5  C   UNL     1       4.196   5.238  17.959  0.00  0.00    +0.000 A 
ATOM      6  C   UNL     1       5.090   5.661  16.846  0.00  0.00    +0.000 A 
ATOM      7  O   UNL     1       4.804   6.579  16.084  0.00  0.00    +0.000 OA
ATOM      8  N   UNL     1       6.276   5.023  16.740  0.00  0.00    +0.000 N 
ATOM      9  H   UNL     1       8.531   3.789  18.583  0.00  0.00    +0.000 HD
ATOM     10  H   UNL     1       8.536   3.971  16.902  0.00  0.00    +0.000 HD
ATOM     11  H   UNL     1       6.863   5.329  15.983  0.00  0.00    +0.000 HD
ENDROOT
BRANCH   4  12
ATOM     12  N   UNL     1       4.215   4.199  20.121  0.00  0.00    +0.000 N 
ATOM     13  H   UNL     1       3.208   4.186  19.987  0.00  0.00    +0.000 HD
ATOM     14  H   UNL     1       4.591   3.379  20.582  0.00  0.00    +0.000 HD
ENDBRANCH   4  12
BRANCH   5  15
ATOM     15  C   UNL     1       2.701   5.591  17.877  0.00  0.00    +0.000 C 
BRANCH  15  16
ATOM     16  C   UNL     1       2.271   6.913  18.546  0.00  0.00    +0.000 A 
ATOM     17  C   UNL     1       2.034   6.950  19.935  0.00  0.00    +0.000 A 
ATOM     18  C   UNL     1       1.597   8.123  20.554  0.00  0.00    +0.000 A 
ATOM     19  C   UNL     1       1.393   9.266  19.793  0.00  0.00    +0.000 A 
ATOM     20  F   UNL     1       0.938  10.380  20.381  0.00  0.00    +0.000 F 
ATOM     21  C   UNL     1       1.651   9.267  18.429  0.00  0.00    +0.000 A 
ATOM     22  C   UNL     1       2.104   8.101  17.812  0.00  0.00    +0.000 A 
ENDBRANCH  15  16
BRANCH  15  23
ATOM     23  C   UNL     1       1.639   4.500  18.147  0.00  0.00    +0.000 C 
BRANCH  23  24
ATOM     24  N   UNL     1       2.067   3.105  17.779  0.00  0.00    +0.000 N 
ATOM     25  O   UNL     1       2.139   2.298  18.715  0.00  0.00    +0.000 OA
ATOM     26  O   UNL     1       2.338   2.844  16.600  0.00  0.00    +0.000 OA
ENDBRANCH  23  24
ENDBRANCH  15  23
ENDBRANCH   5  15
TORSDOF 5
ENDMDL
MODEL 8
REMARK VINA RESULT:      -7.1      1.076      1.268
REMARK  Name = 
REMARK  5 active torsions:
REMARK  status: ('A' for Active; 'I' for Inactive)
REMARK    1  A    between atoms: C_4  and  N_5
REMARK    2  A    between atoms: C_6  and  C_7
REMARK    3  A    between atoms: C_7  and  C_8
REMARK    4  A    between atoms: C_7  and  C_12
REMARK    5  A    between atoms: C_8  and  N_9
REMARK                            x       y       z     vdW  Elec       q    Type
REMARK                         _______ _______ _______ _____ _____    ______ ____
ROOT
ATOM      1  N   UNL     1       8.511   8.848  18.441  0.00  0.00    +0.000 N 
ATOM      2  C   UNL     1       7.804   7.778  18.007  0.00  0.00    +0.000 A 
ATOM      3  N   UNL     1       8.070   6.584  18.413  0.00  0.00    +0.000 NA
ATOM      4  C   UNL     1       7.342   5.528  17.918  0.00  0.00    +0.000 A 
ATOM      5  C   UNL     1       6.213   5.692  17.184  0.00  0.00    +0.000 A 
ATOM      6  C   UNL     1       5.824   7.118  17.001  0.00  0.00    +0.000 A 
ATOM      7  O   UNL     1       4.667   7.461  16.778  0.00  0.00    +0.000 OA
ATOM      8  N   UNL     1       6.798   8.041  17.150  0.00  0.00    +0.000 N 
ATOM      9  H   UNL     1       9.370   8.580  18.912  0.00  0.00    +0.000 HD
ATOM     10  H   UNL     1       8.642   9.605  17.782  0.00  0.00    +0.000 HD
ATOM     11  H   UNL     1       6.509   8.996  17.024  0.00  0.00    +0.000 HD
ENDROOT
BRANCH   4  12
ATOM     12  N   UNL     1       7.847   4.290  18.243  0.00  0.00    +0.000 N 
ATOM     13  H   UNL     1       8.609   4.380  18.908  0.00  0.00    +0.000 HD
ATOM     14  H   UNL     1       7.179   3.561  18.460  0.00  0.00    +0.000 HD
ENDBRANCH   4  12
BRANCH   5  15
ATOM     15  C   UNL     1       5.295   4.599  16.611  0.00  0.00    +0.000 C 
BRANCH  15  16
ATOM     16  C   UNL     1       4.370   3.884  17.617  0.00  0.00    +0.000 A 
ATOM     17  C   UNL     1       3.808   2.635  17.285  0.00  0.00    +0.000 A 
ATOM     18  C   UNL     1       2.929   1.992  18.160  0.00  0.00    +0.000 A 
ATOM     19  C   UNL     1       2.604   2.591  19.371  0.00  0.00    +0.000 A 
ATOM     20  F   UNL     1       1.732   1.992  20.192  0.00  0.00    +0.000 F 
ATOM     21  C   UNL     1       3.169   3.804  19.737  0.00  0.00    +0.000 A 
ATOM     22  C   UNL     1       4.061   4.439  18.872  0.00  0.00    +0.000 A 
ENDBRANCH  15  16
BRANCH  15  23
ATOM     23  C   UNL     1       5.862   3.573  15.603  0.00  0.00    +0.000 C 
BRANCH  23  24
ATOM     24  N   UNL     1       6.200   4.144  14.252  0.00  0.00    +0.000 N 
ATOM     25  O   UNL     1       7.071   5.025  14.242  0.00  0.00    +0.000 OA
ATOM     26  O   UNL     1       5.599   3.735  13.251  0.00  0.00    +0.000 OA
ENDBRANCH  23  24
ENDBRANCH  15  23
ENDBRANCH   5  15
TORSDOF 5
ENDMDL
MODEL 9
REMARK VINA RESULT:      -7.1      3.239      5.204
REMARK  Name = 
REMARK  5 active torsions:
REMARK  status: ('A' for Active; 'I' for Inactive)
REMARK    1  A    between atoms: C_4  and  N_5
REMARK    2  A    between atoms: C_6  and  C_7
REMARK    3  A    between atoms: C_7  and  C_8
REMARK    4  A    between atoms: C_7  and  C_12
REMARK    5  A    between atoms: C_8  and  N_9
REMARK                            x       y       z     vdW  Elec       q    Type
REMARK                         _______ _______ _______ _____ _____    ______ ____
ROOT
ATOM      1  N   UNL     1       1.293   4.626  20.573  0.00  0.00    +0.000 N 
ATOM      2  C   UNL     1       2.424   4.864  19.868  0.00  0.00    +0.000 A 
ATOM      3  N   UNL     1       3.293   3.936  19.655  0.00  0.00    +0.000 NA
ATOM      4  C   UNL     1       4.441   4.236  18.960  0.00  0.00    +0.000 A 
ATOM      5  C   UNL     1       4.613   5.407  18.297  0.00  0.00    +0.000 A 
ATOM      6  C   UNL     1       3.432   6.311  18.366  0.00  0.00    +0.000 A 
ATOM      7  O   UNL     1       3.206   7.166  17.516  0.00  0.00    +0.000 OA
ATOM      8  N   UNL     1       2.571   6.113  19.387  0.00  0.00    +0.000 N 
ATOM      9  H   UNL     1       1.330   3.745  21.079  0.00  0.00    +0.000 HD
ATOM     10  H   UNL     1       0.938   5.389  21.135  0.00  0.00    +0.000 HD
ATOM     11  H   UNL     1       1.780   6.734  19.410  0.00  0.00    +0.000 HD
ENDROOT
BRANCH   4  12
ATOM     12  N   UNL     1       5.392   3.243  18.980  0.00  0.00    +0.000 N 
ATOM     13  H   UNL     1       6.156   3.494  19.601  0.00  0.00    +0.000 HD
ATOM     14  H   UNL     1       5.065   2.290  19.075  0.00  0.00    +0.000 HD
ENDBRANCH   4  12
BRANCH   5  15
ATOM     15  C   UNL     1       5.825   5.843  17.455  0.00  0.00    +0.000 C 
BRANCH  15  16
ATOM     16  C   UNL     1       5.983   5.166  16.079  0.00  0.00    +0.000 A 
ATOM     17  C   UNL     1       7.226   5.211  15.415  0.00  0.00    +0.000 A 
ATOM     18  C   UNL     1       7.379   4.647  14.146  0.00  0.00    +0.000 A 
ATOM     19  C   UNL     1       6.294   4.037  13.530  0.00  0.00    +0.000 A 
ATOM     20  F   UNL     1       6.432   3.531  12.298  0.00  0.00    +0.000 F 
ATOM     21  C   UNL     1       5.068   3.949  14.175  0.00  0.00    +0.000 A 
ATOM     22  C   UNL     1       4.918   4.496  15.450  0.00  0.00    +0.000 A 
ENDBRANCH  15  16
BRANCH  15  23
ATOM     23  C   UNL     1       7.210   5.992  18.126  0.00  0.00    +0.000 C 
BRANCH  23  24
ATOM     24  N   UNL     1       7.781   7.383  18.082  0.00  0.00    +0.000 N 
ATOM     25  O   UNL     1       8.636   7.643  18.940  0.00  0.00    +0.000 OA
ATOM     26  O   UNL     1       7.369   8.182  17.231  0.00  0.00    +0.000 OA
ENDBRANCH  23  24
ENDBRANCH  15  23
ENDBRANCH   5  15
TORSDOF 5
ENDMDL
