MODEL 1
REMARK VINA RESULT:      -8.1      0.000      0.000
REMARK  Name = 
REMARK  5 active torsions:
REMARK  status: ('A' for Active; 'I' for Inactive)
REMARK    1  A    between atoms: C_1  and  O_2
REMARK    2  A    between atoms: O_2  and  C_3
REMARK    3  A    between atoms: C_6  and  C_7
REMARK    4  A    between atoms: N_12  and  C_13
REMARK    5  A    between atoms: C_13  and  C_14
REMARK                            x       y       z     vdW  Elec       q    Type
REMARK                         _______ _______ _______ _____ _____    ______ ____
ROOT
ATOM      1  C   UNL     1       2.779   4.666  19.709  0.00  0.00    +0.000 A 
ATOM      2  N   UNL     1       1.902   3.790  20.080  0.00  0.00    +0.000 NA
ATOM      3  O   UNL     1       2.629   2.587  20.292  0.00  0.00    +0.000 OA
ATOM      4  C   UNL     1       3.943   2.879  20.034  0.00  0.00    +0.000 A 
ATOM      5  O   UNL     1       4.859   2.080  20.148  0.00  0.00    +0.000 OA
ATOM      6  N   UNL     1       4.031   4.174  19.648  0.00  0.00    +0.000 N 
ENDROOT
BRANCH   1  10
ATOM      7  C   UNL     1       1.725   8.777  19.050  0.00  0.00    +0.000 A 
ATOM      8  C   UNL     1       1.519   8.171  20.288  0.00  0.00    +0.000 A 
ATOM      9  C   UNL     1       1.860   6.828  20.482  0.00  0.00    +0.000 A 
ATOM     10  C   UNL     1       2.400   6.073  19.431  0.00  0.00    +0.000 A 
ATOM     11  C   UNL     1       2.513   6.663  18.172  0.00  0.00    +0.000 A 
ATOM     12  C   UNL     1       2.191   8.011  17.983  0.00  0.00    +0.000 A 
BRANCH   7  14
ATOM     13  C   UNL     1       0.054  10.363  18.570  0.00  0.00    +0.000 C 
ATOM     14  O   UNL     1       1.398  10.102  18.968  0.00  0.00    +0.000 OA
ENDBRANCH   7  14
ENDBRANCH   1  10
BRANCH   6  15
ATOM     15  C   UNL     1       5.322   4.793  19.380  0.00  0.00    +0.000 C 
BRANCH  15  16
ATOM     16  C   UNL     1       5.749   4.782  17.919  0.00  0.00    +0.000 A 
ATOM     17  C   UNL     1       5.015   4.096  16.931  0.00  0.00    +0.000 A 
ATOM     18  C   UNL     1       5.370   4.183  15.583  0.00  0.00    +0.000 A 
ATOM     19  C   UNL     1       6.471   4.940  15.210  0.00  0.00    +0.000 A 
ATOM     20  F   UNL     1       6.789   5.045  13.914  0.00  0.00    +0.000 F 
ATOM     21  C   UNL     1       7.240   5.594  16.160  0.00  0.00    +0.000 A 
ATOM     22  C   UNL     1       6.885   5.512  17.508  0.00  0.00    +0.000 A 
ATOM     23 CL   UNL     1       7.877   6.353  18.646  0.00  0.00    +0.000 Cl
ENDBRANCH  15  16
ENDBRANCH   6  15
TORSDOF 4
ENDMDL
MODEL 2
REMARK VINA RESULT:      -8.0      0.183      1.019
REMARK  Name = 
REMARK  5 active torsions:
REMARK  status: ('A' for Active; 'I' for Inactive)
REMARK    1  A    between atoms: C_1  and  O_2
REMARK    2  A    between atoms: O_2  and  C_3
REMARK    3  A    between atoms: C_6  and  C_7
REMARK    4  A    between atoms: N_12  and  C_13
REMARK    5  A    between atoms: C_13  and  C_14
REMARK                            x       y       z     vdW  Elec       q    Type
REMARK                         _______ _______ _______ _____ _____    ______ ____
ROOT
ATOM      1  C   UNL     1       2.775   4.720  19.714  0.00  0.00    +0.000 A 
ATOM      2  N   UNL     1       1.885   3.848  20.063  0.00  0.00    +0.000 NA
ATOM      3  O   UNL     1       2.593   2.628  20.235  0.00  0.00    +0.000 OA
ATOM      4  C   UNL     1       3.909   2.905  19.978  0.00  0.00    +0.000 A 
ATOM      5  O   UNL     1       4.813   2.088  20.063  0.00  0.00    +0.000 OA
ATOM      6  N   UNL     1       4.018   4.210  19.631  0.00  0.00    +0.000 N 
ENDROOT
BRANCH   1  10
ATOM      7  C   UNL     1       1.699   8.796  18.889  0.00  0.00    +0.000 A 
ATOM      8  C   UNL     1       2.280   7.992  17.910  0.00  0.00    +0.000 A 
ATOM      9  C   UNL     1       2.632   6.670  18.199  0.00  0.00    +0.000 A 
ATOM     10  C   UNL     1       2.418   6.141  19.480  0.00  0.00    +0.000 A 
ATOM     11  C   UNL     1       1.923   6.982  20.477  0.00  0.00    +0.000 A 
ATOM     12  C   UNL     1       1.553   8.298  20.182  0.00  0.00    +0.000 A 
BRANCH   7  14
ATOM     13  C   UNL     1       0.191  10.585  19.140  0.00  0.00    +0.000 C 
ATOM     14  O   UNL     1       1.353  10.060  18.501  0.00  0.00    +0.000 OA
ENDBRANCH   7  14
ENDBRANCH   1  10
BRANCH   6  15
ATOM     15  C   UNL     1       5.318   4.814  19.374  0.00  0.00    +0.000 C 
BRANCH  15  16
ATOM     16  C   UNL     1       5.759   4.795  17.917  0.00  0.00    +0.000 A 
ATOM     17  C   UNL     1       5.042   4.093  16.928  0.00  0.00    +0.000 A 
ATOM     18  C   UNL     1       5.408   4.172  15.583  0.00  0.00    +0.000 A 
ATOM     19  C   UNL     1       6.505   4.938  15.214  0.00  0.00    +0.000 A 
ATOM     20  F   UNL     1       6.835   5.035  13.921  0.00  0.00    +0.000 F 
ATOM     21  C   UNL     1       7.258   5.608  16.165  0.00  0.00    +0.000 A 
ATOM     22  C   UNL     1       6.890   5.534  17.511  0.00  0.00    +0.000 A 
ATOM     23 CL   UNL     1       7.863   6.395  18.651  0.00  0.00    +0.000 Cl
ENDBRANCH  15  16
ENDBRANCH   6  15
TORSDOF 4
ENDMDL
MODEL 3
REMARK VINA RESULT:      -7.8      1.068      1.464
REMARK  Name = 
REMARK  5 active torsions:
REMARK  status: ('A' for Active; 'I' for Inactive)
REMARK    1  A    between atoms: C_1  and  O_2
REMARK    2  A    between atoms: O_2  and  C_3
REMARK    3  A    between atoms: C_6  and  C_7
REMARK    4  A    between atoms: N_12  and  C_13
REMARK    5  A    between atoms: C_13  and  C_14
REMARK                            x       y       z     vdW  Elec       q    Type
REMARK                         _______ _______ _______ _____ _____    ______ ____
ROOT
ATOM      1  C   UNL     1       2.278   3.965  18.994  0.00  0.00    +0.000 A 
ATOM      2  N   UNL     1       1.246   3.191  18.904  0.00  0.00    +0.000 NA
ATOM      3  O   UNL     1       1.764   1.878  18.735  0.00  0.00    +0.000 OA
ATOM      4  C   UNL     1       3.129   1.996  18.761  0.00  0.00    +0.000 A 
ATOM      5  O   UNL     1       3.901   1.054  18.675  0.00  0.00    +0.000 OA
ATOM      6  N   UNL     1       3.449   3.305  18.901  0.00  0.00    +0.000 N 
ENDROOT
BRANCH   1  10
ATOM      7  C   UNL     1       1.819   8.205  19.497  0.00  0.00    +0.000 A 
ATOM      8  C   UNL     1       2.264   7.667  18.291  0.00  0.00    +0.000 A 
ATOM      9  C   UNL     1       2.417   6.284  18.148  0.00  0.00    +0.000 A 
ATOM     10  C   UNL     1       2.137   5.424  19.219  0.00  0.00    +0.000 A 
ATOM     11  C   UNL     1       1.782   5.979  20.449  0.00  0.00    +0.000 A 
ATOM     12  C   UNL     1       1.611   7.361  20.586  0.00  0.00    +0.000 A 
BRANCH   7  14
ATOM     13  C   UNL     1       1.457  10.170  18.254  0.00  0.00    +0.000 C 
ATOM     14  O   UNL     1       1.663   9.563  19.528  0.00  0.00    +0.000 OA
ENDBRANCH   7  14
ENDBRANCH   1  10
BRANCH   6  15
ATOM     15  C   UNL     1       4.835   3.730  19.038  0.00  0.00    +0.000 C 
BRANCH  15  16
ATOM     16  C   UNL     1       5.519   4.121  17.736  0.00  0.00    +0.000 A 
ATOM     17  C   UNL     1       5.058   3.666  16.483  0.00  0.00    +0.000 A 
ATOM     18  C   UNL     1       5.640   4.118  15.297  0.00  0.00    +0.000 A 
ATOM     19  C   UNL     1       6.699   5.012  15.349  0.00  0.00    +0.000 A 
ATOM     20  F   UNL     1       7.235   5.466  14.209  0.00  0.00    +0.000 F 
ATOM     21  C   UNL     1       7.206   5.447  16.564  0.00  0.00    +0.000 A 
ATOM     22  C   UNL     1       6.622   5.000  17.752  0.00  0.00    +0.000 A 
ATOM     23 CL   UNL     1       7.292   5.581  19.236  0.00  0.00    +0.000 Cl
ENDBRANCH  15  16
ENDBRANCH   6  15
TORSDOF 4
ENDMDL
MODEL 4
REMARK VINA RESULT:      -7.6      1.836      2.435
REMARK  Name = 
REMARK  5 active torsions:
REMARK  status: ('A' for Active; 'I' for Inactive)
REMARK    1  A    between atoms: C_1  and  O_2
REMARK    2  A    between atoms: O_2  and  C_3
REMARK    3  A    between atoms: C_6  and  C_7
REMARK    4  A    between atoms: N_12  and  C_13
REMARK    5  A    between atoms: C_13  and  C_14
REMARK                            x       y       z     vdW  Elec       q    Type
REMARK                         _______ _______ _______ _____ _____    ______ ____
ROOT
ATOM      1  C   UNL     1       2.456   4.287  19.124  0.00  0.00    +0.000 A 
ATOM      2  N   UNL     1       1.855   3.534  19.987  0.00  0.00    +0.000 NA
ATOM      3  O   UNL     1       2.299   2.212  19.716  0.00  0.00    +0.000 OA
ATOM      4  C   UNL     1       3.185   2.308  18.676  0.00  0.00    +0.000 A 
ATOM      5  O   UNL     1       3.790   1.360  18.199  0.00  0.00    +0.000 OA
ATOM      6  N   UNL     1       3.265   3.604  18.292  0.00  0.00    +0.000 N 
ENDROOT
BRANCH   1  10
ATOM      7  C   UNL     1       1.854   8.537  18.965  0.00  0.00    +0.000 A 
ATOM      8  C   UNL     1       2.154   7.809  17.815  0.00  0.00    +0.000 A 
ATOM      9  C   UNL     1       2.356   6.427  17.887  0.00  0.00    +0.000 A 
ATOM     10  C   UNL     1       2.272   5.759  19.118  0.00  0.00    +0.000 A 
ATOM     11  C   UNL     1       2.065   6.511  20.274  0.00  0.00    +0.000 A 
ATOM     12  C   UNL     1       1.843   7.890  20.199  0.00  0.00    +0.000 A 
BRANCH   7  14
ATOM     13  C   UNL     1       0.380  10.344  19.277  0.00  0.00    +0.000 C 
ATOM     14  O   UNL     1       1.634   9.874  18.788  0.00  0.00    +0.000 OA
ENDBRANCH   7  14
ENDBRANCH   1  10
BRANCH   6  15
ATOM     15  C   UNL     1       4.191   4.024  17.250  0.00  0.00    +0.000 C 
BRANCH  15  16
ATOM     16  C   UNL     1       5.335   4.909  17.725  0.00  0.00    +0.000 A 
ATOM     17  C   UNL     1       5.903   4.772  19.008  0.00  0.00    +0.000 A 
ATOM     18  C   UNL     1       7.015   5.527  19.385  0.00  0.00    +0.000 A 
ATOM     19  C   UNL     1       7.560   6.439  18.493  0.00  0.00    +0.000 A 
ATOM     20  F   UNL     1       8.644   7.139  18.848  0.00  0.00    +0.000 F 
ATOM     21  C   UNL     1       7.001   6.630  17.239  0.00  0.00    +0.000 A 
ATOM     22  C   UNL     1       5.891   5.873  16.858  0.00  0.00    +0.000 A 
ATOM     23 CL   UNL     1       5.242   6.150  15.280  0.00  0.00    +0.000 Cl
ENDBRANCH  15  16
ENDBRANCH   6  15
TORSDOF 4
ENDMDL
MODEL 5
REMARK VINA RESULT:      -7.6      0.986      1.004
REMARK  Name = 
REMARK  5 active torsions:
REMARK  status: ('A' for Active; 'I' for Inactive)
REMARK    1  A    between atoms: C_1  and  O_2
REMARK    2  A    between atoms: O_2  and  C_3
REMARK    3  A    between atoms: C_6  and  C_7
REMARK    4  A    between atoms: N_12  and  C_13
REMARK    5  A    between atoms: C_13  and  C_14
REMARK                            x       y       z     vdW  Elec       q    Type
REMARK                         _______ _______ _______ _____ _____    ______ ____
ROOT
ATOM      1  C   UNL     1       2.307   4.004  19.057  0.00  0.00    +0.000 A 
ATOM      2  N   UNL     1       1.297   3.195  19.024  0.00  0.00    +0.000 NA
ATOM      3  O   UNL     1       1.853   1.894  18.892  0.00  0.00    +0.000 OA
ATOM      4  C   UNL     1       3.213   2.055  18.878  0.00  0.00    +0.000 A 
ATOM      5  O   UNL     1       4.013   1.135  18.808  0.00  0.00    +0.000 OA
ATOM      6  N   UNL     1       3.495   3.377  18.959  0.00  0.00    +0.000 N 
ENDROOT
BRANCH   1  10
ATOM      7  C   UNL     1       1.823   8.222  19.707  0.00  0.00    +0.000 A 
ATOM      8  C   UNL     1       1.497   7.298  20.699  0.00  0.00    +0.000 A 
ATOM      9  C   UNL     1       1.653   5.928  20.467  0.00  0.00    +0.000 A 
ATOM     10  C   UNL     1       2.124   5.466  19.229  0.00  0.00    +0.000 A 
ATOM     11  C   UNL     1       2.357   6.393  18.213  0.00  0.00    +0.000 A 
ATOM     12  C   UNL     1       2.220   7.765  18.453  0.00  0.00    +0.000 A 
BRANCH   7  14
ATOM     13  C   UNL     1       0.537  10.177  19.468  0.00  0.00    +0.000 C 
ATOM     14  O   UNL     1       1.675   9.539  20.042  0.00  0.00    +0.000 OA
ENDBRANCH   7  14
ENDBRANCH   1  10
BRANCH   6  15
ATOM     15  C   UNL     1       4.870   3.850  19.042  0.00  0.00    +0.000 C 
BRANCH  15  16
ATOM     16  C   UNL     1       5.512   4.198  17.707  0.00  0.00    +0.000 A 
ATOM     17  C   UNL     1       4.975   3.755  16.481  0.00  0.00    +0.000 A 
ATOM     18  C   UNL     1       5.524   4.169  15.266  0.00  0.00    +0.000 A 
ATOM     19  C   UNL     1       6.625   5.013  15.261  0.00  0.00    +0.000 A 
ATOM     20  F   UNL     1       7.129   5.431  14.094  0.00  0.00    +0.000 F 
ATOM     21  C   UNL     1       7.205   5.434  16.448  0.00  0.00    +0.000 A 
ATOM     22  C   UNL     1       6.654   5.025  17.665  0.00  0.00    +0.000 A 
ATOM     23 CL   UNL     1       7.416   5.587  19.112  0.00  0.00    +0.000 Cl
ENDBRANCH  15  16
ENDBRANCH   6  15
TORSDOF 4
ENDMDL
MODEL 6
REMARK VINA RESULT:      -7.6      1.803      2.200
REMARK  Name = 
REMARK  5 active torsions:
REMARK  status: ('A' for Active; 'I' for Inactive)
REMARK    1  A    between atoms: C_1  and  O_2
REMARK    2  A    between atoms: O_2  and  C_3
REMARK    3  A    between atoms: C_6  and  C_7
REMARK    4  A    between atoms: N_12  and  C_13
REMARK    5  A    between atoms: C_13  and  C_14
REMARK                            x       y       z     vdW  Elec       q    Type
REMARK                         _______ _______ _______ _____ _____    ______ ____
ROOT
ATOM      1  C   UNL     1       2.705   4.853  19.835  0.00  0.00    +0.000 A 
ATOM      2  N   UNL     1       2.240   4.262  20.887  0.00  0.00    +0.000 NA
ATOM      3  O   UNL     1       2.843   2.975  20.901  0.00  0.00    +0.000 OA
ATOM      4  C   UNL     1       3.669   2.924  19.809  0.00  0.00    +0.000 A 
ATOM      5  O   UNL     1       4.375   1.969  19.526  0.00  0.00    +0.000 OA
ATOM      6  N   UNL     1       3.565   4.092  19.131  0.00  0.00    +0.000 N 
ENDROOT
BRANCH   1  10
ATOM      7  C   UNL     1       1.672   8.940  19.009  0.00  0.00    +0.000 A 
ATOM      8  C   UNL     1       1.514   8.401  20.285  0.00  0.00    +0.000 A 
ATOM      9  C   UNL     1       1.847   7.065  20.533  0.00  0.00    +0.000 A 
ATOM     10  C   UNL     1       2.330   6.249  19.500  0.00  0.00    +0.000 A 
ATOM     11  C   UNL     1       2.395   6.772  18.209  0.00  0.00    +0.000 A 
ATOM     12  C   UNL     1       2.081   8.113  17.964  0.00  0.00    +0.000 A 
BRANCH   7  14
ATOM     13  C   UNL     1      -0.039  10.543  18.814  0.00  0.00    +0.000 C 
ATOM     14  O   UNL     1       1.358  10.263  18.873  0.00  0.00    +0.000 OA
ENDBRANCH   7  14
ENDBRANCH   1  10
BRANCH   6  15
ATOM     15  C   UNL     1       4.390   4.358  17.961  0.00  0.00    +0.000 C 
BRANCH  15  16
ATOM     16  C   UNL     1       5.572   5.286  18.206  0.00  0.00    +0.000 A 
ATOM     17  C   UNL     1       6.389   5.170  19.348  0.00  0.00    +0.000 A 
ATOM     18  C   UNL     1       7.526   5.966  19.501  0.00  0.00    +0.000 A 
ATOM     19  C   UNL     1       7.848   6.898  18.526  0.00  0.00    +0.000 A 
ATOM     20  F   UNL     1       8.955   7.638  18.662  0.00  0.00    +0.000 F 
ATOM     21  C   UNL     1       7.043   7.069  17.410  0.00  0.00    +0.000 A 
ATOM     22  C   UNL     1       5.908   6.270  17.253  0.00  0.00    +0.000 A 
ATOM     23 CL   UNL     1       4.947   6.524  15.838  0.00  0.00    +0.000 Cl
ENDBRANCH  15  16
ENDBRANCH   6  15
TORSDOF 4
ENDMDL
MODEL 7
REMARK VINA RESULT:      -7.5      3.796      6.620
REMARK  Name = 
REMARK  5 active torsions:
REMARK  status: ('A' for Active; 'I' for Inactive)
REMARK    1  A    between atoms: C_1  and  O_2
REMARK    2  A    between atoms: O_2  and  C_3
REMARK    3  A    between atoms: C_6  and  C_7
REMARK    4  A    between atoms: N_12  and  C_13
REMARK    5  A    between atoms: C_13  and  C_14
REMARK                            x       y       z     vdW  Elec       q    Type
REMARK                         _______ _______ _______ _____ _____    ______ ____
ROOT
ATOM      1  C   UNL     1       6.883   5.519  16.765  0.00  0.00    +0.000 A 
ATOM      2  N   UNL     1       7.633   6.571  16.840  0.00  0.00    +0.000 NA
ATOM      3  O   UNL     1       7.848   6.790  18.227  0.00  0.00    +0.000 OA
ATOM      4  C   UNL     1       7.188   5.784  18.883  0.00  0.00    +0.000 A 
ATOM      5  O   UNL     1       7.185   5.641  20.096  0.00  0.00    +0.000 OA
ATOM      6  N   UNL     1       6.567   5.003  17.968  0.00  0.00    +0.000 N 
ENDROOT
BRANCH   1  10
ATOM      7  C   UNL     1       5.843   3.822  12.959  0.00  0.00    +0.000 A 
ATOM      8  C   UNL     1       7.088   4.413  13.167  0.00  0.00    +0.000 A 
ATOM      9  C   UNL     1       7.406   4.969  14.411  0.00  0.00    +0.000 A 
ATOM     10  C   UNL     1       6.473   4.951  15.457  0.00  0.00    +0.000 A 
ATOM     11  C   UNL     1       5.198   4.441  15.209  0.00  0.00    +0.000 A 
ATOM     12  C   UNL     1       4.887   3.867  13.971  0.00  0.00    +0.000 A 
BRANCH   7  14
ATOM     13  C   UNL     1       4.272   3.161  11.337  0.00  0.00    +0.000 C 
ATOM     14  O   UNL     1       5.639   3.271  11.725  0.00  0.00    +0.000 OA
ENDBRANCH   7  14
ENDBRANCH   1  10
BRANCH   6  15
ATOM     15  C   UNL     1       5.846   3.803  18.368  0.00  0.00    +0.000 C 
BRANCH  15  16
ATOM     16  C   UNL     1       4.452   4.047  18.928  0.00  0.00    +0.000 A 
ATOM     17  C   UNL     1       3.659   5.135  18.511  0.00  0.00    +0.000 A 
ATOM     18  C   UNL     1       2.346   5.282  18.964  0.00  0.00    +0.000 A 
ATOM     19  C   UNL     1       1.819   4.356  19.852  0.00  0.00    +0.000 A 
ATOM     20  F   UNL     1       0.550   4.484  20.261  0.00  0.00    +0.000 F 
ATOM     21  C   UNL     1       2.584   3.298  20.317  0.00  0.00    +0.000 A 
ATOM     22  C   UNL     1       3.896   3.146  19.861  0.00  0.00    +0.000 A 
ATOM     23 CL   UNL     1       4.800   1.804  20.470  0.00  0.00    +0.000 Cl
ENDBRANCH  15  16
ENDBRANCH   6  15
TORSDOF 4
ENDMDL
MODEL 8
REMARK VINA RESULT:      -7.5      3.714      6.545
REMARK  Name = 
REMARK  5 active torsions:
REMARK  status: ('A' for Active; 'I' for Inactive)
REMARK    1  A    between atoms: C_1  and  O_2
REMARK    2  A    between atoms: O_2  and  C_3
REMARK    3  A    between atoms: C_6  and  C_7
REMARK    4  A    between atoms: N_12  and  C_13
REMARK    5  A    between atoms: C_13  and  C_14
REMARK                            x       y       z     vdW  Elec       q    Type
REMARK                         _______ _______ _______ _____ _____    ______ ____
ROOT
ATOM      1  C   UNL     1       6.920   4.661  16.667  0.00  0.00    +0.000 A 
ATOM      2  N   UNL     1       7.998   4.250  17.252  0.00  0.00    +0.000 NA
ATOM      3  O   UNL     1       7.870   4.642  18.612  0.00  0.00    +0.000 OA
ATOM      4  C   UNL     1       6.654   5.265  18.721  0.00  0.00    +0.000 A 
ATOM      5  O   UNL     1       6.199   5.705  19.765  0.00  0.00    +0.000 OA
ATOM      6  N   UNL     1       6.071   5.296  17.499  0.00  0.00    +0.000 N 
ENDROOT
BRANCH   1  10
ATOM      7  C   UNL     1       6.039   3.884  12.536  0.00  0.00    +0.000 A 
ATOM      8  C   UNL     1       5.359   3.219  13.554  0.00  0.00    +0.000 A 
ATOM      9  C   UNL     1       5.665   3.478  14.894  0.00  0.00    +0.000 A 
ATOM     10  C   UNL     1       6.669   4.399  15.229  0.00  0.00    +0.000 A 
ATOM     11  C   UNL     1       7.406   4.988  14.202  0.00  0.00    +0.000 A 
ATOM     12  C   UNL     1       7.086   4.743  12.862  0.00  0.00    +0.000 A 
BRANCH   7  14
ATOM     13  C   UNL     1       4.300   3.129  11.143  0.00  0.00    +0.000 C 
ATOM     14  O   UNL     1       5.643   3.594  11.260  0.00  0.00    +0.000 OA
ENDBRANCH   7  14
ENDBRANCH   1  10
BRANCH   6  15
ATOM     15  C   UNL     1       4.730   5.833  17.319  0.00  0.00    +0.000 C 
BRANCH  15  16
ATOM     16  C   UNL     1       3.602   4.887  17.706  0.00  0.00    +0.000 A 
ATOM     17  C   UNL     1       3.487   3.595  17.155  0.00  0.00    +0.000 A 
ATOM     18  C   UNL     1       2.503   2.710  17.599  0.00  0.00    +0.000 A 
ATOM     19  C   UNL     1       1.612   3.111  18.584  0.00  0.00    +0.000 A 
ATOM     20  F   UNL     1       0.689   2.250  19.027  0.00  0.00    +0.000 F 
ATOM     21  C   UNL     1       1.668   4.389  19.117  0.00  0.00    +0.000 A 
ATOM     22  C   UNL     1       2.655   5.275  18.678  0.00  0.00    +0.000 A 
ATOM     23 CL   UNL     1       2.681   6.853  19.384  0.00  0.00    +0.000 Cl
ENDBRANCH  15  16
ENDBRANCH   6  15
TORSDOF 4
ENDMDL
MODEL 9
REMARK VINA RESULT:      -7.4      2.982      5.661
REMARK  Name = 
REMARK  5 active torsions:
REMARK  status: ('A' for Active; 'I' for Inactive)
REMARK    1  A    between atoms: C_1  and  O_2
REMARK    2  A    between atoms: O_2  and  C_3
REMARK    3  A    between atoms: C_6  and  C_7
REMARK    4  A    between atoms: N_12  and  C_13
REMARK    5  A    between atoms: C_13  and  C_14
REMARK                            x       y       z     vdW  Elec       q    Type
REMARK                         _______ _______ _______ _____ _____    ______ ____
ROOT
ATOM      1  C   UNL     1       3.183   3.546  18.138  0.00  0.00    +0.000 A 
ATOM      2  N   UNL     1       2.452   2.560  17.728  0.00  0.00    +0.000 NA
ATOM      3  O   UNL     1       1.357   2.493  18.631  0.00  0.00    +0.000 OA
ATOM      4  C   UNL     1       1.537   3.510  19.532  0.00  0.00    +0.000 A 
ATOM      5  O   UNL     1       0.761   3.769  20.438  0.00  0.00    +0.000 OA
ATOM      6  N   UNL     1       2.691   4.153  19.235  0.00  0.00    +0.000 N 
ENDROOT
BRANCH   1  10
ATOM      7  C   UNL     1       6.650   4.811  15.943  0.00  0.00    +0.000 A 
ATOM      8  C   UNL     1       5.453   4.518  15.292  0.00  0.00    +0.000 A 
ATOM      9  C   UNL     1       4.336   4.099  16.022  0.00  0.00    +0.000 A 
ATOM     10  C   UNL     1       4.411   3.954  17.415  0.00  0.00    +0.000 A 
ATOM     11  C   UNL     1       5.640   4.159  18.044  0.00  0.00    +0.000 A 
ATOM     12  C   UNL     1       6.751   4.597  17.316  0.00  0.00    +0.000 A 
BRANCH   7  14
ATOM     13  C   UNL     1       7.479   5.042  13.753  0.00  0.00    +0.000 C 
ATOM     14  O   UNL     1       7.673   5.251  15.150  0.00  0.00    +0.000 OA
ENDBRANCH   7  14
ENDBRANCH   1  10
BRANCH   6  15
ATOM     15  C   UNL     1       3.106   5.334  19.979  0.00  0.00    +0.000 C 
BRANCH  15  16
ATOM     16  C   UNL     1       2.772   6.663  19.316  0.00  0.00    +0.000 A 
ATOM     17  C   UNL     1       3.312   7.031  18.067  0.00  0.00    +0.000 A 
ATOM     18  C   UNL     1       2.913   8.209  17.432  0.00  0.00    +0.000 A 
ATOM     19  C   UNL     1       1.987   9.040  18.045  0.00  0.00    +0.000 A 
ATOM     20  F   UNL     1       1.586  10.153  17.420  0.00  0.00    +0.000 F 
ATOM     21  C   UNL     1       1.468   8.730  19.293  0.00  0.00    +0.000 A 
ATOM     22  C   UNL     1       1.862   7.550  19.928  0.00  0.00    +0.000 A 
ATOM     23 CL   UNL     1       1.176   7.213  21.478  0.00  0.00    +0.000 Cl
ENDBRANCH  15  16
ENDBRANCH   6  15
TORSDOF 4
ENDMDL
