MODEL 1
REMARK VINA RESULT:      -8.5      0.000      0.000
REMARK  Name = 
REMARK  4 active torsions:
REMARK  status: ('A' for Active; 'I' for Inactive)
REMARK    1  A    between atoms: N_4  and  C_5
REMARK    2  A    between atoms: C_5  and  C_6
REMARK    3  A    between atoms: N_8  and  C_9
REMARK    4  A    between atoms: C_13  and  C_15
REMARK                            x       y       z     vdW  Elec       q    Type
REMARK                         _______ _______ _______ _____ _____    ______ ____
ROOT
ATOM      1  C   UNL     1       6.171   4.433  17.267  0.00  0.00    +0.000 C 
ATOM      2  C   UNL     1       4.832   3.686  17.410  0.00  0.00    +0.000 C 
ATOM      3  C   UNL     1       3.615   4.560  17.087  0.00  0.00    +0.000 C 
ATOM      4  N   UNL     1       3.676   5.842  17.788  0.00  0.00    +0.000 N 
ATOM      5  C   UNL     1       2.519   6.328  18.403  0.00  0.00    +0.000 C 
ATOM      6  O   UNL     1       1.485   5.652  18.448  0.00  0.00    +0.000 OA
ATOM      7  C   UNL     1       4.904   6.603  17.537  0.00  0.00    +0.000 C 
ATOM      8  C   UNL     1       6.117   5.790  17.976  0.00  0.00    +0.000 C 
ENDROOT
BRANCH   5   9
ATOM      9  C   UNL     1       2.574   7.709  19.089  0.00  0.00    +0.000 C 
ATOM     10  C   UNL     1       2.296   8.859  18.098  0.00  0.00    +0.000 C 
ATOM     11  C   UNL     1       0.849   9.196  17.741  0.00  0.00    +0.000 C 
ATOM     12  C   UNL     1       0.084  10.030  18.765  0.00  0.00    +0.000 C 
ATOM     13  C   UNL     1      -0.106   9.410  20.140  0.00  0.00    +0.000 C 
ATOM     14  C   UNL     1       1.190   9.037  20.847  0.00  0.00    +0.000 C 
ATOM     15  C   UNL     1       1.744   7.695  20.384  0.00  0.00    +0.000 C 
ENDBRANCH   5   9
BRANCH   1  18
ATOM     16  C   UNL     1       6.860   4.437  13.745  0.00  0.00    +0.000 A 
ATOM     17  C   UNL     1       6.245   3.825  14.817  0.00  0.00    +0.000 A 
ATOM     18  N   UNL     1       6.656   4.550  15.897  0.00  0.00    +0.000 N 
ATOM     19  N   UNL     1       7.537   5.495  15.531  0.00  0.00    +0.000 NA
ATOM     20  N   UNL     1       7.664   5.444  14.212  0.00  0.00    +0.000 NA
BRANCH  16  21
ATOM     21  C   UNL     1       6.718   4.172  12.293  0.00  0.00    +0.000 C 
BRANCH  21  25
ATOM     22  N   UNL     1       6.032   0.743  11.356  0.00  0.00    +0.000 N 
ATOM     23  C   UNL     1       5.750   2.051  11.557  0.00  0.00    +0.000 C 
ATOM     24  O   UNL     1       4.656   2.516  11.280  0.00  0.00    +0.000 OA
ATOM     25  N   UNL     1       6.809   2.754  12.034  0.00  0.00    +0.000 N 
ATOM     26  H   UNL     1       5.235   0.183  11.080  0.00  0.00    +0.000 HD
ATOM     27  H   UNL     1       6.707   0.285  11.948  0.00  0.00    +0.000 HD
ATOM     28  H   UNL     1       7.628   2.266  12.354  0.00  0.00    +0.000 HD
ENDBRANCH  21  25
ENDBRANCH  16  21
ENDBRANCH   1  18
TORSDOF 4
ENDMDL
MODEL 2
REMARK VINA RESULT:      -7.5      2.950      3.482
REMARK  Name = 
REMARK  4 active torsions:
REMARK  status: ('A' for Active; 'I' for Inactive)
REMARK    1  A    between atoms: N_4  and  C_5
REMARK    2  A    between atoms: C_5  and  C_6
REMARK    3  A    between atoms: N_8  and  C_9
REMARK    4  A    between atoms: C_13  and  C_15
REMARK                            x       y       z     vdW  Elec       q    Type
REMARK                         _______ _______ _______ _____ _____    ______ ____
ROOT
ATOM      1  C   UNL     1       6.952   5.811  15.750  0.00  0.00    +0.000 C 
ATOM      2  C   UNL     1       7.549   4.983  16.903  0.00  0.00    +0.000 C 
ATOM      3  C   UNL     1       6.598   3.904  17.431  0.00  0.00    +0.000 C 
ATOM      4  N   UNL     1       5.267   4.450  17.698  0.00  0.00    +0.000 N 
ATOM      5  C   UNL     1       4.617   4.087  18.881  0.00  0.00    +0.000 C 
ATOM      6  O   UNL     1       5.183   3.402  19.739  0.00  0.00    +0.000 OA
ATOM      7  C   UNL     1       4.654   5.123  16.548  0.00  0.00    +0.000 C 
ATOM      8  C   UNL     1       5.535   6.282  16.095  0.00  0.00    +0.000 C 
ENDROOT
BRANCH   5   9
ATOM      9  C   UNL     1       3.190   4.618  19.129  0.00  0.00    +0.000 C 
ATOM     10  C   UNL     1       2.179   4.063  18.103  0.00  0.00    +0.000 C 
ATOM     11  C   UNL     1       1.598   2.666  18.316  0.00  0.00    +0.000 C 
ATOM     12  C   UNL     1       0.467   2.560  19.335  0.00  0.00    +0.000 C 
ATOM     13  C   UNL     1       0.804   2.943  20.767  0.00  0.00    +0.000 C 
ATOM     14  C   UNL     1       1.331   4.363  20.932  0.00  0.00    +0.000 C 
ATOM     15  C   UNL     1       2.817   4.475  20.614  0.00  0.00    +0.000 C 
ENDBRANCH   5   9
BRANCH   1  18
ATOM     16  C   UNL     1       6.519   4.092  12.630  0.00  0.00    +0.000 A 
ATOM     17  C   UNL     1       6.133   4.247  13.944  0.00  0.00    +0.000 A 
ATOM     18  N   UNL     1       7.011   5.162  14.446  0.00  0.00    +0.000 N 
ATOM     19  N   UNL     1       7.936   5.489  13.528  0.00  0.00    +0.000 NA
ATOM     20  N   UNL     1       7.640   4.848  12.406  0.00  0.00    +0.000 NA
BRANCH  16  21
ATOM     21  C   UNL     1       5.885   3.310  11.541  0.00  0.00    +0.000 C 
BRANCH  21  25
ATOM     22  N   UNL     1       6.281  -0.288  11.613  0.00  0.00    +0.000 N 
ATOM     23  C   UNL     1       6.407   0.961  11.107  0.00  0.00    +0.000 C 
ATOM     24  O   UNL     1       7.018   1.170  10.072  0.00  0.00    +0.000 OA
ATOM     25  N   UNL     1       5.838   1.910  11.895  0.00  0.00    +0.000 N 
ATOM     26  H   UNL     1       6.624  -1.020  11.003  0.00  0.00    +0.000 HD
ATOM     27  H   UNL     1       5.469  -0.520  12.164  0.00  0.00    +0.000 HD
ATOM     28  H   UNL     1       5.247   1.634  12.660  0.00  0.00    +0.000 HD
ENDBRANCH  21  25
ENDBRANCH  16  21
ENDBRANCH   1  18
TORSDOF 4
ENDMDL
MODEL 3
REMARK VINA RESULT:      -7.4      5.269      9.750
REMARK  Name = 
REMARK  4 active torsions:
REMARK  status: ('A' for Active; 'I' for Inactive)
REMARK    1  A    between atoms: N_4  and  C_5
REMARK    2  A    between atoms: C_5  and  C_6
REMARK    3  A    between atoms: N_8  and  C_9
REMARK    4  A    between atoms: C_13  and  C_15
REMARK                            x       y       z     vdW  Elec       q    Type
REMARK                         _______ _______ _______ _____ _____    ______ ____
ROOT
ATOM      1  C   UNL     1       0.354  10.393  19.586  0.00  0.00    +0.000 C 
ATOM      2  C   UNL     1       0.176   9.415  20.762  0.00  0.00    +0.000 C 
ATOM      3  C   UNL     1       1.376   8.484  20.963  0.00  0.00    +0.000 C 
ATOM      4  N   UNL     1       1.782   7.857  19.705  0.00  0.00    +0.000 N 
ATOM      5  C   UNL     1       2.086   6.493  19.701  0.00  0.00    +0.000 C 
ATOM      6  O   UNL     1       1.923   5.797  20.709  0.00  0.00    +0.000 OA
ATOM      7  C   UNL     1       2.076   8.810  18.629  0.00  0.00    +0.000 C 
ATOM      8  C   UNL     1       0.843   9.656  18.334  0.00  0.00    +0.000 C 
ENDROOT
BRANCH   5   9
ATOM      9  C   UNL     1       2.571   5.850  18.385  0.00  0.00    +0.000 C 
ATOM     10  C   UNL     1       4.111   5.765  18.316  0.00  0.00    +0.000 C 
ATOM     11  C   UNL     1       4.822   4.617  19.032  0.00  0.00    +0.000 C 
ATOM     12  C   UNL     1       4.816   3.272  18.310  0.00  0.00    +0.000 C 
ATOM     13  C   UNL     1       3.456   2.642  18.056  0.00  0.00    +0.000 C 
ATOM     14  C   UNL     1       2.501   3.511  17.248  0.00  0.00    +0.000 C 
ATOM     15  C   UNL     1       1.793   4.555  18.104  0.00  0.00    +0.000 C 
ENDBRANCH   5   9
BRANCH   1  18
ATOM     16  C   UNL     1       2.269  13.423  19.762  0.00  0.00    +0.000 A 
ATOM     17  C   UNL     1       1.794  12.380  18.994  0.00  0.00    +0.000 A 
ATOM     18  N   UNL     1       1.171  11.561  19.889  0.00  0.00    +0.000 N 
ATOM     19  N   UNL     1       1.324  12.020  21.142  0.00  0.00    +0.000 NA
ATOM     20  N   UNL     1       1.986  13.166  21.078  0.00  0.00    +0.000 NA
BRANCH  16  21
ATOM     21  C   UNL     1       2.940  14.678  19.346  0.00  0.00    +0.000 C 
BRANCH  21  25
ATOM     22  N   UNL     1       1.295  17.494  17.773  0.00  0.00    +0.000 N 
ATOM     23  C   UNL     1       2.345  16.748  18.189  0.00  0.00    +0.000 C 
ATOM     24  O   UNL     1       3.495  17.072  17.939  0.00  0.00    +0.000 OA
ATOM     25  N   UNL     1       1.967  15.620  18.842  0.00  0.00    +0.000 N 
ATOM     26  H   UNL     1       1.554  18.380  17.356  0.00  0.00    +0.000 HD
ATOM     27  H   UNL     1       0.443  17.493  18.310  0.00  0.00    +0.000 HD
ATOM     28  H   UNL     1       1.006  15.500  19.115  0.00  0.00    +0.000 HD
ENDBRANCH  21  25
ENDBRANCH  16  21
ENDBRANCH   1  18
TORSDOF 4
ENDMDL
MODEL 4
REMARK VINA RESULT:      -7.3      5.190      9.361
REMARK  Name = 
REMARK  4 active torsions:
REMARK  status: ('A' for Active; 'I' for Inactive)
REMARK    1  A    between atoms: N_4  and  C_5
REMARK    2  A    between atoms: C_5  and  C_6
REMARK    3  A    between atoms: N_8  and  C_9
REMARK    4  A    between atoms: C_13  and  C_15
REMARK                            x       y       z     vdW  Elec       q    Type
REMARK                         _______ _______ _______ _____ _____    ______ ____
ROOT
ATOM      1  C   UNL     1       0.064  10.319  19.747  0.00  0.00    +0.000 C 
ATOM      2  C   UNL     1       0.069   9.312  20.912  0.00  0.00    +0.000 C 
ATOM      3  C   UNL     1       1.356   8.485  20.993  0.00  0.00    +0.000 C 
ATOM      4  N   UNL     1       1.708   7.914  19.693  0.00  0.00    +0.000 N 
ATOM      5  C   UNL     1       2.125   6.581  19.634  0.00  0.00    +0.000 C 
ATOM      6  O   UNL     1       2.105   5.860  20.637  0.00  0.00    +0.000 OA
ATOM      7  C   UNL     1       1.829   8.905  18.618  0.00  0.00    +0.000 C 
ATOM      8  C   UNL     1       0.508   9.646  18.443  0.00  0.00    +0.000 C 
ENDROOT
BRANCH   5   9
ATOM      9  C   UNL     1       2.551   6.003  18.270  0.00  0.00    +0.000 C 
ATOM     10  C   UNL     1       4.064   6.174  18.015  0.00  0.00    +0.000 C 
ATOM     11  C   UNL     1       5.038   5.175  18.640  0.00  0.00    +0.000 C 
ATOM     12  C   UNL     1       5.173   3.834  17.924  0.00  0.00    +0.000 C 
ATOM     13  C   UNL     1       3.917   2.981  17.836  0.00  0.00    +0.000 C 
ATOM     14  C   UNL     1       2.740   3.662  17.149  0.00  0.00    +0.000 C 
ATOM     15  C   UNL     1       1.974   4.590  18.084  0.00  0.00    +0.000 C 
ENDBRANCH   5   9
BRANCH   1  18
ATOM     16  C   UNL     1       1.640  13.540  19.876  0.00  0.00    +0.000 A 
ATOM     17  C   UNL     1       1.115  12.524  19.106  0.00  0.00    +0.000 A 
ATOM     18  N   UNL     1       0.803  11.549  20.007  0.00  0.00    +0.000 N 
ATOM     19  N   UNL     1       1.189  11.901  21.245  0.00  0.00    +0.000 NA
ATOM     20  N   UNL     1       1.695  13.124  21.180  0.00  0.00    +0.000 NA
BRANCH  16  21
ATOM     21  C   UNL     1       2.063  14.906  19.483  0.00  0.00    +0.000 C 
BRANCH  21  25
ATOM     22  N   UNL     1       5.149  14.746  17.596  0.00  0.00    +0.000 N 
ATOM     23  C   UNL     1       4.380  14.837  18.706  0.00  0.00    +0.000 C 
ATOM     24  O   UNL     1       4.875  14.864  19.822  0.00  0.00    +0.000 OA
ATOM     25  N   UNL     1       3.051  14.838  18.431  0.00  0.00    +0.000 N 
ATOM     26  H   UNL     1       6.144  14.826  17.771  0.00  0.00    +0.000 HD
ATOM     27  H   UNL     1       4.821  15.148  16.732  0.00  0.00    +0.000 HD
ATOM     28  H   UNL     1       2.739  14.943  17.480  0.00  0.00    +0.000 HD
ENDBRANCH  21  25
ENDBRANCH  16  21
ENDBRANCH   1  18
TORSDOF 4
ENDMDL
MODEL 5
REMARK VINA RESULT:      -7.3      4.137      6.729
REMARK  Name = 
REMARK  4 active torsions:
REMARK  status: ('A' for Active; 'I' for Inactive)
REMARK    1  A    between atoms: N_4  and  C_5
REMARK    2  A    between atoms: C_5  and  C_6
REMARK    3  A    between atoms: N_8  and  C_9
REMARK    4  A    between atoms: C_13  and  C_15
REMARK                            x       y       z     vdW  Elec       q    Type
REMARK                         _______ _______ _______ _____ _____    ______ ____
ROOT
ATOM      1  C   UNL     1       6.712   4.938  18.039  0.00  0.00    +0.000 C 
ATOM      2  C   UNL     1       6.338   4.230  16.724  0.00  0.00    +0.000 C 
ATOM      3  C   UNL     1       4.891   4.486  16.289  0.00  0.00    +0.000 C 
ATOM      4  N   UNL     1       3.954   4.263  17.389  0.00  0.00    +0.000 N 
ATOM      5  C   UNL     1       2.775   3.556  17.136  0.00  0.00    +0.000 C 
ATOM      6  O   UNL     1       2.564   3.037  16.034  0.00  0.00    +0.000 OA
ATOM      7  C   UNL     1       4.248   5.047  18.594  0.00  0.00    +0.000 C 
ATOM      8  C   UNL     1       5.641   4.702  19.110  0.00  0.00    +0.000 C 
ENDROOT
BRANCH   5   9
ATOM      9  C   UNL     1       1.763   3.375  18.286  0.00  0.00    +0.000 C 
ATOM     10  C   UNL     1       2.043   2.099  19.109  0.00  0.00    +0.000 C 
ATOM     11  C   UNL     1       3.124   2.136  20.188  0.00  0.00    +0.000 C 
ATOM     12  C   UNL     1       2.725   2.780  21.513  0.00  0.00    +0.000 C 
ATOM     13  C   UNL     1       2.331   4.248  21.464  0.00  0.00    +0.000 C 
ATOM     14  C   UNL     1       1.170   4.556  20.527  0.00  0.00    +0.000 C 
ATOM     15  C   UNL     1       1.610   4.687  19.074  0.00  0.00    +0.000 C 
ENDBRANCH   5   9
BRANCH   1  18
ATOM     16  C   UNL     1       8.021   8.279  17.964  0.00  0.00    +0.000 A 
ATOM     17  C   UNL     1       7.968   7.056  18.599  0.00  0.00    +0.000 A 
ATOM     18  N   UNL     1       7.038   6.352  17.894  0.00  0.00    +0.000 N 
ATOM     19  N   UNL     1       6.485   7.117  16.937  0.00  0.00    +0.000 NA
ATOM     20  N   UNL     1       7.086   8.298  16.963  0.00  0.00    +0.000 NA
BRANCH  16  21
ATOM     21  C   UNL     1       8.922   9.433  18.201  0.00  0.00    +0.000 C 
BRANCH  21  25
ATOM     22  N   UNL     1       9.491  11.023  21.404  0.00  0.00    +0.000 N 
ATOM     23  C   UNL     1       9.598  10.865  20.064  0.00  0.00    +0.000 C 
ATOM     24  O   UNL     1      10.190  11.678  19.373  0.00  0.00    +0.000 OA
ATOM     25  N   UNL     1       8.946   9.765  19.607  0.00  0.00    +0.000 N 
ATOM     26  H   UNL     1      10.037  11.790  21.777  0.00  0.00    +0.000 HD
ATOM     27  H   UNL     1       9.414  10.210  21.994  0.00  0.00    +0.000 HD
ATOM     28  H   UNL     1       8.596   9.086  20.261  0.00  0.00    +0.000 HD
ENDBRANCH  21  25
ENDBRANCH  16  21
ENDBRANCH   1  18
TORSDOF 4
ENDMDL
MODEL 6
REMARK VINA RESULT:      -7.3      5.265      8.997
REMARK  Name = 
REMARK  4 active torsions:
REMARK  status: ('A' for Active; 'I' for Inactive)
REMARK    1  A    between atoms: N_4  and  C_5
REMARK    2  A    between atoms: C_5  and  C_6
REMARK    3  A    between atoms: N_8  and  C_9
REMARK    4  A    between atoms: C_13  and  C_15
REMARK                            x       y       z     vdW  Elec       q    Type
REMARK                         _______ _______ _______ _____ _____    ______ ____
ROOT
ATOM      1  C   UNL     1       0.609  10.509  19.006  0.00  0.00    +0.000 C 
ATOM      2  C   UNL     1       0.345   9.668  20.268  0.00  0.00    +0.000 C 
ATOM      3  C   UNL     1       1.492   8.710  20.608  0.00  0.00    +0.000 C 
ATOM      4  N   UNL     1       1.908   7.938  19.437  0.00  0.00    +0.000 N 
ATOM      5  C   UNL     1       2.145   6.568  19.583  0.00  0.00    +0.000 C 
ATOM      6  O   UNL     1       1.915   5.989  20.650  0.00  0.00    +0.000 OA
ATOM      7  C   UNL     1       2.284   8.760  18.281  0.00  0.00    +0.000 C 
ATOM      8  C   UNL     1       1.103   9.626  17.855  0.00  0.00    +0.000 C 
ENDROOT
BRANCH   5   9
ATOM      9  C   UNL     1       2.642   5.772  18.359  0.00  0.00    +0.000 C 
ATOM     10  C   UNL     1       4.158   5.487  18.430  0.00  0.00    +0.000 C 
ATOM     11  C   UNL     1       4.653   4.316  19.278  0.00  0.00    +0.000 C 
ATOM     12  C   UNL     1       4.525   2.932  18.647  0.00  0.00    +0.000 C 
ATOM     13  C   UNL     1       3.117   2.462  18.318  0.00  0.00    +0.000 C 
ATOM     14  C   UNL     1       2.351   3.382  17.375  0.00  0.00    +0.000 C 
ATOM     15  C   UNL     1       1.723   4.568  18.096  0.00  0.00    +0.000 C 
ENDBRANCH   5   9
BRANCH   1  18
ATOM     16  C   UNL     1       2.680  13.440  18.941  0.00  0.00    +0.000 A 
ATOM     17  C   UNL     1       2.196  12.333  18.276  0.00  0.00    +0.000 A 
ATOM     18  N   UNL     1       1.472  11.665  19.219  0.00  0.00    +0.000 N 
ATOM     19  N   UNL     1       1.573  12.270  20.415  0.00  0.00    +0.000 NA
ATOM     20  N   UNL     1       2.302  13.365  20.256  0.00  0.00    +0.000 NA
BRANCH  16  21
ATOM     21  C   UNL     1       3.447  14.598  18.422  0.00  0.00    +0.000 C 
BRANCH  21  25
ATOM     22  N   UNL     1       6.902  14.269  17.392  0.00  0.00    +0.000 N 
ATOM     23  C   UNL     1       5.840  14.855  17.993  0.00  0.00    +0.000 C 
ATOM     24  O   UNL     1       5.961  15.884  18.637  0.00  0.00    +0.000 OA
ATOM     25  N   UNL     1       4.689  14.151  17.836  0.00  0.00    +0.000 N 
ATOM     26  H   UNL     1       7.753  14.818  17.425  0.00  0.00    +0.000 HD
ATOM     27  H   UNL     1       6.761  13.728  16.554  0.00  0.00    +0.000 HD
ATOM     28  H   UNL     1       4.657  13.387  17.183  0.00  0.00    +0.000 HD
ENDBRANCH  21  25
ENDBRANCH  16  21
ENDBRANCH   1  18
TORSDOF 4
ENDMDL
MODEL 7
REMARK VINA RESULT:      -7.2      4.015      6.479
REMARK  Name = 
REMARK  4 active torsions:
REMARK  status: ('A' for Active; 'I' for Inactive)
REMARK    1  A    between atoms: N_4  and  C_5
REMARK    2  A    between atoms: C_5  and  C_6
REMARK    3  A    between atoms: N_8  and  C_9
REMARK    4  A    between atoms: C_13  and  C_15
REMARK                            x       y       z     vdW  Elec       q    Type
REMARK                         _______ _______ _______ _____ _____    ______ ____
ROOT
ATOM      1  C   UNL     1       6.710   4.754  17.936  0.00  0.00    +0.000 C 
ATOM      2  C   UNL     1       6.249   4.143  16.600  0.00  0.00    +0.000 C 
ATOM      3  C   UNL     1       4.804   4.500  16.238  0.00  0.00    +0.000 C 
ATOM      4  N   UNL     1       3.897   4.262  17.361  0.00  0.00    +0.000 N 
ATOM      5  C   UNL     1       2.673   3.633  17.117  0.00  0.00    +0.000 C 
ATOM      6  O   UNL     1       2.393   3.191  15.997  0.00  0.00    +0.000 OA
ATOM      7  C   UNL     1       4.278   4.958  18.595  0.00  0.00    +0.000 C 
ATOM      8  C   UNL     1       5.668   4.512  19.034  0.00  0.00    +0.000 C 
ENDROOT
BRANCH   5   9
ATOM      9  C   UNL     1       1.696   3.439  18.295  0.00  0.00    +0.000 C 
ATOM     10  C   UNL     1       1.969   2.129  19.064  0.00  0.00    +0.000 C 
ATOM     11  C   UNL     1       3.087   2.100  20.105  0.00  0.00    +0.000 C 
ATOM     12  C   UNL     1       2.751   2.708  21.464  0.00  0.00    +0.000 C 
ATOM     13  C   UNL     1       2.395   4.187  21.478  0.00  0.00    +0.000 C 
ATOM     14  C   UNL     1       1.212   4.557  20.593  0.00  0.00    +0.000 C 
ATOM     15  C   UNL     1       1.606   4.726  19.131  0.00  0.00    +0.000 C 
ENDBRANCH   5   9
BRANCH   1  18
ATOM     16  C   UNL     1       8.088   8.060  18.160  0.00  0.00    +0.000 A 
ATOM     17  C   UNL     1       7.821   6.859  18.781  0.00  0.00    +0.000 A 
ATOM     18  N   UNL     1       7.106   6.154  17.857  0.00  0.00    +0.000 N 
ATOM     19  N   UNL     1       6.870   6.902  16.766  0.00  0.00    +0.000 NA
ATOM     20  N   UNL     1       7.475   8.069  16.934  0.00  0.00    +0.000 NA
BRANCH  16  21
ATOM     21  C   UNL     1       8.920   9.200  18.616  0.00  0.00    +0.000 C 
BRANCH  21  25
ATOM     22  N   UNL     1       8.646  12.595  17.390  0.00  0.00    +0.000 N 
ATOM     23  C   UNL     1       9.214  11.560  18.052  0.00  0.00    +0.000 C 
ATOM     24  O   UNL     1      10.302  11.671  18.592  0.00  0.00    +0.000 OA
ATOM     25  N   UNL     1       8.474  10.424  17.991  0.00  0.00    +0.000 N 
ATOM     26  H   UNL     1       9.139  13.474  17.491  0.00  0.00    +0.000 HD
ATOM     27  H   UNL     1       7.641  12.658  17.338  0.00  0.00    +0.000 HD
ATOM     28  H   UNL     1       7.533  10.459  17.637  0.00  0.00    +0.000 HD
ENDBRANCH  21  25
ENDBRANCH  16  21
ENDBRANCH   1  18
TORSDOF 4
ENDMDL
MODEL 8
REMARK VINA RESULT:      -7.1      5.204     10.057
REMARK  Name = 
REMARK  4 active torsions:
REMARK  status: ('A' for Active; 'I' for Inactive)
REMARK    1  A    between atoms: N_4  and  C_5
REMARK    2  A    between atoms: C_5  and  C_6
REMARK    3  A    between atoms: N_8  and  C_9
REMARK    4  A    between atoms: C_13  and  C_15
REMARK                            x       y       z     vdW  Elec       q    Type
REMARK                         _______ _______ _______ _____ _____    ______ ____
ROOT
ATOM      1  C   UNL     1      -0.006  10.323  19.780  0.00  0.00    +0.000 C 
ATOM      2  C   UNL     1       0.012   9.305  20.935  0.00  0.00    +0.000 C 
ATOM      3  C   UNL     1       1.314   8.501  21.013  0.00  0.00    +0.000 C 
ATOM      4  N   UNL     1       1.680   7.949  19.708  0.00  0.00    +0.000 N 
ATOM      5  C   UNL     1       2.121   6.625  19.637  0.00  0.00    +0.000 C 
ATOM      6  O   UNL     1       2.111   5.893  20.633  0.00  0.00    +0.000 OA
ATOM      7  C   UNL     1       1.787   8.952  18.643  0.00  0.00    +0.000 C 
ATOM      8  C   UNL     1       0.454   9.672  18.472  0.00  0.00    +0.000 C 
ENDROOT
BRANCH   5   9
ATOM      9  C   UNL     1       2.562   6.068  18.268  0.00  0.00    +0.000 C 
ATOM     10  C   UNL     1       4.080   6.230  18.039  0.00  0.00    +0.000 C 
ATOM     11  C   UNL     1       5.036   5.211  18.660  0.00  0.00    +0.000 C 
ATOM     12  C   UNL     1       5.169   3.882  17.920  0.00  0.00    +0.000 C 
ATOM     13  C   UNL     1       3.907   3.043  17.799  0.00  0.00    +0.000 C 
ATOM     14  C   UNL     1       2.747   3.747  17.107  0.00  0.00    +0.000 C 
ATOM     15  C   UNL     1       1.975   4.664  18.049  0.00  0.00    +0.000 C 
ENDBRANCH   5   9
BRANCH   1  18
ATOM     16  C   UNL     1       1.517  13.569  19.944  0.00  0.00    +0.000 A 
ATOM     17  C   UNL     1       1.018  12.548  19.163  0.00  0.00    +0.000 A 
ATOM     18  N   UNL     1       0.709  11.564  20.055  0.00  0.00    +0.000 N 
ATOM     19  N   UNL     1       1.073  11.916  21.300  0.00  0.00    +0.000 NA
ATOM     20  N   UNL     1       1.561  13.147  21.247  0.00  0.00    +0.000 NA
BRANCH  16  21
ATOM     21  C   UNL     1       1.923  14.943  19.562  0.00  0.00    +0.000 C 
BRANCH  21  25
ATOM     22  N   UNL     1      -0.946  16.798  18.362  0.00  0.00    +0.000 N 
ATOM     23  C   UNL     1      -0.100  16.288  19.288  0.00  0.00    +0.000 C 
ATOM     24  O   UNL     1      -0.239  16.527  20.477  0.00  0.00    +0.000 OA
ATOM     25  N   UNL     1       0.903  15.554  18.742  0.00  0.00    +0.000 N 
ATOM     26  H   UNL     1      -1.748  17.279  18.752  0.00  0.00    +0.000 HD
ATOM     27  H   UNL     1      -1.110  16.289  17.508  0.00  0.00    +0.000 HD
ATOM     28  H   UNL     1       0.864  15.303  17.769  0.00  0.00    +0.000 HD
ENDBRANCH  21  25
ENDBRANCH  16  21
ENDBRANCH   1  18
TORSDOF 4
ENDMDL
MODEL 9
REMARK VINA RESULT:      -7.1      5.322      9.856
REMARK  Name = 
REMARK  4 active torsions:
REMARK  status: ('A' for Active; 'I' for Inactive)
REMARK    1  A    between atoms: N_4  and  C_5
REMARK    2  A    between atoms: C_5  and  C_6
REMARK    3  A    between atoms: N_8  and  C_9
REMARK    4  A    between atoms: C_13  and  C_15
REMARK                            x       y       z     vdW  Elec       q    Type
REMARK                         _______ _______ _______ _____ _____    ______ ____
ROOT
ATOM      1  C   UNL     1       0.419  10.051  19.448  0.00  0.00    +0.000 C 
ATOM      2  C   UNL     1       0.184   9.121  20.653  0.00  0.00    +0.000 C 
ATOM      3  C   UNL     1       1.393   8.237  20.979  0.00  0.00    +0.000 C 
ATOM      4  N   UNL     1       1.904   7.567  19.783  0.00  0.00    +0.000 N 
ATOM      5  C   UNL     1       2.244   6.214  19.863  0.00  0.00    +0.000 C 
ATOM      6  O   UNL     1       2.028   5.560  20.889  0.00  0.00    +0.000 OA
ATOM      7  C   UNL     1       2.247   8.480  18.687  0.00  0.00    +0.000 C 
ATOM      8  C   UNL     1       1.015   9.275  18.269  0.00  0.00    +0.000 C 
ENDROOT
BRANCH   5   9
ATOM      9  C   UNL     1       2.838   5.529  18.616  0.00  0.00    +0.000 C 
ATOM     10  C   UNL     1       4.184   4.837  18.921  0.00  0.00    +0.000 C 
ATOM     11  C   UNL     1       4.174   3.451  19.565  0.00  0.00    +0.000 C 
ATOM     12  C   UNL     1       3.900   2.279  18.627  0.00  0.00    +0.000 C 
ATOM     13  C   UNL     1       2.551   2.270  17.926  0.00  0.00    +0.000 C 
ATOM     14  C   UNL     1       2.272   3.506  17.081  0.00  0.00    +0.000 C 
ATOM     15  C   UNL     1       1.767   4.680  17.911  0.00  0.00    +0.000 C 
ENDBRANCH   5   9
BRANCH   1  18
ATOM     16  C   UNL     1       2.212  13.155  19.621  0.00  0.00    +0.000 A 
ATOM     17  C   UNL     1       1.804  12.079  18.861  0.00  0.00    +0.000 A 
ATOM     18  N   UNL     1       1.181  11.256  19.752  0.00  0.00    +0.000 N 
ATOM     19  N   UNL     1       1.272  11.746  21.000  0.00  0.00    +0.000 NA
ATOM     20  N   UNL     1       1.893  12.915  20.933  0.00  0.00    +0.000 NA
BRANCH  16  21
ATOM     21  C   UNL     1       2.849  14.426  19.201  0.00  0.00    +0.000 C 
BRANCH  21  25
ATOM     22  N   UNL     1       0.598  17.258  19.351  0.00  0.00    +0.000 N 
ATOM     23  C   UNL     1       1.553  16.411  19.800  0.00  0.00    +0.000 C 
ATOM     24  O   UNL     1       2.105  16.587  20.874  0.00  0.00    +0.000 OA
ATOM     25  N   UNL     1       1.840  15.420  18.918  0.00  0.00    +0.000 N 
ATOM     26  H   UNL     1       0.310  17.956  20.026  0.00  0.00    +0.000 HD
ATOM     27  H   UNL     1      -0.126  16.910  18.742  0.00  0.00    +0.000 HD
ATOM     28  H   UNL     1       1.247  15.278  18.118  0.00  0.00    +0.000 HD
ENDBRANCH  21  25
ENDBRANCH  16  21
ENDBRANCH   1  18
TORSDOF 4
ENDMDL
