MODEL 1
REMARK VINA RESULT:      -7.2      0.000      0.000
REMARK  Name = 
REMARK  4 active torsions:
REMARK  status: ('A' for Active; 'I' for Inactive)
REMARK    1  A    between atoms: C_4  and  C_5
REMARK    2  A    between atoms: C_5  and  O_6
REMARK    3  A    between atoms: O_6  and  N_7
REMARK    4  A    between atoms: C_8  and  C_9
REMARK                            x       y       z     vdW  Elec       q    Type
REMARK                         _______ _______ _______ _____ _____    ______ ____
ROOT
ATOM      1  N   UNL     1       5.069   4.168  18.834  0.00  0.00    +0.000 NA
ATOM      2  C   UNL     1       4.265   4.923  19.490  0.00  0.00    +0.000 C 
ENDROOT
BRANCH   2   3
ATOM      3  C   UNL     1       3.083   4.322  20.197  0.00  0.00    +0.000 C 
ATOM      4  C   UNL     1       3.042   2.782  20.247  0.00  0.00    +0.000 C 
ATOM      5  N   UNL     1       1.672   2.419  19.807  0.00  0.00    +0.000 NA
ATOM      6  C   UNL     1       1.644   2.601  18.338  0.00  0.00    +0.000 C 
ATOM      7  C   UNL     1       1.636   4.122  18.120  0.00  0.00    +0.000 C 
ATOM      8  C   UNL     1       1.723   4.639  19.563  0.00  0.00    +0.000 C 
ATOM      9  C   UNL     1       0.898   3.583  20.248  0.00  0.00    +0.000 C 
ENDBRANCH   2   3
BRANCH   1  10
ATOM     10  O   UNL     1       6.140   4.675  18.260  0.00  0.00    +0.000 OA
BRANCH  10  11
ATOM     11  C   UNL     1       6.030   5.752  17.415  0.00  0.00    +0.000 C 
BRANCH  11  15
ATOM     12 BR   UNL     1       6.202   3.466  12.473  0.00  0.00    +0.000 Br
ATOM     13  C   UNL     1       6.544   4.466  14.059  0.00  0.00    +0.000 A 
ATOM     14  C   UNL     1       5.767   4.489  15.194  0.00  0.00    +0.000 A 
ATOM     15  C   UNL     1       6.433   5.350  16.036  0.00  0.00    +0.000 A 
ATOM     16  O   UNL     1       7.510   5.787  15.425  0.00  0.00    +0.000 OA
ATOM     17  N   UNL     1       7.607   5.273  14.232  0.00  0.00    +0.000 NA
ENDBRANCH  11  15
ENDBRANCH  10  11
ENDBRANCH   1  10
TORSDOF 4
ENDMDL
MODEL 2
REMARK VINA RESULT:      -7.0      1.193      1.350
REMARK  Name = 
REMARK  4 active torsions:
REMARK  status: ('A' for Active; 'I' for Inactive)
REMARK    1  A    between atoms: C_4  and  C_5
REMARK    2  A    between atoms: C_5  and  O_6
REMARK    3  A    between atoms: O_6  and  N_7
REMARK    4  A    between atoms: C_8  and  C_9
REMARK                            x       y       z     vdW  Elec       q    Type
REMARK                         _______ _______ _______ _____ _____    ______ ____
ROOT
ATOM      1  N   UNL     1       3.482   6.096  17.742  0.00  0.00    +0.000 NA
ATOM      2  C   UNL     1       3.483   5.445  18.847  0.00  0.00    +0.000 C 
ENDROOT
BRANCH   2   3
ATOM      3  C   UNL     1       2.286   4.621  19.232  0.00  0.00    +0.000 C 
ATOM      4  C   UNL     1       2.530   3.547  20.311  0.00  0.00    +0.000 C 
ATOM      5  N   UNL     1       1.932   2.306  19.761  0.00  0.00    +0.000 NA
ATOM      6  C   UNL     1       2.872   1.811  18.729  0.00  0.00    +0.000 C 
ATOM      7  C   UNL     1       2.712   2.774  17.542  0.00  0.00    +0.000 C 
ATOM      8  C   UNL     1       1.691   3.778  18.096  0.00  0.00    +0.000 C 
ATOM      9  C   UNL     1       0.853   2.839  18.923  0.00  0.00    +0.000 C 
ENDBRANCH   2   3
BRANCH   1  10
ATOM     10  O   UNL     1       4.547   6.774  17.367  0.00  0.00    +0.000 OA
BRANCH  10  11
ATOM     11  C   UNL     1       5.801   6.239  17.525  0.00  0.00    +0.000 C 
BRANCH  11  15
ATOM     12 BR   UNL     1       6.138   3.584  12.781  0.00  0.00    +0.000 Br
ATOM     13  C   UNL     1       6.458   4.647  14.329  0.00  0.00    +0.000 A 
ATOM     14  C   UNL     1       5.584   4.858  15.371  0.00  0.00    +0.000 A 
ATOM     15  C   UNL     1       6.277   5.684  16.224  0.00  0.00    +0.000 A 
ATOM     16  O   UNL     1       7.459   5.928  15.707  0.00  0.00    +0.000 OA
ATOM     17  N   UNL     1       7.601   5.317  14.566  0.00  0.00    +0.000 NA
ENDBRANCH  11  15
ENDBRANCH  10  11
ENDBRANCH   1  10
TORSDOF 4
ENDMDL
MODEL 3
REMARK VINA RESULT:      -7.0      0.837      1.125
REMARK  Name = 
REMARK  4 active torsions:
REMARK  status: ('A' for Active; 'I' for Inactive)
REMARK    1  A    between atoms: C_4  and  C_5
REMARK    2  A    between atoms: C_5  and  O_6
REMARK    3  A    between atoms: O_6  and  N_7
REMARK    4  A    between atoms: C_8  and  C_9
REMARK                            x       y       z     vdW  Elec       q    Type
REMARK                         _______ _______ _______ _____ _____    ______ ____
ROOT
ATOM      1  N   UNL     1       5.630   4.575  19.209  0.00  0.00    +0.000 NA
ATOM      2  C   UNL     1       4.353   4.574  19.335  0.00  0.00    +0.000 C 
ENDROOT
BRANCH   2   3
ATOM      3  C   UNL     1       3.674   3.453  20.072  0.00  0.00    +0.000 C 
ATOM      4  C   UNL     1       2.852   2.480  19.204  0.00  0.00    +0.000 C 
ATOM      5  N   UNL     1       1.543   2.363  19.892  0.00  0.00    +0.000 NA
ATOM      6  C   UNL     1       0.804   3.613  19.597  0.00  0.00    +0.000 C 
ATOM      7  C   UNL     1       1.491   4.697  20.442  0.00  0.00    +0.000 C 
ATOM      8  C   UNL     1       2.626   3.900  21.100  0.00  0.00    +0.000 C 
ATOM      9  C   UNL     1       1.918   2.585  21.291  0.00  0.00    +0.000 C 
ENDBRANCH   2   3
BRANCH   1  10
ATOM     10  O   UNL     1       6.240   5.580  18.616  0.00  0.00    +0.000 OA
BRANCH  10  11
ATOM     11  C   UNL     1       5.651   6.220  17.554  0.00  0.00    +0.000 C 
BRANCH  11  15
ATOM     12 BR   UNL     1       6.296   3.616  12.812  0.00  0.00    +0.000 Br
ATOM     13  C   UNL     1       6.512   4.669  14.386  0.00  0.00    +0.000 A 
ATOM     14  C   UNL     1       5.578   4.856  15.378  0.00  0.00    +0.000 A 
ATOM     15  C   UNL     1       6.208   5.685  16.276  0.00  0.00    +0.000 A 
ATOM     16  O   UNL     1       7.413   5.953  15.828  0.00  0.00    +0.000 OA
ATOM     17  N   UNL     1       7.628   5.356  14.691  0.00  0.00    +0.000 NA
ENDBRANCH  11  15
ENDBRANCH  10  11
ENDBRANCH   1  10
TORSDOF 4
ENDMDL
MODEL 4
REMARK VINA RESULT:      -7.0      1.027      1.487
REMARK  Name = 
REMARK  4 active torsions:
REMARK  status: ('A' for Active; 'I' for Inactive)
REMARK    1  A    between atoms: C_4  and  C_5
REMARK    2  A    between atoms: C_5  and  O_6
REMARK    3  A    between atoms: O_6  and  N_7
REMARK    4  A    between atoms: C_8  and  C_9
REMARK                            x       y       z     vdW  Elec       q    Type
REMARK                         _______ _______ _______ _____ _____    ______ ____
ROOT
ATOM      1  N   UNL     1       4.166   5.510  18.594  0.00  0.00    +0.000 NA
ATOM      2  C   UNL     1       2.994   5.204  18.170  0.00  0.00    +0.000 C 
ENDROOT
BRANCH   2   3
ATOM      3  C   UNL     1       1.932   4.779  19.145  0.00  0.00    +0.000 C 
ATOM      4  C   UNL     1       2.290   4.930  20.637  0.00  0.00    +0.000 C 
ATOM      5  N   UNL     1       1.939   3.626  21.251  0.00  0.00    +0.000 NA
ATOM      6  C   UNL     1       3.005   2.678  20.854  0.00  0.00    +0.000 C 
ATOM      7  C   UNL     1       2.753   2.386  19.367  0.00  0.00    +0.000 C 
ATOM      8  C   UNL     1       1.550   3.294  19.076  0.00  0.00    +0.000 C 
ATOM      9  C   UNL     1       0.835   3.179  20.395  0.00  0.00    +0.000 C 
ENDBRANCH   2   3
BRANCH   1  10
ATOM     10  O   UNL     1       5.086   5.940  17.757  0.00  0.00    +0.000 OA
BRANCH  10  11
ATOM     11  C   UNL     1       6.275   5.267  17.627  0.00  0.00    +0.000 C 
BRANCH  11  15
ATOM     12 BR   UNL     1       6.177   3.497  12.475  0.00  0.00    +0.000 Br
ATOM     13  C   UNL     1       6.572   4.376  14.120  0.00  0.00    +0.000 A 
ATOM     14  C   UNL     1       5.921   4.197  15.319  0.00  0.00    +0.000 A 
ATOM     15  C   UNL     1       6.572   5.048  16.181  0.00  0.00    +0.000 A 
ATOM     16  O   UNL     1       7.524   5.668  15.522  0.00  0.00    +0.000 OA
ATOM     17  N   UNL     1       7.551   5.285  14.277  0.00  0.00    +0.000 NA
ENDBRANCH  11  15
ENDBRANCH  10  11
ENDBRANCH   1  10
TORSDOF 4
ENDMDL
MODEL 5
REMARK VINA RESULT:      -6.8      1.150      1.221
REMARK  Name = 
REMARK  4 active torsions:
REMARK  status: ('A' for Active; 'I' for Inactive)
REMARK    1  A    between atoms: C_4  and  C_5
REMARK    2  A    between atoms: C_5  and  O_6
REMARK    3  A    between atoms: O_6  and  N_7
REMARK    4  A    between atoms: C_8  and  C_9
REMARK                            x       y       z     vdW  Elec       q    Type
REMARK                         _______ _______ _______ _____ _____    ______ ____
ROOT
ATOM      1  N   UNL     1       5.646   4.495  19.108  0.00  0.00    +0.000 NA
ATOM      2  C   UNL     1       4.576   5.181  19.283  0.00  0.00    +0.000 C 
ENDROOT
BRANCH   2   3
ATOM      3  C   UNL     1       3.274   4.482  19.559  0.00  0.00    +0.000 C 
ATOM      4  C   UNL     1       3.385   3.020  20.038  0.00  0.00    +0.000 C 
ATOM      5  N   UNL     1       2.438   2.263  19.183  0.00  0.00    +0.000 NA
ATOM      6  C   UNL     1       3.090   2.121  17.861  0.00  0.00    +0.000 C 
ATOM      7  C   UNL     1       3.018   3.518  17.224  0.00  0.00    +0.000 C 
ATOM      8  C   UNL     1       2.352   4.332  18.342  0.00  0.00    +0.000 C 
ATOM      9  C   UNL     1       1.423   3.280  18.886  0.00  0.00    +0.000 C 
ENDBRANCH   2   3
BRANCH   1  10
ATOM     10  O   UNL     1       6.801   5.097  18.924  0.00  0.00    +0.000 OA
BRANCH  10  11
ATOM     11  C   UNL     1       7.665   4.661  17.950  0.00  0.00    +0.000 C 
BRANCH  11  15
ATOM     12 BR   UNL     1       5.467   3.806  13.039  0.00  0.00    +0.000 Br
ATOM     13  C   UNL     1       6.158   4.557  14.648  0.00  0.00    +0.000 A 
ATOM     14  C   UNL     1       6.693   3.864  15.709  0.00  0.00    +0.000 A 
ATOM     15  C   UNL     1       7.040   4.846  16.607  0.00  0.00    +0.000 A 
ATOM     16  O   UNL     1       6.726   6.014  16.096  0.00  0.00    +0.000 OA
ATOM     17  N   UNL     1       6.193   5.875  14.915  0.00  0.00    +0.000 NA
ENDBRANCH  11  15
ENDBRANCH  10  11
ENDBRANCH   1  10
TORSDOF 4
ENDMDL
MODEL 6
REMARK VINA RESULT:      -6.7      1.129      1.246
REMARK  Name = 
REMARK  4 active torsions:
REMARK  status: ('A' for Active; 'I' for Inactive)
REMARK    1  A    between atoms: C_4  and  C_5
REMARK    2  A    between atoms: C_5  and  O_6
REMARK    3  A    between atoms: O_6  and  N_7
REMARK    4  A    between atoms: C_8  and  C_9
REMARK                            x       y       z     vdW  Elec       q    Type
REMARK                         _______ _______ _______ _____ _____    ______ ____
ROOT
ATOM      1  N   UNL     1       5.457   4.368  19.449  0.00  0.00    +0.000 NA
ATOM      2  C   UNL     1       4.721   3.335  19.263  0.00  0.00    +0.000 C 
ENDROOT
BRANCH   2   3
ATOM      3  C   UNL     1       3.331   3.292  19.835  0.00  0.00    +0.000 C 
ATOM      4  C   UNL     1       2.345   2.339  19.131  0.00  0.00    +0.000 C 
ATOM      5  N   UNL     1       1.125   3.151  18.898  0.00  0.00    +0.000 NA
ATOM      6  C   UNL     1       1.432   4.045  17.759  0.00  0.00    +0.000 C 
ATOM      7  C   UNL     1       2.393   5.103  18.323  0.00  0.00    +0.000 C 
ATOM      8  C   UNL     1       2.566   4.620  19.770  0.00  0.00    +0.000 C 
ATOM      9  C   UNL     1       1.177   4.096  20.017  0.00  0.00    +0.000 C 
ENDBRANCH   2   3
BRANCH   1  10
ATOM     10  O   UNL     1       6.653   4.441  18.903  0.00  0.00    +0.000 OA
BRANCH  10  11
ATOM     11  C   UNL     1       7.044   5.575  18.236  0.00  0.00    +0.000 C 
BRANCH  11  15
ATOM     12 BR   UNL     1       6.112   3.766  13.182  0.00  0.00    +0.000 Br
ATOM     13  C   UNL     1       6.258   4.799  14.777  0.00  0.00    +0.000 A 
ATOM     14  C   UNL     1       6.763   4.372  15.984  0.00  0.00    +0.000 A 
ATOM     15  C   UNL     1       6.649   5.473  16.800  0.00  0.00    +0.000 A 
ATOM     16  O   UNL     1       6.116   6.455  16.111  0.00  0.00    +0.000 OA
ATOM     17  N   UNL     1       5.869   6.082  14.888  0.00  0.00    +0.000 NA
ENDBRANCH  11  15
ENDBRANCH  10  11
ENDBRANCH   1  10
TORSDOF 4
ENDMDL
MODEL 7
REMARK VINA RESULT:      -6.7      1.305      1.889
REMARK  Name = 
REMARK  4 active torsions:
REMARK  status: ('A' for Active; 'I' for Inactive)
REMARK    1  A    between atoms: C_4  and  C_5
REMARK    2  A    between atoms: C_5  and  O_6
REMARK    3  A    between atoms: O_6  and  N_7
REMARK    4  A    between atoms: C_8  and  C_9
REMARK                            x       y       z     vdW  Elec       q    Type
REMARK                         _______ _______ _______ _____ _____    ______ ____
ROOT
ATOM      1  N   UNL     1       5.119   4.498  19.061  0.00  0.00    +0.000 NA
ATOM      2  C   UNL     1       4.588   3.338  18.930  0.00  0.00    +0.000 C 
ENDROOT
BRANCH   2   3
ATOM      3  C   UNL     1       3.102   3.210  18.745  0.00  0.00    +0.000 C 
ATOM      4  C   UNL     1       2.300   4.524  18.828  0.00  0.00    +0.000 C 
ATOM      5  N   UNL     1       1.182   4.235  19.759  0.00  0.00    +0.000 NA
ATOM      6  C   UNL     1       1.763   4.236  21.121  0.00  0.00    +0.000 C 
ATOM      7  C   UNL     1       2.576   2.935  21.214  0.00  0.00    +0.000 C 
ATOM      8  C   UNL     1       2.392   2.356  19.804  0.00  0.00    +0.000 C 
ATOM      9  C   UNL     1       0.977   2.799  19.544  0.00  0.00    +0.000 C 
ENDBRANCH   2   3
BRANCH   1  10
ATOM     10  O   UNL     1       6.425   4.626  19.164  0.00  0.00    +0.000 OA
BRANCH  10  11
ATOM     11  C   UNL     1       7.087   5.594  18.450  0.00  0.00    +0.000 C 
BRANCH  11  15
ATOM     12 BR   UNL     1       6.233   3.866  13.355  0.00  0.00    +0.000 Br
ATOM     13  C   UNL     1       6.337   4.867  14.973  0.00  0.00    +0.000 A 
ATOM     14  C   UNL     1       6.857   4.433  16.171  0.00  0.00    +0.000 A 
ATOM     15  C   UNL     1       6.698   5.509  17.012  0.00  0.00    +0.000 A 
ATOM     16  O   UNL     1       6.129   6.486  16.344  0.00  0.00    +0.000 OA
ATOM     17  N   UNL     1       5.898   6.131  15.112  0.00  0.00    +0.000 NA
ENDBRANCH  11  15
ENDBRANCH  10  11
ENDBRANCH   1  10
TORSDOF 4
ENDMDL
MODEL 8
REMARK VINA RESULT:      -6.6      0.962      1.694
REMARK  Name = 
REMARK  4 active torsions:
REMARK  status: ('A' for Active; 'I' for Inactive)
REMARK    1  A    between atoms: C_4  and  C_5
REMARK    2  A    between atoms: C_5  and  O_6
REMARK    3  A    between atoms: O_6  and  N_7
REMARK    4  A    between atoms: C_8  and  C_9
REMARK                            x       y       z     vdW  Elec       q    Type
REMARK                         _______ _______ _______ _____ _____    ______ ____
ROOT
ATOM      1  N   UNL     1       4.629   4.072  18.684  0.00  0.00    +0.000 NA
ATOM      2  C   UNL     1       3.639   3.671  17.973  0.00  0.00    +0.000 C 
ENDROOT
BRANCH   2   3
ATOM      3  C   UNL     1       2.249   3.693  18.543  0.00  0.00    +0.000 C 
ATOM      4  C   UNL     1       1.865   4.963  19.327  0.00  0.00    +0.000 C 
ATOM      5  N   UNL     1       1.281   4.469  20.598  0.00  0.00    +0.000 NA
ATOM      6  C   UNL     1       2.418   4.020  21.433  0.00  0.00    +0.000 C 
ATOM      7  C   UNL     1       2.896   2.708  20.793  0.00  0.00    +0.000 C 
ATOM      8  C   UNL     1       1.961   2.600  19.580  0.00  0.00    +0.000 C 
ATOM      9  C   UNL     1       0.712   3.182  20.186  0.00  0.00    +0.000 C 
ENDBRANCH   2   3
BRANCH   1  10
ATOM     10  O   UNL     1       5.842   4.113  18.175  0.00  0.00    +0.000 OA
BRANCH  10  11
ATOM     11  C   UNL     1       6.341   5.285  17.661  0.00  0.00    +0.000 C 
BRANCH  11  15
ATOM     12 BR   UNL     1       6.275   3.642  12.468  0.00  0.00    +0.000 Br
ATOM     13  C   UNL     1       6.653   4.487  14.133  0.00  0.00    +0.000 A 
ATOM     14  C   UNL     1       6.006   4.266  15.327  0.00  0.00    +0.000 A 
ATOM     15  C   UNL     1       6.641   5.108  16.210  0.00  0.00    +0.000 A 
ATOM     16  O   UNL     1       7.580   5.763  15.567  0.00  0.00    +0.000 OA
ATOM     17  N   UNL     1       7.615   5.411  14.313  0.00  0.00    +0.000 NA
ENDBRANCH  11  15
ENDBRANCH  10  11
ENDBRANCH   1  10
TORSDOF 4
ENDMDL
MODEL 9
REMARK VINA RESULT:      -6.5      1.006      1.598
REMARK  Name = 
REMARK  4 active torsions:
REMARK  status: ('A' for Active; 'I' for Inactive)
REMARK    1  A    between atoms: C_4  and  C_5
REMARK    2  A    between atoms: C_5  and  O_6
REMARK    3  A    between atoms: O_6  and  N_7
REMARK    4  A    between atoms: C_8  and  C_9
REMARK                            x       y       z     vdW  Elec       q    Type
REMARK                         _______ _______ _______ _____ _____    ______ ____
ROOT
ATOM      1  N   UNL     1       4.874   4.409  17.901  0.00  0.00    +0.000 NA
ATOM      2  C   UNL     1       3.606   4.480  18.082  0.00  0.00    +0.000 C 
ENDROOT
BRANCH   2   3
ATOM      3  C   UNL     1       2.872   3.328  18.710  0.00  0.00    +0.000 C 
ATOM      4  C   UNL     1       1.348   3.297  18.481  0.00  0.00    +0.000 C 
ATOM      5  N   UNL     1       0.761   3.079  19.825  0.00  0.00    +0.000 NA
ATOM      6  C   UNL     1       0.860   4.373  20.539  0.00  0.00    +0.000 C 
ATOM      7  C   UNL     1       2.348   4.531  20.884  0.00  0.00    +0.000 C 
ATOM      8  C   UNL     1       2.948   3.272  20.241  0.00  0.00    +0.000 C 
ATOM      9  C   UNL     1       1.817   2.311  20.492  0.00  0.00    +0.000 C 
ENDBRANCH   2   3
BRANCH   1  10
ATOM     10  O   UNL     1       5.535   5.434  17.406  0.00  0.00    +0.000 OA
BRANCH  10  11
ATOM     11  C   UNL     1       6.833   5.284  16.985  0.00  0.00    +0.000 C 
BRANCH  11  15
ATOM     12 BR   UNL     1       5.743   3.187  12.077  0.00  0.00    +0.000 Br
ATOM     13  C   UNL     1       6.456   4.156  13.555  0.00  0.00    +0.000 A 
ATOM     14  C   UNL     1       6.033   4.081  14.862  0.00  0.00    +0.000 A 
ATOM     15  C   UNL     1       6.853   4.961  15.528  0.00  0.00    +0.000 A 
ATOM     16  O   UNL     1       7.683   5.500  14.665  0.00  0.00    +0.000 OA
ATOM     17  N   UNL     1       7.470   5.036  13.467  0.00  0.00    +0.000 NA
ENDBRANCH  11  15
ENDBRANCH  10  11
ENDBRANCH   1  10
TORSDOF 4
ENDMDL
