MODEL 1
REMARK VINA RESULT:      -7.2      0.000      0.000
REMARK  Name = 
REMARK  7 active torsions:
REMARK  status: ('A' for Active; 'I' for Inactive)
REMARK    1  A    between atoms: N_1  and  C_2
REMARK    2  A    between atoms: C_2  and  C_4
REMARK    3  A    between atoms: C_5  and  N_6
REMARK    4  A    between atoms: N_7  and  C_8
REMARK    5  A    between atoms: C_8  and  O_9
REMARK    6  A    between atoms: O_9  and  C_10
REMARK    7  A    between atoms: C_10  and  C_11
REMARK                            x       y       z     vdW  Elec       q    Type
REMARK                         _______ _______ _______ _____ _____    ______ ____
ROOT
ATOM      1  C   UNL     1       2.336   3.824  19.167  0.00  0.00    +0.000 A 
ATOM      2  C   UNL     1       2.992   3.147  18.142  0.00  0.00    +0.000 A 
ATOM      3  N   UNL     1       3.525   4.065  17.266  0.00  0.00    +0.000 N 
ATOM      4  C   UNL     1       3.289   5.333  17.743  0.00  0.00    +0.000 A 
ATOM      5  N   UNL     1       3.708   6.468  17.150  0.00  0.00    +0.000 NA
ATOM      6  C   UNL     1       3.357   7.552  17.851  0.00  0.00    +0.000 A 
ATOM      7  N   UNL     1       2.700   7.604  19.020  0.00  0.00    +0.000 NA
ATOM      8  C   UNL     1       2.313   6.448  19.594  0.00  0.00    +0.000 A 
ATOM      9  N   UNL     1       1.693   6.561  20.831  0.00  0.00    +0.000 N 
ATOM     10  C   UNL     1       2.576   5.230  18.935  0.00  0.00    +0.000 A 
ATOM     11  H   UNL     1       1.340   7.500  20.970  0.00  0.00    +0.000 HD
ATOM     12  H   UNL     1       1.042   5.812  21.041  0.00  0.00    +0.000 HD
ENDROOT
BRANCH   2  13
ATOM     13  N   UNL     1       3.121   1.813  17.918  0.00  0.00    +0.000 N 
ATOM     14  H   UNL     1       4.031   1.465  17.623  0.00  0.00    +0.000 HD
ATOM     15  H   UNL     1       2.722   1.188  18.630  0.00  0.00    +0.000 HD
ENDBRANCH   2  13
BRANCH   1  16
ATOM     16  C   UNL     1       1.614   3.148  20.231  0.00  0.00    +0.000 C 
ATOM     17  S   UNL     1       2.356   2.708  21.649  0.00  0.00    +0.000 S 
BRANCH  16  18
ATOM     18  N   UNL     1       0.272   2.972  20.056  0.00  0.00    +0.000 N 
ATOM     19  H   UNL     1      -0.083   2.565  19.201  0.00  0.00    +0.000 HD
ATOM     20  H   UNL     1      -0.377   3.229  20.793  0.00  0.00    +0.000 HD
ENDBRANCH  16  18
ENDBRANCH   1  16
BRANCH   3  21
ATOM     21  C   UNL     1       4.284   3.794  16.048  0.00  0.00    +0.000 C 
BRANCH  21  22
ATOM     22  O   UNL     1       5.618   3.408  16.394  0.00  0.00    +0.000 OA
BRANCH  22  23
ATOM     23  C   UNL     1       6.601   4.264  15.820  0.00  0.00    +0.000 C 
BRANCH  23  24
ATOM     24  C   UNL     1       7.095   5.235  16.868  0.00  0.00    +0.000 A 
ATOM     25  C   UNL     1       7.552   4.792  18.120  0.00  0.00    +0.000 A 
ATOM     26  C   UNL     1       8.036   5.698  19.067  0.00  0.00    +0.000 A 
ATOM     27  C   UNL     1       8.082   7.058  18.771  0.00  0.00    +0.000 A 
ATOM     28  C   UNL     1       7.648   7.512  17.527  0.00  0.00    +0.000 A 
ATOM     29  C   UNL     1       7.161   6.607  16.580  0.00  0.00    +0.000 A 
ENDBRANCH  23  24
ENDBRANCH  22  23
ENDBRANCH  21  22
ENDBRANCH   3  21
TORSDOF 7
ENDMDL
MODEL 2
REMARK VINA RESULT:      -7.1      0.179      1.021
REMARK  Name = 
REMARK  7 active torsions:
REMARK  status: ('A' for Active; 'I' for Inactive)
REMARK    1  A    between atoms: N_1  and  C_2
REMARK    2  A    between atoms: C_2  and  C_4
REMARK    3  A    between atoms: C_5  and  N_6
REMARK    4  A    between atoms: N_7  and  C_8
REMARK    5  A    between atoms: C_8  and  O_9
REMARK    6  A    between atoms: O_9  and  C_10
REMARK    7  A    between atoms: C_10  and  C_11
REMARK                            x       y       z     vdW  Elec       q    Type
REMARK                         _______ _______ _______ _____ _____    ______ ____
ROOT
ATOM      1  C   UNL     1       2.363   3.933  19.117  0.00  0.00    +0.000 A 
ATOM      2  C   UNL     1       3.056   3.329  18.070  0.00  0.00    +0.000 A 
ATOM      3  N   UNL     1       3.562   4.307  17.244  0.00  0.00    +0.000 N 
ATOM      4  C   UNL     1       3.271   5.541  17.775  0.00  0.00    +0.000 A 
ATOM      5  N   UNL     1       3.651   6.718  17.239  0.00  0.00    +0.000 NA
ATOM      6  C   UNL     1       3.250   7.754  17.985  0.00  0.00    +0.000 A 
ATOM      7  N   UNL     1       2.578   7.727  19.146  0.00  0.00    +0.000 NA
ATOM      8  C   UNL     1       2.231   6.532  19.662  0.00  0.00    +0.000 A 
ATOM      9  N   UNL     1       1.594   6.564  20.895  0.00  0.00    +0.000 N 
ATOM     10  C   UNL     1       2.549   5.356  18.952  0.00  0.00    +0.000 A 
ATOM     11  H   UNL     1       1.202   7.480  21.072  0.00  0.00    +0.000 HD
ATOM     12  H   UNL     1       0.971   5.781  21.063  0.00  0.00    +0.000 HD
ENDROOT
BRANCH   2  13
ATOM     13  N   UNL     1       3.240   2.014  17.789  0.00  0.00    +0.000 N 
ATOM     14  H   UNL     1       3.434   1.382  18.564  0.00  0.00    +0.000 HD
ATOM     15  H   UNL     1       2.561   1.582  17.149  0.00  0.00    +0.000 HD
ENDBRANCH   2  13
BRANCH   1  16
ATOM     16  C   UNL     1       1.656   3.181  20.140  0.00  0.00    +0.000 C 
ATOM     17  S   UNL     1       2.357   2.820  21.600  0.00  0.00    +0.000 S 
BRANCH  16  18
ATOM     18  N   UNL     1       0.353   2.863  19.888  0.00  0.00    +0.000 N 
ATOM     19  H   UNL     1       0.121   2.016  19.388  0.00  0.00    +0.000 HD
ATOM     20  H   UNL     1      -0.393   3.466  20.221  0.00  0.00    +0.000 HD
ENDBRANCH  16  18
ENDBRANCH   1  16
BRANCH   3  21
ATOM     21  C   UNL     1       4.344   4.122  16.025  0.00  0.00    +0.000 C 
BRANCH  21  22
ATOM     22  O   UNL     1       5.572   3.459  16.343  0.00  0.00    +0.000 OA
BRANCH  22  23
ATOM     23  C   UNL     1       6.710   4.139  15.822  0.00  0.00    +0.000 C 
BRANCH  23  24
ATOM     24  C   UNL     1       7.189   5.162  16.827  0.00  0.00    +0.000 A 
ATOM     25  C   UNL     1       7.164   6.537  16.541  0.00  0.00    +0.000 A 
ATOM     26  C   UNL     1       7.580   7.473  17.491  0.00  0.00    +0.000 A 
ATOM     27  C   UNL     1       8.013   7.050  18.744  0.00  0.00    +0.000 A 
ATOM     28  C   UNL     1       8.029   5.690  19.050  0.00  0.00    +0.000 A 
ATOM     29  C   UNL     1       7.616   4.752  18.099  0.00  0.00    +0.000 A 
ENDBRANCH  23  24
ENDBRANCH  22  23
ENDBRANCH  21  22
ENDBRANCH   3  21
TORSDOF 7
ENDMDL
MODEL 3
REMARK VINA RESULT:      -7.1      3.587      6.439
REMARK  Name = 
REMARK  7 active torsions:
REMARK  status: ('A' for Active; 'I' for Inactive)
REMARK    1  A    between atoms: N_1  and  C_2
REMARK    2  A    between atoms: C_2  and  C_4
REMARK    3  A    between atoms: C_5  and  N_6
REMARK    4  A    between atoms: N_7  and  C_8
REMARK    5  A    between atoms: C_8  and  O_9
REMARK    6  A    between atoms: O_9  and  C_10
REMARK    7  A    between atoms: C_10  and  C_11
REMARK                            x       y       z     vdW  Elec       q    Type
REMARK                         _______ _______ _______ _____ _____    ______ ____
ROOT
ATOM      1  C   UNL     1       4.712   4.821  18.289  0.00  0.00    +0.000 A 
ATOM      2  C   UNL     1       4.211   6.116  18.176  0.00  0.00    +0.000 A 
ATOM      3  N   UNL     1       3.135   6.257  19.024  0.00  0.00    +0.000 N 
ATOM      4  C   UNL     1       2.972   5.097  19.742  0.00  0.00    +0.000 A 
ATOM      5  N   UNL     1       2.034   4.905  20.690  0.00  0.00    +0.000 NA
ATOM      6  C   UNL     1       2.128   3.689  21.242  0.00  0.00    +0.000 A 
ATOM      7  N   UNL     1       3.024   2.727  20.974  0.00  0.00    +0.000 NA
ATOM      8  C   UNL     1       3.960   2.960  20.033  0.00  0.00    +0.000 A 
ATOM      9  N   UNL     1       4.896   1.954  19.845  0.00  0.00    +0.000 N 
ATOM     10  C   UNL     1       3.946   4.186  19.337  0.00  0.00    +0.000 A 
ATOM     11  H   UNL     1       4.554   1.073  20.208  0.00  0.00    +0.000 HD
ATOM     12  H   UNL     1       5.289   1.919  18.910  0.00  0.00    +0.000 HD
ENDROOT
BRANCH   2  13
ATOM     13  N   UNL     1       4.608   7.139  17.376  0.00  0.00    +0.000 N 
ATOM     14  H   UNL     1       4.332   8.084  17.637  0.00  0.00    +0.000 HD
ATOM     15  H   UNL     1       5.591   7.133  17.077  0.00  0.00    +0.000 HD
ENDBRANCH   2  13
BRANCH   1  16
ATOM     16  C   UNL     1       5.816   4.323  17.487  0.00  0.00    +0.000 C 
ATOM     17  S   UNL     1       5.634   3.965  15.877  0.00  0.00    +0.000 S 
BRANCH  16  18
ATOM     18  N   UNL     1       7.038   4.252  18.089  0.00  0.00    +0.000 N 
ATOM     19  H   UNL     1       7.605   3.420  17.997  0.00  0.00    +0.000 HD
ATOM     20  H   UNL     1       7.395   5.043  18.616  0.00  0.00    +0.000 HD
ENDBRANCH  16  18
ENDBRANCH   1  16
BRANCH   3  21
ATOM     21  C   UNL     1       2.307   7.445  19.217  0.00  0.00    +0.000 C 
BRANCH  21  22
ATOM     22  O   UNL     1       1.902   7.955  17.943  0.00  0.00    +0.000 OA
BRANCH  22  23
ATOM     23  C   UNL     1       2.007   9.373  17.864  0.00  0.00    +0.000 C 
BRANCH  23  24
ATOM     24  C   UNL     1       0.759  10.004  18.440  0.00  0.00    +0.000 A 
ATOM     25  C   UNL     1       0.812  10.827  19.577  0.00  0.00    +0.000 A 
ATOM     26  C   UNL     1      -0.345  11.428  20.079  0.00  0.00    +0.000 A 
ATOM     27  C   UNL     1      -1.568  11.226  19.445  0.00  0.00    +0.000 A 
ATOM     28  C   UNL     1      -1.634  10.424  18.307  0.00  0.00    +0.000 A 
ATOM     29  C   UNL     1      -0.478   9.821  17.804  0.00  0.00    +0.000 A 
ENDBRANCH  23  24
ENDBRANCH  22  23
ENDBRANCH  21  22
ENDBRANCH   3  21
TORSDOF 7
ENDMDL
MODEL 4
REMARK VINA RESULT:      -7.1      3.579      6.442
REMARK  Name = 
REMARK  7 active torsions:
REMARK  status: ('A' for Active; 'I' for Inactive)
REMARK    1  A    between atoms: N_1  and  C_2
REMARK    2  A    between atoms: C_2  and  C_4
REMARK    3  A    between atoms: C_5  and  N_6
REMARK    4  A    between atoms: N_7  and  C_8
REMARK    5  A    between atoms: C_8  and  O_9
REMARK    6  A    between atoms: O_9  and  C_10
REMARK    7  A    between atoms: C_10  and  C_11
REMARK                            x       y       z     vdW  Elec       q    Type
REMARK                         _______ _______ _______ _____ _____    ______ ____
ROOT
ATOM      1  C   UNL     1       4.717   4.813  18.272  0.00  0.00    +0.000 A 
ATOM      2  C   UNL     1       4.214   6.108  18.172  0.00  0.00    +0.000 A 
ATOM      3  N   UNL     1       3.146   6.243  19.029  0.00  0.00    +0.000 N 
ATOM      4  C   UNL     1       2.990   5.077  19.741  0.00  0.00    +0.000 A 
ATOM      5  N   UNL     1       2.059   4.878  20.696  0.00  0.00    +0.000 NA
ATOM      6  C   UNL     1       2.158   3.659  21.238  0.00  0.00    +0.000 A 
ATOM      7  N   UNL     1       3.053   2.699  20.956  0.00  0.00    +0.000 NA
ATOM      8  C   UNL     1       3.980   2.939  20.009  0.00  0.00    +0.000 A 
ATOM      9  N   UNL     1       4.916   1.935  19.806  0.00  0.00    +0.000 N 
ATOM     10  C   UNL     1       3.960   4.170  19.322  0.00  0.00    +0.000 A 
ATOM     11  H   UNL     1       4.578   1.051  20.166  0.00  0.00    +0.000 HD
ATOM     12  H   UNL     1       5.300   1.907  18.867  0.00  0.00    +0.000 HD
ENDROOT
BRANCH   2  13
ATOM     13  N   UNL     1       4.604   7.137  17.376  0.00  0.00    +0.000 N 
ATOM     14  H   UNL     1       4.041   7.343  16.552  0.00  0.00    +0.000 HD
ATOM     15  H   UNL     1       4.861   8.012  17.849  0.00  0.00    +0.000 HD
ENDBRANCH   2  13
BRANCH   1  16
ATOM     16  C   UNL     1       5.814   4.321  17.457  0.00  0.00    +0.000 C 
ATOM     17  S   UNL     1       5.619   3.973  15.846  0.00  0.00    +0.000 S 
BRANCH  16  18
ATOM     18  N   UNL     1       7.042   4.247  18.048  0.00  0.00    +0.000 N 
ATOM     19  H   UNL     1       7.859   4.011  17.501  0.00  0.00    +0.000 HD
ATOM     20  H   UNL     1       7.145   4.451  19.037  0.00  0.00    +0.000 HD
ENDBRANCH  16  18
ENDBRANCH   1  16
BRANCH   3  21
ATOM     21  C   UNL     1       2.319   7.429  19.238  0.00  0.00    +0.000 C 
BRANCH  21  22
ATOM     22  O   UNL     1       1.897   7.944  17.971  0.00  0.00    +0.000 OA
BRANCH  22  23
ATOM     23  C   UNL     1       2.057   9.356  17.876  0.00  0.00    +0.000 C 
BRANCH  23  24
ATOM     24  C   UNL     1       0.820  10.040  18.413  0.00  0.00    +0.000 A 
ATOM     25  C   UNL     1      -0.446   9.816  17.846  0.00  0.00    +0.000 A 
ATOM     26  C   UNL     1      -1.584  10.430  18.372  0.00  0.00    +0.000 A 
ATOM     27  C   UNL     1      -1.477  11.266  19.480  0.00  0.00    +0.000 A 
ATOM     28  C   UNL     1      -0.231  11.486  20.064  0.00  0.00    +0.000 A 
ATOM     29  C   UNL     1       0.910  10.874  19.537  0.00  0.00    +0.000 A 
ENDBRANCH  23  24
ENDBRANCH  22  23
ENDBRANCH  21  22
ENDBRANCH   3  21
TORSDOF 7
ENDMDL
MODEL 5
REMARK VINA RESULT:      -6.8      3.483      6.459
REMARK  Name = 
REMARK  7 active torsions:
REMARK  status: ('A' for Active; 'I' for Inactive)
REMARK    1  A    between atoms: N_1  and  C_2
REMARK    2  A    between atoms: C_2  and  C_4
REMARK    3  A    between atoms: C_5  and  N_6
REMARK    4  A    between atoms: N_7  and  C_8
REMARK    5  A    between atoms: C_8  and  O_9
REMARK    6  A    between atoms: O_9  and  C_10
REMARK    7  A    between atoms: C_10  and  C_11
REMARK                            x       y       z     vdW  Elec       q    Type
REMARK                         _______ _______ _______ _____ _____    ______ ____
ROOT
ATOM      1  C   UNL     1       4.627   4.644  17.571  0.00  0.00    +0.000 A 
ATOM      2  C   UNL     1       4.297   5.974  17.822  0.00  0.00    +0.000 A 
ATOM      3  N   UNL     1       3.066   6.022  18.438  0.00  0.00    +0.000 N 
ATOM      4  C   UNL     1       2.621   4.741  18.657  0.00  0.00    +0.000 A 
ATOM      5  N   UNL     1       1.466   4.423  19.275  0.00  0.00    +0.000 NA
ATOM      6  C   UNL     1       1.304   3.098  19.372  0.00  0.00    +0.000 A 
ATOM      7  N   UNL     1       2.140   2.131  18.965  0.00  0.00    +0.000 NA
ATOM      8  C   UNL     1       3.295   2.485  18.368  0.00  0.00    +0.000 A 
ATOM      9  N   UNL     1       4.146   1.445  18.027  0.00  0.00    +0.000 N 
ATOM     10  C   UNL     1       3.570   3.852  18.158  0.00  0.00    +0.000 A 
ATOM     11  H   UNL     1       3.642   0.567  17.984  0.00  0.00    +0.000 HD
ATOM     12  H   UNL     1       4.750   1.642  17.235  0.00  0.00    +0.000 HD
ENDROOT
BRANCH   2  13
ATOM     13  N   UNL     1       4.975   7.112  17.526  0.00  0.00    +0.000 N 
ATOM     14  H   UNL     1       5.298   7.240  16.568  0.00  0.00    +0.000 HD
ATOM     15  H   UNL     1       4.573   7.991  17.878  0.00  0.00    +0.000 HD
ENDBRANCH   2  13
BRANCH   1  16
ATOM     16  C   UNL     1       5.839   4.243  16.878  0.00  0.00    +0.000 C 
ATOM     17  S   UNL     1       5.883   4.061  15.229  0.00  0.00    +0.000 S 
BRANCH  16  18
ATOM     18  N   UNL     1       6.970   4.115  17.630  0.00  0.00    +0.000 N 
ATOM     19  H   UNL     1       7.094   3.313  18.233  0.00  0.00    +0.000 HD
ATOM     20  H   UNL     1       7.705   4.814  17.571  0.00  0.00    +0.000 HD
ENDBRANCH  16  18
ENDBRANCH   1  16
BRANCH   3  21
ATOM     21  C   UNL     1       2.336   7.211  18.869  0.00  0.00    +0.000 C 
BRANCH  21  22
ATOM     22  O   UNL     1       1.924   7.960  17.721  0.00  0.00    +0.000 OA
BRANCH  22  23
ATOM     23  C   UNL     1       2.134   9.360  17.877  0.00  0.00    +0.000 C 
BRANCH  23  24
ATOM     24  C   UNL     1       0.874  10.001  18.412  0.00  0.00    +0.000 A 
ATOM     25  C   UNL     1      -0.372   9.791  17.799  0.00  0.00    +0.000 A 
ATOM     26  C   UNL     1      -1.533  10.364  18.323  0.00  0.00    +0.000 A 
ATOM     27  C   UNL     1      -1.468  11.145  19.474  0.00  0.00    +0.000 A 
ATOM     28  C   UNL     1      -0.242  11.351  20.103  0.00  0.00    +0.000 A 
ATOM     29  C   UNL     1       0.921  10.779  19.578  0.00  0.00    +0.000 A 
ENDBRANCH  23  24
ENDBRANCH  22  23
ENDBRANCH  21  22
ENDBRANCH   3  21
TORSDOF 7
ENDMDL
MODEL 6
REMARK VINA RESULT:      -6.8      3.543      6.500
REMARK  Name = 
REMARK  7 active torsions:
REMARK  status: ('A' for Active; 'I' for Inactive)
REMARK    1  A    between atoms: N_1  and  C_2
REMARK    2  A    between atoms: C_2  and  C_4
REMARK    3  A    between atoms: C_5  and  N_6
REMARK    4  A    between atoms: N_7  and  C_8
REMARK    5  A    between atoms: C_8  and  O_9
REMARK    6  A    between atoms: O_9  and  C_10
REMARK    7  A    between atoms: C_10  and  C_11
REMARK                            x       y       z     vdW  Elec       q    Type
REMARK                         _______ _______ _______ _____ _____    ______ ____
ROOT
ATOM      1  C   UNL     1       4.559   4.725  17.371  0.00  0.00    +0.000 A 
ATOM      2  C   UNL     1       4.240   6.054  17.641  0.00  0.00    +0.000 A 
ATOM      3  N   UNL     1       3.067   6.097  18.360  0.00  0.00    +0.000 N 
ATOM      4  C   UNL     1       2.654   4.813  18.627  0.00  0.00    +0.000 A 
ATOM      5  N   UNL     1       1.560   4.491  19.345  0.00  0.00    +0.000 NA
ATOM      6  C   UNL     1       1.419   3.166  19.466  0.00  0.00    +0.000 A 
ATOM      7  N   UNL     1       2.226   2.202  18.994  0.00  0.00    +0.000 NA
ATOM      8  C   UNL     1       3.321   2.561  18.297  0.00  0.00    +0.000 A 
ATOM      9  N   UNL     1       4.150   1.526  17.890  0.00  0.00    +0.000 N 
ATOM     10  C   UNL     1       3.565   3.929  18.053  0.00  0.00    +0.000 A 
ATOM     11  H   UNL     1       3.652   0.644  17.897  0.00  0.00    +0.000 HD
ATOM     12  H   UNL     1       4.680   1.722  17.047  0.00  0.00    +0.000 HD
ENDROOT
BRANCH   2  13
ATOM     13  N   UNL     1       4.878   7.196  17.278  0.00  0.00    +0.000 N 
ATOM     14  H   UNL     1       4.365   7.871  16.714  0.00  0.00    +0.000 HD
ATOM     15  H   UNL     1       5.400   7.685  18.017  0.00  0.00    +0.000 HD
ENDBRANCH   2  13
BRANCH   1  16
ATOM     16  C   UNL     1       5.710   4.330  16.578  0.00  0.00    +0.000 C 
ATOM     17  S   UNL     1       5.646   4.256  14.921  0.00  0.00    +0.000 S 
BRANCH  16  18
ATOM     18  N   UNL     1       6.879   4.112  17.246  0.00  0.00    +0.000 N 
ATOM     19  H   UNL     1       7.688   3.754  16.758  0.00  0.00    +0.000 HD
ATOM     20  H   UNL     1       6.950   4.329  18.236  0.00  0.00    +0.000 HD
ENDBRANCH  16  18
ENDBRANCH   1  16
BRANCH   3  21
ATOM     21  C   UNL     1       2.366   7.283  18.845  0.00  0.00    +0.000 C 
BRANCH  21  22
ATOM     22  O   UNL     1       1.899   8.049  17.730  0.00  0.00    +0.000 OA
BRANCH  22  23
ATOM     23  C   UNL     1       2.096   9.448  17.907  0.00  0.00    +0.000 C 
BRANCH  23  24
ATOM     24  C   UNL     1       0.833  10.069  18.458  0.00  0.00    +0.000 A 
ATOM     25  C   UNL     1       0.867  10.957  19.547  0.00  0.00    +0.000 A 
ATOM     26  C   UNL     1      -0.305  11.548  20.025  0.00  0.00    +0.000 A 
ATOM     27  C   UNL     1      -1.525  11.270  19.415  0.00  0.00    +0.000 A 
ATOM     28  C   UNL     1      -1.574  10.404  18.325  0.00  0.00    +0.000 A 
ATOM     29  C   UNL     1      -0.403   9.810  17.846  0.00  0.00    +0.000 A 
ENDBRANCH  23  24
ENDBRANCH  22  23
ENDBRANCH  21  22
ENDBRANCH   3  21
TORSDOF 7
ENDMDL
MODEL 7
REMARK VINA RESULT:      -6.8      3.393      6.483
REMARK  Name = 
REMARK  7 active torsions:
REMARK  status: ('A' for Active; 'I' for Inactive)
REMARK    1  A    between atoms: N_1  and  C_2
REMARK    2  A    between atoms: C_2  and  C_4
REMARK    3  A    between atoms: C_5  and  N_6
REMARK    4  A    between atoms: N_7  and  C_8
REMARK    5  A    between atoms: C_8  and  O_9
REMARK    6  A    between atoms: O_9  and  C_10
REMARK    7  A    between atoms: C_10  and  C_11
REMARK                            x       y       z     vdW  Elec       q    Type
REMARK                         _______ _______ _______ _____ _____    ______ ____
ROOT
ATOM      1  C   UNL     1       4.472   4.562  17.615  0.00  0.00    +0.000 A 
ATOM      2  C   UNL     1       4.013   5.875  17.706  0.00  0.00    +0.000 A 
ATOM      3  N   UNL     1       2.720   5.866  18.178  0.00  0.00    +0.000 N 
ATOM      4  C   UNL     1       2.353   4.573  18.465  0.00  0.00    +0.000 A 
ATOM      5  N   UNL     1       1.162   4.208  18.980  0.00  0.00    +0.000 NA
ATOM      6  C   UNL     1       1.093   2.886  19.181  0.00  0.00    +0.000 A 
ATOM      7  N   UNL     1       2.043   1.966  18.957  0.00  0.00    +0.000 NA
ATOM      8  C   UNL     1       3.228   2.369  18.459  0.00  0.00    +0.000 A 
ATOM      9  N   UNL     1       4.192   1.382  18.308  0.00  0.00    +0.000 N 
ATOM     10  C   UNL     1       3.420   3.732  18.155  0.00  0.00    +0.000 A 
ATOM     11  H   UNL     1       3.766   0.464  18.292  0.00  0.00    +0.000 HD
ATOM     12  H   UNL     1       4.865   1.566  17.572  0.00  0.00    +0.000 HD
ENDROOT
BRANCH   2  13
ATOM     13  N   UNL     1       4.630   7.040  17.382  0.00  0.00    +0.000 N 
ATOM     14  H   UNL     1       4.996   7.614  18.140  0.00  0.00    +0.000 HD
ATOM     15  H   UNL     1       5.312   7.000  16.614  0.00  0.00    +0.000 HD
ENDBRANCH   2  13
BRANCH   1  16
ATOM     16  C   UNL     1       5.783   4.214  17.097  0.00  0.00    +0.000 C 
ATOM     17  S   UNL     1       6.057   4.019  15.472  0.00  0.00    +0.000 S 
BRANCH  16  18
ATOM     18  N   UNL     1       6.808   4.145  17.995  0.00  0.00    +0.000 N 
ATOM     19  H   UNL     1       7.649   4.687  17.853  0.00  0.00    +0.000 HD
ATOM     20  H   UNL     1       6.722   3.566  18.825  0.00  0.00    +0.000 HD
ENDBRANCH  16  18
ENDBRANCH   1  16
BRANCH   3  21
ATOM     21  C   UNL     1       1.854   7.018  18.417  0.00  0.00    +0.000 C 
BRANCH  21  22
ATOM     22  O   UNL     1       2.320   7.734  19.565  0.00  0.00    +0.000 OA
BRANCH  22  23
ATOM     23  C   UNL     1       1.519   7.497  20.719  0.00  0.00    +0.000 C 
BRANCH  23  24
ATOM     24  C   UNL     1       0.872   8.791  21.157  0.00  0.00    +0.000 A 
ATOM     25  C   UNL     1       0.828   9.911  20.311  0.00  0.00    +0.000 A 
ATOM     26  C   UNL     1       0.198  11.090  20.717  0.00  0.00    +0.000 A 
ATOM     27  C   UNL     1      -0.407  11.162  21.969  0.00  0.00    +0.000 A 
ATOM     28  C   UNL     1      -0.387  10.054  22.814  0.00  0.00    +0.000 A 
ATOM     29  C   UNL     1       0.245   8.874  22.409  0.00  0.00    +0.000 A 
ENDBRANCH  23  24
ENDBRANCH  22  23
ENDBRANCH  21  22
ENDBRANCH   3  21
TORSDOF 7
ENDMDL
MODEL 8
REMARK VINA RESULT:      -6.7      3.595      6.522
REMARK  Name = 
REMARK  7 active torsions:
REMARK  status: ('A' for Active; 'I' for Inactive)
REMARK    1  A    between atoms: N_1  and  C_2
REMARK    2  A    between atoms: C_2  and  C_4
REMARK    3  A    between atoms: C_5  and  N_6
REMARK    4  A    between atoms: N_7  and  C_8
REMARK    5  A    between atoms: C_8  and  O_9
REMARK    6  A    between atoms: O_9  and  C_10
REMARK    7  A    between atoms: C_10  and  C_11
REMARK                            x       y       z     vdW  Elec       q    Type
REMARK                         _______ _______ _______ _____ _____    ______ ____
ROOT
ATOM      1  C   UNL     1       4.717   4.821  17.996  0.00  0.00    +0.000 A 
ATOM      2  C   UNL     1       4.106   6.027  17.661  0.00  0.00    +0.000 A 
ATOM      3  N   UNL     1       2.901   6.118  18.320  0.00  0.00    +0.000 N 
ATOM      4  C   UNL     1       2.750   5.023  19.137  0.00  0.00    +0.000 A 
ATOM      5  N   UNL     1       1.699   4.813  19.954  0.00  0.00    +0.000 NA
ATOM      6  C   UNL     1       1.833   3.678  20.651  0.00  0.00    +0.000 A 
ATOM      7  N   UNL     1       2.857   2.811  20.631  0.00  0.00    +0.000 NA
ATOM      8  C   UNL     1       3.900   3.063  19.816  0.00  0.00    +0.000 A 
ATOM      9  N   UNL     1       4.956   2.166  19.884  0.00  0.00    +0.000 N 
ATOM     10  C   UNL     1       3.866   4.204  18.987  0.00  0.00    +0.000 A 
ATOM     11  H   UNL     1       4.656   1.289  20.294  0.00  0.00    +0.000 HD
ATOM     12  H   UNL     1       5.492   2.087  19.027  0.00  0.00    +0.000 HD
ENDROOT
BRANCH   2  13
ATOM     13  N   UNL     1       4.514   7.007  16.814  0.00  0.00    +0.000 N 
ATOM     14  H   UNL     1       5.491   7.013  16.527  0.00  0.00    +0.000 HD
ATOM     15  H   UNL     1       3.912   7.192  16.001  0.00  0.00    +0.000 HD
ENDBRANCH   2  13
BRANCH   1  16
ATOM     16  C   UNL     1       5.981   4.385  17.426  0.00  0.00    +0.000 C 
ATOM     17  S   UNL     1       6.131   4.011  15.817  0.00  0.00    +0.000 S 
BRANCH  16  18
ATOM     18  N   UNL     1       7.067   4.387  18.252  0.00  0.00    +0.000 N 
ATOM     19  H   UNL     1       6.981   4.078  19.210  0.00  0.00    +0.000 HD
ATOM     20  H   UNL     1       7.974   4.679  17.902  0.00  0.00    +0.000 HD
ENDBRANCH  16  18
ENDBRANCH   1  16
BRANCH   3  21
ATOM     21  C   UNL     1       1.932   7.209  18.251  0.00  0.00    +0.000 C 
BRANCH  21  22
ATOM     22  O   UNL     1       2.064   8.037  19.411  0.00  0.00    +0.000 OA
BRANCH  22  23
ATOM     23  C   UNL     1       1.426   9.301  19.256  0.00  0.00    +0.000 C 
BRANCH  23  24
ATOM     24  C   UNL     1       0.733   9.677  20.546  0.00  0.00    +0.000 A 
ATOM     25  C   UNL     1       0.006  10.873  20.666  0.00  0.00    +0.000 A 
ATOM     26  C   UNL     1      -0.655  11.193  21.854  0.00  0.00    +0.000 A 
ATOM     27  C   UNL     1      -0.609  10.316  22.935  0.00  0.00    +0.000 A 
ATOM     28  C   UNL     1       0.095   9.118  22.827  0.00  0.00    +0.000 A 
ATOM     29  C   UNL     1       0.758   8.798  21.639  0.00  0.00    +0.000 A 
ENDBRANCH  23  24
ENDBRANCH  22  23
ENDBRANCH  21  22
ENDBRANCH   3  21
TORSDOF 7
ENDMDL
MODEL 9
REMARK VINA RESULT:      -6.7      3.535      6.409
REMARK  Name = 
REMARK  7 active torsions:
REMARK  status: ('A' for Active; 'I' for Inactive)
REMARK    1  A    between atoms: N_1  and  C_2
REMARK    2  A    between atoms: C_2  and  C_4
REMARK    3  A    between atoms: C_5  and  N_6
REMARK    4  A    between atoms: N_7  and  C_8
REMARK    5  A    between atoms: C_8  and  O_9
REMARK    6  A    between atoms: O_9  and  C_10
REMARK    7  A    between atoms: C_10  and  C_11
REMARK                            x       y       z     vdW  Elec       q    Type
REMARK                         _______ _______ _______ _____ _____    ______ ____
ROOT
ATOM      1  C   UNL     1       4.712   4.772  18.017  0.00  0.00    +0.000 A 
ATOM      2  C   UNL     1       4.071   5.974  17.724  0.00  0.00    +0.000 A 
ATOM      3  N   UNL     1       2.854   6.001  18.365  0.00  0.00    +0.000 N 
ATOM      4  C   UNL     1       2.722   4.868  19.131  0.00  0.00    +0.000 A 
ATOM      5  N   UNL     1       1.664   4.592  19.919  0.00  0.00    +0.000 NA
ATOM      6  C   UNL     1       1.819   3.432  20.569  0.00  0.00    +0.000 A 
ATOM      7  N   UNL     1       2.868   2.596  20.529  0.00  0.00    +0.000 NA
ATOM      8  C   UNL     1       3.916   2.913  19.745  0.00  0.00    +0.000 A 
ATOM      9  N   UNL     1       4.997   2.044  19.793  0.00  0.00    +0.000 N 
ATOM     10  C   UNL     1       3.864   4.088  18.966  0.00  0.00    +0.000 A 
ATOM     11  H   UNL     1       4.716   1.143  20.159  0.00  0.00    +0.000 HD
ATOM     12  H   UNL     1       5.550   2.019  18.943  0.00  0.00    +0.000 HD
ENDROOT
BRANCH   2  13
ATOM     13  N   UNL     1       4.464   7.001  16.927  0.00  0.00    +0.000 N 
ATOM     14  H   UNL     1       4.828   6.776  16.003  0.00  0.00    +0.000 HD
ATOM     15  H   UNL     1       3.826   7.804  16.865  0.00  0.00    +0.000 HD
ENDBRANCH   2  13
BRANCH   1  16
ATOM     16  C   UNL     1       5.997   4.398  17.452  0.00  0.00    +0.000 C 
ATOM     17  S   UNL     1       6.183   4.094  15.832  0.00  0.00    +0.000 S 
BRANCH  16  18
ATOM     18  N   UNL     1       7.070   4.399  18.295  0.00  0.00    +0.000 N 
ATOM     19  H   UNL     1       7.938   3.962  18.018  0.00  0.00    +0.000 HD
ATOM     20  H   UNL     1       7.009   4.859  19.199  0.00  0.00    +0.000 HD
ENDBRANCH  16  18
ENDBRANCH   1  16
BRANCH   3  21
ATOM     21  C   UNL     1       1.854   7.066  18.326  0.00  0.00    +0.000 C 
BRANCH  21  22
ATOM     22  O   UNL     1       2.230   8.105  19.236  0.00  0.00    +0.000 OA
BRANCH  22  23
ATOM     23  C   UNL     1       1.451   9.286  19.069  0.00  0.00    +0.000 C 
BRANCH  23  24
ATOM     24  C   UNL     1       0.728   9.600  20.359  0.00  0.00    +0.000 A 
ATOM     25  C   UNL     1       0.538   8.621  21.349  0.00  0.00    +0.000 A 
ATOM     26  C   UNL     1      -0.104   8.934  22.550  0.00  0.00    +0.000 A 
ATOM     27  C   UNL     1      -0.553  10.231  22.784  0.00  0.00    +0.000 A 
ATOM     28  C   UNL     1      -0.357  11.217  21.819  0.00  0.00    +0.000 A 
ATOM     29  C   UNL     1       0.283  10.905  20.616  0.00  0.00    +0.000 A 
ENDBRANCH  23  24
ENDBRANCH  22  23
ENDBRANCH  21  22
ENDBRANCH   3  21
TORSDOF 7
ENDMDL
