MODEL 1
REMARK VINA RESULT:      -7.3      0.000      0.000
REMARK  Name = 
REMARK  7 active torsions:
REMARK  status: ('A' for Active; 'I' for Inactive)
REMARK    1  A    between atoms: C_1  and  C_2
REMARK    2  A    between atoms: N_10  and  C_11
REMARK    3  A    between atoms: C_11  and  C_12
REMARK    4  A    between atoms: C_12  and  C_13
REMARK    5  A    between atoms: C_13  and  N_14
REMARK    6  A    between atoms: N_14  and  C_15
REMARK    7  A    between atoms: N_14  and  C_16
REMARK                            x       y       z     vdW  Elec       q    Type
REMARK                         _______ _______ _______ _____ _____    ______ ____
ROOT
ATOM      1  C   UNL     1       4.872   2.848  11.532  0.00  0.00    +0.000 C 
ATOM      2  C   UNL     1       5.629   3.638  12.559  0.00  0.00    +0.000 A 
ATOM      3  C   UNL     1       6.999   3.936  12.364  0.00  0.00    +0.000 A 
ATOM      4  C   UNL     1       7.706   4.690  13.312  0.00  0.00    +0.000 A 
ATOM      5  C   UNL     1       7.030   5.121  14.450  0.00  0.00    +0.000 A 
ATOM      6  C   UNL     1       5.710   4.818  14.660  0.00  0.00    +0.000 A 
ATOM      7  C   UNL     1       4.973   4.099  13.721  0.00  0.00    +0.000 A 
ATOM      8  C   UNL     1       5.270   5.503  15.918  0.00  0.00    +0.000 C 
ATOM      9  C   UNL     1       4.250   4.824  16.847  0.00  0.00    +0.000 C 
ATOM     10  N   UNL     1       4.822   3.665  17.577  0.00  0.00    +0.000 NA
ATOM     11  C   UNL     1       5.950   4.141  18.407  0.00  0.00    +0.000 C 
ATOM     12  C   UNL     1       7.076   4.633  17.503  0.00  0.00    +0.000 C 
ATOM     13  C   UNL     1       6.623   5.809  16.607  0.00  0.00    +0.000 C 
ATOM     14  N   UNL     1       7.564   5.878  15.511  0.00  0.00    +0.000 N 
ATOM     15  H   UNL     1       8.562   6.111  15.605  0.00  0.00    +0.000 HD
ENDROOT
BRANCH  10  16
ATOM     16  C   UNL     1       3.809   3.026  18.452  0.00  0.00    +0.000 C 
BRANCH  16  17
ATOM     17  C   UNL     1       2.382   3.125  17.870  0.00  0.00    +0.000 C 
BRANCH  17  18
ATOM     18  C   UNL     1       1.332   3.499  18.930  0.00  0.00    +0.000 C 
BRANCH  18  19
ATOM     19  N   UNL     1       1.913   3.810  20.258  0.00  0.00    +0.000 NA
ATOM     20  C   UNL     1       1.669   5.203  20.681  0.00  0.00    +0.000 C 
ATOM     21  C   UNL     1       1.352   2.892  21.264  0.00  0.00    +0.000 C 
ENDBRANCH  18  19
ENDBRANCH  17  18
ENDBRANCH  16  17
ENDBRANCH  10  16
TORSDOF 4
ENDMDL
MODEL 2
REMARK VINA RESULT:      -6.9      1.028      1.331
REMARK  Name = 
REMARK  7 active torsions:
REMARK  status: ('A' for Active; 'I' for Inactive)
REMARK    1  A    between atoms: C_1  and  C_2
REMARK    2  A    between atoms: N_10  and  C_11
REMARK    3  A    between atoms: C_11  and  C_12
REMARK    4  A    between atoms: C_12  and  C_13
REMARK    5  A    between atoms: C_13  and  N_14
REMARK    6  A    between atoms: N_14  and  C_15
REMARK    7  A    between atoms: N_14  and  C_16
REMARK                            x       y       z     vdW  Elec       q    Type
REMARK                         _______ _______ _______ _____ _____    ______ ____
ROOT
ATOM      1  C   UNL     1       6.072   3.258  12.271  0.00  0.00    +0.000 C 
ATOM      2  C   UNL     1       6.242   4.032  13.546  0.00  0.00    +0.000 A 
ATOM      3  C   UNL     1       7.456   4.709  13.815  0.00  0.00    +0.000 A 
ATOM      4  C   UNL     1       7.613   5.447  14.996  0.00  0.00    +0.000 A 
ATOM      5  C   UNL     1       6.553   5.484  15.899  0.00  0.00    +0.000 A 
ATOM      6  C   UNL     1       5.382   4.813  15.659  0.00  0.00    +0.000 A 
ATOM      7  C   UNL     1       5.185   4.097  14.480  0.00  0.00    +0.000 A 
ATOM      8  C   UNL     1       4.428   5.130  16.770  0.00  0.00    +0.000 C 
ATOM      9  C   UNL     1       3.448   4.057  17.273  0.00  0.00    +0.000 C 
ATOM     10  N   UNL     1       4.120   2.983  18.044  0.00  0.00    +0.000 NA
ATOM     11  C   UNL     1       4.779   3.589  19.223  0.00  0.00    +0.000 C 
ATOM     12  C   UNL     1       5.905   4.508  18.761  0.00  0.00    +0.000 C 
ATOM     13  C   UNL     1       5.381   5.659  17.870  0.00  0.00    +0.000 C 
ATOM     14  N   UNL     1       6.520   6.160  17.133  0.00  0.00    +0.000 N 
ATOM     15  H   UNL     1       7.334   6.629  17.554  0.00  0.00    +0.000 HD
ENDROOT
BRANCH  10  16
ATOM     16  C   UNL     1       3.150   1.959  18.502  0.00  0.00    +0.000 C 
BRANCH  16  17
ATOM     17  C   UNL     1       1.688   2.361  18.207  0.00  0.00    +0.000 C 
BRANCH  17  18
ATOM     18  C   UNL     1       0.898   2.708  19.481  0.00  0.00    +0.000 C 
BRANCH  18  19
ATOM     19  N   UNL     1       1.724   3.339  20.538  0.00  0.00    +0.000 NA
ATOM     20  C   UNL     1       1.460   4.784  20.687  0.00  0.00    +0.000 C 
ATOM     21  C   UNL     1       1.470   2.665  21.823  0.00  0.00    +0.000 C 
ENDBRANCH  18  19
ENDBRANCH  17  18
ENDBRANCH  16  17
ENDBRANCH  10  16
TORSDOF 4
ENDMDL
MODEL 3
REMARK VINA RESULT:      -6.8      0.629      1.140
REMARK  Name = 
REMARK  7 active torsions:
REMARK  status: ('A' for Active; 'I' for Inactive)
REMARK    1  A    between atoms: C_1  and  C_2
REMARK    2  A    between atoms: N_10  and  C_11
REMARK    3  A    between atoms: C_11  and  C_12
REMARK    4  A    between atoms: C_12  and  C_13
REMARK    5  A    between atoms: C_13  and  N_14
REMARK    6  A    between atoms: N_14  and  C_15
REMARK    7  A    between atoms: N_14  and  C_16
REMARK                            x       y       z     vdW  Elec       q    Type
REMARK                         _______ _______ _______ _____ _____    ______ ____
ROOT
ATOM      1  C   UNL     1       5.037   2.794  11.471  0.00  0.00    +0.000 C 
ATOM      2  C   UNL     1       5.708   3.608  12.539  0.00  0.00    +0.000 A 
ATOM      3  C   UNL     1       7.056   4.011  12.389  0.00  0.00    +0.000 A 
ATOM      4  C   UNL     1       7.682   4.787  13.375  0.00  0.00    +0.000 A 
ATOM      5  C   UNL     1       6.947   5.135  14.506  0.00  0.00    +0.000 A 
ATOM      6  C   UNL     1       5.649   4.730  14.672  0.00  0.00    +0.000 A 
ATOM      7  C   UNL     1       4.991   3.986  13.695  0.00  0.00    +0.000 A 
ATOM      8  C   UNL     1       5.127   5.344  15.936  0.00  0.00    +0.000 C 
ATOM      9  C   UNL     1       4.138   4.565  16.818  0.00  0.00    +0.000 C 
ATOM     10  N   UNL     1       4.776   3.432  17.532  0.00  0.00    +0.000 NA
ATOM     11  C   UNL     1       5.845   3.965  18.405  0.00  0.00    +0.000 C 
ATOM     12  C   UNL     1       6.953   4.564  17.545  0.00  0.00    +0.000 C 
ATOM     13  C   UNL     1       6.437   5.729  16.668  0.00  0.00    +0.000 C 
ATOM     14  N   UNL     1       7.397   5.898  15.601  0.00  0.00    +0.000 N 
ATOM     15  H   UNL     1       8.372   6.201  15.728  0.00  0.00    +0.000 HD
ENDROOT
BRANCH  10  16
ATOM     16  C   UNL     1       3.792   2.695  18.362  0.00  0.00    +0.000 C 
BRANCH  16  17
ATOM     17  C   UNL     1       4.182   2.672  19.856  0.00  0.00    +0.000 C 
BRANCH  17  18
ATOM     18  C   UNL     1       3.065   3.204  20.771  0.00  0.00    +0.000 C 
BRANCH  18  19
ATOM     19  N   UNL     1       2.001   3.936  20.044  0.00  0.00    +0.000 NA
ATOM     20  C   UNL     1       0.703   3.234  20.063  0.00  0.00    +0.000 C 
ATOM     21  C   UNL     1       1.836   5.274  20.637  0.00  0.00    +0.000 C 
ENDBRANCH  18  19
ENDBRANCH  17  18
ENDBRANCH  16  17
ENDBRANCH  10  16
TORSDOF 4
ENDMDL
MODEL 4
REMARK VINA RESULT:      -6.5      0.699      1.085
REMARK  Name = 
REMARK  7 active torsions:
REMARK  status: ('A' for Active; 'I' for Inactive)
REMARK    1  A    between atoms: C_1  and  C_2
REMARK    2  A    between atoms: N_10  and  C_11
REMARK    3  A    between atoms: C_11  and  C_12
REMARK    4  A    between atoms: C_12  and  C_13
REMARK    5  A    between atoms: C_13  and  N_14
REMARK    6  A    between atoms: N_14  and  C_15
REMARK    7  A    between atoms: N_14  and  C_16
REMARK                            x       y       z     vdW  Elec       q    Type
REMARK                         _______ _______ _______ _____ _____    ______ ____
ROOT
ATOM      1  C   UNL     1       4.577   3.039  11.744  0.00  0.00    +0.000 C 
ATOM      2  C   UNL     1       5.494   3.754  12.693  0.00  0.00    +0.000 A 
ATOM      3  C   UNL     1       6.883   3.823  12.428  0.00  0.00    +0.000 A 
ATOM      4  C   UNL     1       7.741   4.506  13.302  0.00  0.00    +0.000 A 
ATOM      5  C   UNL     1       7.194   5.097  14.438  0.00  0.00    +0.000 A 
ATOM      6  C   UNL     1       5.854   5.016  14.716  0.00  0.00    +0.000 A 
ATOM      7  C   UNL     1       4.972   4.373  13.850  0.00  0.00    +0.000 A 
ATOM      8  C   UNL     1       5.584   5.826  15.947  0.00  0.00    +0.000 C 
ATOM      9  C   UNL     1       4.517   5.364  16.953  0.00  0.00    +0.000 C 
ATOM     10  N   UNL     1       4.937   4.171  17.728  0.00  0.00    +0.000 NA
ATOM     11  C   UNL     1       6.164   4.508  18.485  0.00  0.00    +0.000 C 
ATOM     12  C   UNL     1       7.308   4.769  17.511  0.00  0.00    +0.000 C 
ATOM     13  C   UNL     1       6.999   5.953  16.564  0.00  0.00    +0.000 C 
ATOM     14  N   UNL     1       7.887   5.816  15.431  0.00  0.00    +0.000 N 
ATOM     15  H   UNL     1       8.913   5.895  15.473  0.00  0.00    +0.000 HD
ENDROOT
BRANCH  10  16
ATOM     16  C   UNL     1       3.881   3.745  18.677  0.00  0.00    +0.000 C 
BRANCH  16  17
ATOM     17  C   UNL     1       3.026   4.930  19.177  0.00  0.00    +0.000 C 
BRANCH  17  18
ATOM     18  C   UNL     1       1.929   4.497  20.165  0.00  0.00    +0.000 C 
BRANCH  18  19
ATOM     19  N   UNL     1       1.732   3.029  20.228  0.00  0.00    +0.000 NA
ATOM     20  C   UNL     1       1.472   2.542  21.597  0.00  0.00    +0.000 C 
ATOM     21  C   UNL     1       0.606   2.650  19.357  0.00  0.00    +0.000 C 
ENDBRANCH  18  19
ENDBRANCH  17  18
ENDBRANCH  16  17
ENDBRANCH  10  16
TORSDOF 4
ENDMDL
MODEL 5
REMARK VINA RESULT:      -6.5      2.245      6.439
REMARK  Name = 
REMARK  7 active torsions:
REMARK  status: ('A' for Active; 'I' for Inactive)
REMARK    1  A    between atoms: C_1  and  C_2
REMARK    2  A    between atoms: N_10  and  C_11
REMARK    3  A    between atoms: C_11  and  C_12
REMARK    4  A    between atoms: C_12  and  C_13
REMARK    5  A    between atoms: C_13  and  N_14
REMARK    6  A    between atoms: N_14  and  C_15
REMARK    7  A    between atoms: N_14  and  C_16
REMARK                            x       y       z     vdW  Elec       q    Type
REMARK                         _______ _______ _______ _____ _____    ______ ____
ROOT
ATOM      1  C   UNL     1       1.964   9.574  17.866  0.00  0.00    +0.000 C 
ATOM      2  C   UNL     1       2.005   8.266  18.601  0.00  0.00    +0.000 A 
ATOM      3  C   UNL     1       1.821   8.229  20.004  0.00  0.00    +0.000 A 
ATOM      4  C   UNL     1       1.839   7.008  20.693  0.00  0.00    +0.000 A 
ATOM      5  C   UNL     1       2.058   5.842  19.964  0.00  0.00    +0.000 A 
ATOM      6  C   UNL     1       2.260   5.868  18.609  0.00  0.00    +0.000 A 
ATOM      7  C   UNL     1       2.215   7.062  17.893  0.00  0.00    +0.000 A 
ATOM      8  C   UNL     1       2.371   4.454  18.127  0.00  0.00    +0.000 C 
ATOM      9  C   UNL     1       3.327   4.107  16.974  0.00  0.00    +0.000 C 
ATOM     10  N   UNL     1       4.755   4.171  17.374  0.00  0.00    +0.000 NA
ATOM     11  C   UNL     1       4.983   3.199  18.466  0.00  0.00    +0.000 C 
ATOM     12  C   UNL     1       4.206   3.633  19.705  0.00  0.00    +0.000 C 
ATOM     13  C   UNL     1       2.684   3.692  19.438  0.00  0.00    +0.000 C 
ATOM     14  N   UNL     1       2.117   4.529  20.472  0.00  0.00    +0.000 N 
ATOM     15  H   UNL     1       2.105   4.300  21.475  0.00  0.00    +0.000 HD
ENDROOT
BRANCH  10  16
ATOM     16  C   UNL     1       5.649   3.845  16.236  0.00  0.00    +0.000 C 
BRANCH  16  17
ATOM     17  C   UNL     1       6.612   5.003  15.894  0.00  0.00    +0.000 C 
BRANCH  17  18
ATOM     18  C   UNL     1       6.431   6.220  16.817  0.00  0.00    +0.000 C 
BRANCH  18  19
ATOM     19  N   UNL     1       7.675   6.631  17.510  0.00  0.00    +0.000 NA
ATOM     20  C   UNL     1       7.809   8.095  17.634  0.00  0.00    +0.000 C 
ATOM     21  C   UNL     1       7.708   6.026  18.853  0.00  0.00    +0.000 C 
ENDBRANCH  18  19
ENDBRANCH  17  18
ENDBRANCH  16  17
ENDBRANCH  10  16
TORSDOF 4
ENDMDL
MODEL 6
REMARK VINA RESULT:      -6.4      3.325      7.351
REMARK  Name = 
REMARK  7 active torsions:
REMARK  status: ('A' for Active; 'I' for Inactive)
REMARK    1  A    between atoms: C_1  and  C_2
REMARK    2  A    between atoms: N_10  and  C_11
REMARK    3  A    between atoms: C_11  and  C_12
REMARK    4  A    between atoms: C_12  and  C_13
REMARK    5  A    between atoms: C_13  and  N_14
REMARK    6  A    between atoms: N_14  and  C_15
REMARK    7  A    between atoms: N_14  and  C_16
REMARK                            x       y       z     vdW  Elec       q    Type
REMARK                         _______ _______ _______ _____ _____    ______ ____
ROOT
ATOM      1  C   UNL     1       1.357   8.253  20.499  0.00  0.00    +0.000 C 
ATOM      2  C   UNL     1       2.054   7.023  19.991  0.00  0.00    +0.000 A 
ATOM      3  C   UNL     1       1.886   5.784  20.652  0.00  0.00    +0.000 A 
ATOM      4  C   UNL     1       2.520   4.629  20.171  0.00  0.00    +0.000 A 
ATOM      5  C   UNL     1       3.326   4.740  19.041  0.00  0.00    +0.000 A 
ATOM      6  C   UNL     1       3.514   5.940  18.407  0.00  0.00    +0.000 A 
ATOM      7  C   UNL     1       2.872   7.098  18.843  0.00  0.00    +0.000 A 
ATOM      8  C   UNL     1       4.351   5.698  17.188  0.00  0.00    +0.000 C 
ATOM      9  C   UNL     1       5.373   6.753  16.735  0.00  0.00    +0.000 C 
ATOM     10  N   UNL     1       6.552   6.834  17.632  0.00  0.00    +0.000 NA
ATOM     11  C   UNL     1       7.228   5.517  17.642  0.00  0.00    +0.000 C 
ATOM     12  C   UNL     1       6.313   4.479  18.283  0.00  0.00    +0.000 C 
ATOM     13  C   UNL     1       4.986   4.321  17.505  0.00  0.00    +0.000 C 
ATOM     14  N   UNL     1       4.046   3.704  18.414  0.00  0.00    +0.000 N 
ATOM     15  H   UNL     1       4.134   2.752  18.796  0.00  0.00    +0.000 HD
ENDROOT
BRANCH  10  16
ATOM     16  C   UNL     1       7.509   7.870  17.173  0.00  0.00    +0.000 C 
BRANCH  16  17
ATOM     17  C   UNL     1       8.321   8.477  18.339  0.00  0.00    +0.000 C 
BRANCH  17  18
ATOM     18  C   UNL     1       8.614   9.975  18.142  0.00  0.00    +0.000 C 
BRANCH  18  19
ATOM     19  N   UNL     1       9.766  10.463  18.936  0.00  0.00    +0.000 NA
ATOM     20  C   UNL     1      10.372  11.687  18.377  0.00  0.00    +0.000 C 
ATOM     21  C   UNL     1       9.330  10.726  20.318  0.00  0.00    +0.000 C 
ENDBRANCH  18  19
ENDBRANCH  17  18
ENDBRANCH  16  17
ENDBRANCH  10  16
TORSDOF 4
ENDMDL
MODEL 7
REMARK VINA RESULT:      -6.4      2.380      4.770
REMARK  Name = 
REMARK  7 active torsions:
REMARK  status: ('A' for Active; 'I' for Inactive)
REMARK    1  A    between atoms: C_1  and  C_2
REMARK    2  A    between atoms: N_10  and  C_11
REMARK    3  A    between atoms: C_11  and  C_12
REMARK    4  A    between atoms: C_12  and  C_13
REMARK    5  A    between atoms: C_13  and  N_14
REMARK    6  A    between atoms: N_14  and  C_15
REMARK    7  A    between atoms: N_14  and  C_16
REMARK                            x       y       z     vdW  Elec       q    Type
REMARK                         _______ _______ _______ _____ _____    ______ ____
ROOT
ATOM      1  C   UNL     1       7.626   7.650  17.699  0.00  0.00    +0.000 C 
ATOM      2  C   UNL     1       6.865   6.387  17.420  0.00  0.00    +0.000 A 
ATOM      3  C   UNL     1       6.934   5.779  16.144  0.00  0.00    +0.000 A 
ATOM      4  C   UNL     1       6.240   4.589  15.884  0.00  0.00    +0.000 A 
ATOM      5  C   UNL     1       5.473   4.034  16.906  0.00  0.00    +0.000 A 
ATOM      6  C   UNL     1       5.381   4.627  18.137  0.00  0.00    +0.000 A 
ATOM      7  C   UNL     1       6.085   5.792  18.435  0.00  0.00    +0.000 A 
ATOM      8  C   UNL     1       4.563   3.737  19.023  0.00  0.00    +0.000 C 
ATOM      9  C   UNL     1       3.624   4.351  20.074  0.00  0.00    +0.000 C 
ATOM     10  N   UNL     1       2.429   4.992  19.472  0.00  0.00    +0.000 NA
ATOM     11  C   UNL     1       1.669   3.966  18.725  0.00  0.00    +0.000 C 
ATOM     12  C   UNL     1       2.497   3.482  17.539  0.00  0.00    +0.000 C 
ATOM     13  C   UNL     1       3.832   2.843  17.991  0.00  0.00    +0.000 C 
ATOM     14  N   UNL     1       4.705   2.856  16.838  0.00  0.00    +0.000 N 
ATOM     15  H   UNL     1       4.546   2.322  15.973  0.00  0.00    +0.000 HD
ENDROOT
BRANCH  10  16
ATOM     16  C   UNL     1       1.553   5.586  20.512  0.00  0.00    +0.000 C 
BRANCH  16  17
ATOM     17  C   UNL     1       1.714   7.119  20.612  0.00  0.00    +0.000 C 
BRANCH  17  18
ATOM     18  C   UNL     1       2.283   7.742  19.326  0.00  0.00    +0.000 C 
BRANCH  18  19
ATOM     19  N   UNL     1       1.408   8.780  18.731  0.00  0.00    +0.000 NA
ATOM     20  C   UNL     1       0.683   9.571  19.745  0.00  0.00    +0.000 C 
ATOM     21  C   UNL     1       2.219   9.685  17.900  0.00  0.00    +0.000 C 
ENDBRANCH  18  19
ENDBRANCH  17  18
ENDBRANCH  16  17
ENDBRANCH  10  16
TORSDOF 4
ENDMDL
MODEL 8
REMARK VINA RESULT:      -6.4      2.606      4.891
REMARK  Name = 
REMARK  7 active torsions:
REMARK  status: ('A' for Active; 'I' for Inactive)
REMARK    1  A    between atoms: C_1  and  C_2
REMARK    2  A    between atoms: N_10  and  C_11
REMARK    3  A    between atoms: C_11  and  C_12
REMARK    4  A    between atoms: C_12  and  C_13
REMARK    5  A    between atoms: C_13  and  N_14
REMARK    6  A    between atoms: N_14  and  C_15
REMARK    7  A    between atoms: N_14  and  C_16
REMARK                            x       y       z     vdW  Elec       q    Type
REMARK                         _______ _______ _______ _____ _____    ______ ____
ROOT
ATOM      1  C   UNL     1       7.773   7.651  17.462  0.00  0.00    +0.000 C 
ATOM      2  C   UNL     1       6.955   6.405  17.277  0.00  0.00    +0.000 A 
ATOM      3  C   UNL     1       6.998   5.698  16.052  0.00  0.00    +0.000 A 
ATOM      4  C   UNL     1       6.250   4.524  15.881  0.00  0.00    +0.000 A 
ATOM      5  C   UNL     1       5.458   4.085  16.939  0.00  0.00    +0.000 A 
ATOM      6  C   UNL     1       5.391   4.776  18.121  0.00  0.00    +0.000 A 
ATOM      7  C   UNL     1       6.147   5.927  18.332  0.00  0.00    +0.000 A 
ATOM      8  C   UNL     1       4.532   3.995  19.068  0.00  0.00    +0.000 C 
ATOM      9  C   UNL     1       3.621   4.730  20.065  0.00  0.00    +0.000 C 
ATOM     10  N   UNL     1       2.457   5.377  19.409  0.00  0.00    +0.000 NA
ATOM     11  C   UNL     1       1.652   4.331  18.739  0.00  0.00    +0.000 C 
ATOM     12  C   UNL     1       2.459   3.720  17.599  0.00  0.00    +0.000 C 
ATOM     13  C   UNL     1       3.762   3.058  18.105  0.00  0.00    +0.000 C 
ATOM     14  N   UNL     1       4.636   2.942  16.959  0.00  0.00    +0.000 N 
ATOM     15  H   UNL     1       4.454   2.350  16.136  0.00  0.00    +0.000 HD
ENDROOT
BRANCH  10  16
ATOM     16  C   UNL     1       1.609   6.088  20.396  0.00  0.00    +0.000 C 
BRANCH  16  17
ATOM     17  C   UNL     1       1.891   7.606  20.429  0.00  0.00    +0.000 C 
BRANCH  17  18
ATOM     18  C   UNL     1       0.907   8.375  21.328  0.00  0.00    +0.000 C 
BRANCH  18  19
ATOM     19  N   UNL     1       0.183   9.460  20.623  0.00  0.00    +0.000 NA
ATOM     20  C   UNL     1       0.126  10.713  21.400  0.00  0.00    +0.000 C 
ATOM     21  C   UNL     1       0.837   9.722  19.329  0.00  0.00    +0.000 C 
ENDBRANCH  18  19
ENDBRANCH  17  18
ENDBRANCH  16  17
ENDBRANCH  10  16
TORSDOF 4
ENDMDL
MODEL 9
REMARK VINA RESULT:      -6.4      0.945      1.127
REMARK  Name = 
REMARK  7 active torsions:
REMARK  status: ('A' for Active; 'I' for Inactive)
REMARK    1  A    between atoms: C_1  and  C_2
REMARK    2  A    between atoms: N_10  and  C_11
REMARK    3  A    between atoms: C_11  and  C_12
REMARK    4  A    between atoms: C_12  and  C_13
REMARK    5  A    between atoms: C_13  and  N_14
REMARK    6  A    between atoms: N_14  and  C_15
REMARK    7  A    between atoms: N_14  and  C_16
REMARK                            x       y       z     vdW  Elec       q    Type
REMARK                         _______ _______ _______ _____ _____    ______ ____
ROOT
ATOM      1  C   UNL     1       4.241   2.886  11.437  0.00  0.00    +0.000 C 
ATOM      2  C   UNL     1       5.240   3.567  12.327  0.00  0.00    +0.000 A 
ATOM      3  C   UNL     1       6.619   3.534  12.010  0.00  0.00    +0.000 A 
ATOM      4  C   UNL     1       7.553   4.185  12.828  0.00  0.00    +0.000 A 
ATOM      5  C   UNL     1       7.091   4.847  13.962  0.00  0.00    +0.000 A 
ATOM      6  C   UNL     1       5.761   4.865  14.291  0.00  0.00    +0.000 A 
ATOM      7  C   UNL     1       4.806   4.256  13.481  0.00  0.00    +0.000 A 
ATOM      8  C   UNL     1       5.593   5.730  15.503  0.00  0.00    +0.000 C 
ATOM      9  C   UNL     1       4.537   5.373  16.562  0.00  0.00    +0.000 C 
ATOM     10  N   UNL     1       4.907   4.179  17.362  0.00  0.00    +0.000 NA
ATOM     11  C   UNL     1       6.181   4.456  18.061  0.00  0.00    +0.000 C 
ATOM     12  C   UNL     1       7.302   4.609  17.038  0.00  0.00    +0.000 C 
ATOM     13  C   UNL     1       7.036   5.780  16.064  0.00  0.00    +0.000 C 
ATOM     14  N   UNL     1       7.868   5.548  14.904  0.00  0.00    +0.000 N 
ATOM     15  H   UNL     1       8.897   5.559  14.906  0.00  0.00    +0.000 HD
ENDROOT
BRANCH  10  16
ATOM     16  C   UNL     1       3.862   3.855  18.363  0.00  0.00    +0.000 C 
BRANCH  16  17
ATOM     17  C   UNL     1       3.699   2.333  18.572  0.00  0.00    +0.000 C 
BRANCH  17  18
ATOM     18  C   UNL     1       2.959   1.987  19.876  0.00  0.00    +0.000 C 
BRANCH  18  19
ATOM     19  N   UNL     1       1.784   2.852  20.138  0.00  0.00    +0.000 NA
ATOM     20  C   UNL     1       0.640   2.551  19.256  0.00  0.00    +0.000 C 
ATOM     21  C   UNL     1       1.367   2.697  21.542  0.00  0.00    +0.000 C 
ENDBRANCH  18  19
ENDBRANCH  17  18
ENDBRANCH  16  17
ENDBRANCH  10  16
TORSDOF 4
ENDMDL
