MODEL 1
REMARK VINA RESULT:      -6.2      0.000      0.000
REMARK  Name = 
REMARK  10 active torsions:
REMARK  status: ('A' for Active; 'I' for Inactive)
REMARK    1  A    between atoms: C_1  and  C_2
REMARK    2  A    between atoms: C_2  and  C_3
REMARK    3  A    between atoms: C_3  and  C_4
REMARK    4  A    between atoms: C_4  and  C_5
REMARK    5  A    between atoms: C_5  and  C_6
REMARK    6  A    between atoms: C_6  and  C_7
REMARK    7  A    between atoms: C_7  and  C_8
REMARK    8  A    between atoms: C_8  and  C_9
REMARK    9  A    between atoms: C_10  and  C_11
REMARK   10  A    between atoms: N_15  and  C_16
REMARK                            x       y       z     vdW  Elec       q    Type
REMARK                         _______ _______ _______ _____ _____    ______ ____
ROOT
ATOM      1  C   UNL     1       2.128   7.964  18.946  0.00  0.00    +0.000 A 
ATOM      2  C   UNL     1       1.721   8.897  18.078  0.00  0.00    +0.000 A 
ATOM      3  C   UNL     1       0.885   9.750  18.839  0.00  0.00    +0.000 A 
ATOM      4  C   UNL     1       0.133  10.822  18.602  0.00  0.00    +0.000 A 
ATOM      5  N   UNL     1      -0.596  11.387  19.636  0.00  0.00    +0.000 N 
ATOM      6  C   UNL     1      -1.444  12.545  19.382  0.00  0.00    +0.000 C 
ATOM      7  C   UNL     1      -0.571  10.870  20.953  0.00  0.00    +0.000 A 
ATOM      8  O   UNL     1      -1.227  11.394  21.849  0.00  0.00    +0.000 OA
ATOM      9  N   UNL     1       0.204   9.747  21.208  0.00  0.00    +0.000 NA
ATOM     10  C   UNL     1       0.850   9.260  20.214  0.00  0.00    +0.000 A 
ATOM     11  O   UNL     1       1.652   8.134  20.274  0.00  0.00    +0.000 OA
ENDROOT
BRANCH   1  13
ATOM     12  C   UNL     1       3.644   5.893  18.343  0.00  0.00    +0.000 C 
ATOM     13  C   UNL     1       2.941   6.838  18.601  0.00  0.00    +0.000 C 
BRANCH  12  14
ATOM     14  C   UNL     1       4.507   4.720  18.049  0.00  0.00    +0.000 C 
BRANCH  14  15
ATOM     15  C   UNL     1       3.982   3.899  16.864  0.00  0.00    +0.000 C 
BRANCH  15  16
ATOM     16  C   UNL     1       2.711   3.105  17.199  0.00  0.00    +0.000 C 
BRANCH  16  17
ATOM     17  C   UNL     1       3.011   1.985  18.203  0.00  0.00    +0.000 C 
BRANCH  17  18
ATOM     18  C   UNL     1       2.241   2.168  19.513  0.00  0.00    +0.000 C 
BRANCH  18  19
ATOM     19  C   UNL     1       1.003   3.042  19.304  0.00  0.00    +0.000 C 
BRANCH  19  21
ATOM     20  C   UNL     1       2.095   4.092  21.311  0.00  0.00    +0.000 C 
ATOM     21  C   UNL     1       0.965   4.200  20.300  0.00  0.00    +0.000 C 
ENDBRANCH  19  21
ENDBRANCH  18  19
ENDBRANCH  17  18
ENDBRANCH  16  17
ENDBRANCH  15  16
ENDBRANCH  14  15
ENDBRANCH  12  14
ENDBRANCH   1  13
TORSDOF 8
ENDMDL
MODEL 2
REMARK VINA RESULT:      -6.2      5.482      7.876
REMARK  Name = 
REMARK  10 active torsions:
REMARK  status: ('A' for Active; 'I' for Inactive)
REMARK    1  A    between atoms: C_1  and  C_2
REMARK    2  A    between atoms: C_2  and  C_3
REMARK    3  A    between atoms: C_3  and  C_4
REMARK    4  A    between atoms: C_4  and  C_5
REMARK    5  A    between atoms: C_5  and  C_6
REMARK    6  A    between atoms: C_6  and  C_7
REMARK    7  A    between atoms: C_7  and  C_8
REMARK    8  A    between atoms: C_8  and  C_9
REMARK    9  A    between atoms: C_10  and  C_11
REMARK   10  A    between atoms: N_15  and  C_16
REMARK                            x       y       z     vdW  Elec       q    Type
REMARK                         _______ _______ _______ _____ _____    ______ ____
ROOT
ATOM      1  C   UNL     1       5.112   4.118  16.327  0.00  0.00    +0.000 A 
ATOM      2  C   UNL     1       5.447   4.260  17.615  0.00  0.00    +0.000 A 
ATOM      3  C   UNL     1       4.285   3.875  18.329  0.00  0.00    +0.000 A 
ATOM      4  C   UNL     1       3.915   3.822  19.606  0.00  0.00    +0.000 A 
ATOM      5  N   UNL     1       2.634   3.401  19.928  0.00  0.00    +0.000 N 
ATOM      6  C   UNL     1       2.208   3.364  21.321  0.00  0.00    +0.000 C 
ATOM      7  C   UNL     1       1.692   3.015  18.944  0.00  0.00    +0.000 A 
ATOM      8  O   UNL     1       0.565   2.645  19.262  0.00  0.00    +0.000 OA
ATOM      9  N   UNL     1       2.068   3.075  17.610  0.00  0.00    +0.000 NA
ATOM     10  C   UNL     1       3.260   3.480  17.368  0.00  0.00    +0.000 A 
ATOM     11  O   UNL     1       3.799   3.625  16.102  0.00  0.00    +0.000 OA
ENDROOT
BRANCH   1  13
ATOM     12  C   UNL     1       6.643   4.774  14.285  0.00  0.00    +0.000 C 
ATOM     13  C   UNL     1       5.959   4.466  15.229  0.00  0.00    +0.000 C 
BRANCH  12  14
ATOM     14  C   UNL     1       7.476   5.176  13.122  0.00  0.00    +0.000 C 
BRANCH  14  15
ATOM     15  C   UNL     1       7.294   4.233  11.927  0.00  0.00    +0.000 C 
BRANCH  15  16
ATOM     16  C   UNL     1       6.415   3.015  12.250  0.00  0.00    +0.000 C 
BRANCH  16  17
ATOM     17  C   UNL     1       5.345   2.806  11.171  0.00  0.00    +0.000 C 
BRANCH  17  18
ATOM     18  C   UNL     1       3.958   3.243  11.648  0.00  0.00    +0.000 C 
BRANCH  18  19
ATOM     19  C   UNL     1       2.965   3.279  10.485  0.00  0.00    +0.000 C 
BRANCH  19  21
ATOM     20  C   UNL     1       2.178   5.050   8.882  0.00  0.00    +0.000 C 
ATOM     21  C   UNL     1       3.382   4.301   9.428  0.00  0.00    +0.000 C 
ENDBRANCH  19  21
ENDBRANCH  18  19
ENDBRANCH  17  18
ENDBRANCH  16  17
ENDBRANCH  15  16
ENDBRANCH  14  15
ENDBRANCH  12  14
ENDBRANCH   1  13
TORSDOF 8
ENDMDL
MODEL 3
REMARK VINA RESULT:      -6.1      1.218      1.866
REMARK  Name = 
REMARK  10 active torsions:
REMARK  status: ('A' for Active; 'I' for Inactive)
REMARK    1  A    between atoms: C_1  and  C_2
REMARK    2  A    between atoms: C_2  and  C_3
REMARK    3  A    between atoms: C_3  and  C_4
REMARK    4  A    between atoms: C_4  and  C_5
REMARK    5  A    between atoms: C_5  and  C_6
REMARK    6  A    between atoms: C_6  and  C_7
REMARK    7  A    between atoms: C_7  and  C_8
REMARK    8  A    between atoms: C_8  and  C_9
REMARK    9  A    between atoms: C_10  and  C_11
REMARK   10  A    between atoms: N_15  and  C_16
REMARK                            x       y       z     vdW  Elec       q    Type
REMARK                         _______ _______ _______ _____ _____    ______ ____
ROOT
ATOM      1  C   UNL     1       2.008   7.553  19.865  0.00  0.00    +0.000 A 
ATOM      2  C   UNL     1       1.460   7.469  21.082  0.00  0.00    +0.000 A 
ATOM      3  C   UNL     1       0.727   8.674  21.226  0.00  0.00    +0.000 A 
ATOM      4  C   UNL     1       0.001   9.250  22.180  0.00  0.00    +0.000 A 
ATOM      5  N   UNL     1      -0.558  10.498  21.953  0.00  0.00    +0.000 N 
ATOM      6  C   UNL     1      -1.333  11.150  23.001  0.00  0.00    +0.000 C 
ATOM      7  C   UNL     1      -0.392  11.192  20.732  0.00  0.00    +0.000 A 
ATOM      8  O   UNL     1      -0.901  12.297  20.560  0.00  0.00    +0.000 OA
ATOM      9  N   UNL     1       0.371  10.602  19.734  0.00  0.00    +0.000 NA
ATOM     10  C   UNL     1       0.872   9.453  20.000  0.00  0.00    +0.000 A 
ATOM     11  O   UNL     1       1.675   8.727  19.138  0.00  0.00    +0.000 OA
ENDROOT
BRANCH   1  13
ATOM     12  C   UNL     1       3.635   5.764  18.817  0.00  0.00    +0.000 C 
ATOM     13  C   UNL     1       2.903   6.583  19.314  0.00  0.00    +0.000 C 
BRANCH  12  14
ATOM     14  C   UNL     1       4.538   4.767  18.184  0.00  0.00    +0.000 C 
BRANCH  14  15
ATOM     15  C   UNL     1       3.881   4.070  16.988  0.00  0.00    +0.000 C 
BRANCH  15  16
ATOM     16  C   UNL     1       2.406   3.716  17.233  0.00  0.00    +0.000 C 
BRANCH  16  17
ATOM     17  C   UNL     1       2.279   2.482  18.135  0.00  0.00    +0.000 C 
BRANCH  17  18
ATOM     18  C   UNL     1       0.919   2.421  18.834  0.00  0.00    +0.000 C 
BRANCH  18  19
ATOM     19  C   UNL     1       0.777   3.548  19.859  0.00  0.00    +0.000 C 
BRANCH  19  21
ATOM     20  C   UNL     1       1.583   2.444  21.969  0.00  0.00    +0.000 C 
ATOM     21  C   UNL     1       1.886   3.490  20.908  0.00  0.00    +0.000 C 
ENDBRANCH  19  21
ENDBRANCH  18  19
ENDBRANCH  17  18
ENDBRANCH  16  17
ENDBRANCH  15  16
ENDBRANCH  14  15
ENDBRANCH  12  14
ENDBRANCH   1  13
TORSDOF 8
ENDMDL
MODEL 4
REMARK VINA RESULT:      -6.0      0.878      1.027
REMARK  Name = 
REMARK  10 active torsions:
REMARK  status: ('A' for Active; 'I' for Inactive)
REMARK    1  A    between atoms: C_1  and  C_2
REMARK    2  A    between atoms: C_2  and  C_3
REMARK    3  A    between atoms: C_3  and  C_4
REMARK    4  A    between atoms: C_4  and  C_5
REMARK    5  A    between atoms: C_5  and  C_6
REMARK    6  A    between atoms: C_6  and  C_7
REMARK    7  A    between atoms: C_7  and  C_8
REMARK    8  A    between atoms: C_8  and  C_9
REMARK    9  A    between atoms: C_10  and  C_11
REMARK   10  A    between atoms: N_15  and  C_16
REMARK                            x       y       z     vdW  Elec       q    Type
REMARK                         _______ _______ _______ _____ _____    ______ ____
ROOT
ATOM      1  C   UNL     1       2.444   8.234  18.331  0.00  0.00    +0.000 A 
ATOM      2  C   UNL     1       1.723   9.137  17.656  0.00  0.00    +0.000 A 
ATOM      3  C   UNL     1       0.879   9.721  18.633  0.00  0.00    +0.000 A 
ATOM      4  C   UNL     1      -0.095  10.628  18.645  0.00  0.00    +0.000 A 
ATOM      5  N   UNL     1      -0.732  10.929  19.838  0.00  0.00    +0.000 N 
ATOM      6  C   UNL     1      -1.818  11.901  19.859  0.00  0.00    +0.000 C 
ATOM      7  C   UNL     1      -0.384  10.309  21.062  0.00  0.00    +0.000 A 
ATOM      8  O   UNL     1      -0.967  10.599  22.104  0.00  0.00    +0.000 OA
ATOM      9  N   UNL     1       0.625   9.356  21.057  0.00  0.00    +0.000 NA
ATOM     10  C   UNL     1       1.174   9.110  19.925  0.00  0.00    +0.000 A 
ATOM     11  O   UNL     1       2.177   8.177  19.725  0.00  0.00    +0.000 OA
ENDROOT
BRANCH   1  13
ATOM     12  C   UNL     1       4.178   6.566  17.257  0.00  0.00    +0.000 C 
ATOM     13  C   UNL     1       3.387   7.342  17.732  0.00  0.00    +0.000 C 
BRANCH  12  14
ATOM     14  C   UNL     1       5.138   5.591  16.677  0.00  0.00    +0.000 C 
BRANCH  14  15
ATOM     15  C   UNL     1       4.526   4.192  16.533  0.00  0.00    +0.000 C 
BRANCH  15  16
ATOM     16  C   UNL     1       3.748   3.745  17.781  0.00  0.00    +0.000 C 
BRANCH  16  17
ATOM     17  C   UNL     1       2.432   3.060  17.392  0.00  0.00    +0.000 C 
BRANCH  17  18
ATOM     18  C   UNL     1       1.233   3.662  18.127  0.00  0.00    +0.000 C 
BRANCH  18  19
ATOM     19  C   UNL     1       0.860   2.820  19.349  0.00  0.00    +0.000 C 
BRANCH  19  21
ATOM     20  C   UNL     1       1.949   2.879  21.614  0.00  0.00    +0.000 C 
ATOM     21  C   UNL     1       1.035   3.611  20.644  0.00  0.00    +0.000 C 
ENDBRANCH  19  21
ENDBRANCH  18  19
ENDBRANCH  17  18
ENDBRANCH  16  17
ENDBRANCH  15  16
ENDBRANCH  14  15
ENDBRANCH  12  14
ENDBRANCH   1  13
TORSDOF 8
ENDMDL
MODEL 5
REMARK VINA RESULT:      -6.0      7.561      8.637
REMARK  Name = 
REMARK  10 active torsions:
REMARK  status: ('A' for Active; 'I' for Inactive)
REMARK    1  A    between atoms: C_1  and  C_2
REMARK    2  A    between atoms: C_2  and  C_3
REMARK    3  A    between atoms: C_3  and  C_4
REMARK    4  A    between atoms: C_4  and  C_5
REMARK    5  A    between atoms: C_5  and  C_6
REMARK    6  A    between atoms: C_6  and  C_7
REMARK    7  A    between atoms: C_7  and  C_8
REMARK    8  A    between atoms: C_8  and  C_9
REMARK    9  A    between atoms: C_10  and  C_11
REMARK   10  A    between atoms: N_15  and  C_16
REMARK                            x       y       z     vdW  Elec       q    Type
REMARK                         _______ _______ _______ _____ _____    ______ ____
ROOT
ATOM      1  C   UNL     1       8.980  10.501  18.434  0.00  0.00    +0.000 A 
ATOM      2  C   UNL     1       9.924  10.724  19.356  0.00  0.00    +0.000 A 
ATOM      3  C   UNL     1      10.210  12.108  19.244  0.00  0.00    +0.000 A 
ATOM      4  C   UNL     1      11.057  12.963  19.810  0.00  0.00    +0.000 A 
ATOM      5  N   UNL     1      11.063  14.288  19.404  0.00  0.00    +0.000 N 
ATOM      6  C   UNL     1      12.005  15.229  19.997  0.00  0.00    +0.000 C 
ATOM      7  C   UNL     1      10.191  14.778  18.403  0.00  0.00    +0.000 A 
ATOM      8  O   UNL     1      10.219  15.959  18.065  0.00  0.00    +0.000 OA
ATOM      9  N   UNL     1       9.310  13.891  17.802  0.00  0.00    +0.000 NA
ATOM     10  C   UNL     1       9.353  12.676  18.209  0.00  0.00    +0.000 A 
ATOM     11  O   UNL     1       8.568  11.652  17.710  0.00  0.00    +0.000 OA
ENDROOT
BRANCH   1  13
ATOM     12  C   UNL     1       8.005   8.115  17.888  0.00  0.00    +0.000 C 
ATOM     13  C   UNL     1       8.433   9.215  18.133  0.00  0.00    +0.000 C 
BRANCH  12  14
ATOM     14  C   UNL     1       7.488   6.750  17.607  0.00  0.00    +0.000 C 
BRANCH  14  15
ATOM     15  C   UNL     1       7.399   5.893  18.876  0.00  0.00    +0.000 C 
BRANCH  15  16
ATOM     16  C   UNL     1       6.049   5.174  19.023  0.00  0.00    +0.000 C 
BRANCH  16  17
ATOM     17  C   UNL     1       5.063   5.628  17.939  0.00  0.00    +0.000 C 
BRANCH  17  18
ATOM     18  C   UNL     1       4.807   4.532  16.903  0.00  0.00    +0.000 C 
BRANCH  18  19
ATOM     19  C   UNL     1       5.264   4.976  15.511  0.00  0.00    +0.000 C 
BRANCH  19  21
ATOM     20  C   UNL     1       6.003   3.783  13.425  0.00  0.00    +0.000 C 
ATOM     21  C   UNL     1       6.260   3.985  14.910  0.00  0.00    +0.000 C 
ENDBRANCH  19  21
ENDBRANCH  18  19
ENDBRANCH  17  18
ENDBRANCH  16  17
ENDBRANCH  15  16
ENDBRANCH  14  15
ENDBRANCH  12  14
ENDBRANCH   1  13
TORSDOF 8
ENDMDL
MODEL 6
REMARK VINA RESULT:      -6.0      6.805      7.634
REMARK  Name = 
REMARK  10 active torsions:
REMARK  status: ('A' for Active; 'I' for Inactive)
REMARK    1  A    between atoms: C_1  and  C_2
REMARK    2  A    between atoms: C_2  and  C_3
REMARK    3  A    between atoms: C_3  and  C_4
REMARK    4  A    between atoms: C_4  and  C_5
REMARK    5  A    between atoms: C_5  and  C_6
REMARK    6  A    between atoms: C_6  and  C_7
REMARK    7  A    between atoms: C_7  and  C_8
REMARK    8  A    between atoms: C_8  and  C_9
REMARK    9  A    between atoms: C_10  and  C_11
REMARK   10  A    between atoms: N_15  and  C_16
REMARK                            x       y       z     vdW  Elec       q    Type
REMARK                         _______ _______ _______ _____ _____    ______ ____
ROOT
ATOM      1  C   UNL     1       8.443   9.727  18.185  0.00  0.00    +0.000 A 
ATOM      2  C   UNL     1       9.314   9.927  19.180  0.00  0.00    +0.000 A 
ATOM      3  C   UNL     1       9.614  11.310  19.117  0.00  0.00    +0.000 A 
ATOM      4  C   UNL     1      10.420  12.150  19.762  0.00  0.00    +0.000 A 
ATOM      5  N   UNL     1      10.463  13.482  19.382  0.00  0.00    +0.000 N 
ATOM      6  C   UNL     1      11.361  14.406  20.064  0.00  0.00    +0.000 C 
ATOM      7  C   UNL     1       9.672  13.996  18.327  0.00  0.00    +0.000 A 
ATOM      8  O   UNL     1       9.731  15.183  18.015  0.00  0.00    +0.000 OA
ATOM      9  N   UNL     1       8.835  13.126  17.643  0.00  0.00    +0.000 NA
ATOM     10  C   UNL     1       8.842  11.903  18.030  0.00  0.00    +0.000 A 
ATOM     11  O   UNL     1       8.092  10.893  17.453  0.00  0.00    +0.000 OA
ENDROOT
BRANCH   1  13
ATOM     12  C   UNL     1       7.489   7.374  17.477  0.00  0.00    +0.000 C 
ATOM     13  C   UNL     1       7.914   8.450  17.818  0.00  0.00    +0.000 C 
BRANCH  12  14
ATOM     14  C   UNL     1       6.988   6.041  17.051  0.00  0.00    +0.000 C 
BRANCH  14  15
ATOM     15  C   UNL     1       5.583   6.118  16.444  0.00  0.00    +0.000 C 
BRANCH  15  16
ATOM     16  C   UNL     1       4.523   6.615  17.439  0.00  0.00    +0.000 C 
BRANCH  16  17
ATOM     17  C   UNL     1       4.101   5.493  18.397  0.00  0.00    +0.000 C 
BRANCH  17  18
ATOM     18  C   UNL     1       2.595   5.508  18.668  0.00  0.00    +0.000 C 
BRANCH  18  19
ATOM     19  C   UNL     1       1.853   4.585  17.699  0.00  0.00    +0.000 C 
BRANCH  19  21
ATOM     20  C   UNL     1       2.383   2.161  18.103  0.00  0.00    +0.000 C 
ATOM     21  C   UNL     1       2.722   3.398  17.287  0.00  0.00    +0.000 C 
ENDBRANCH  19  21
ENDBRANCH  18  19
ENDBRANCH  17  18
ENDBRANCH  16  17
ENDBRANCH  15  16
ENDBRANCH  14  15
ENDBRANCH  12  14
ENDBRANCH   1  13
TORSDOF 8
ENDMDL
MODEL 7
REMARK VINA RESULT:      -6.0      4.672      7.490
REMARK  Name = 
REMARK  10 active torsions:
REMARK  status: ('A' for Active; 'I' for Inactive)
REMARK    1  A    between atoms: C_1  and  C_2
REMARK    2  A    between atoms: C_2  and  C_3
REMARK    3  A    between atoms: C_3  and  C_4
REMARK    4  A    between atoms: C_4  and  C_5
REMARK    5  A    between atoms: C_5  and  C_6
REMARK    6  A    between atoms: C_6  and  C_7
REMARK    7  A    between atoms: C_7  and  C_8
REMARK    8  A    between atoms: C_8  and  C_9
REMARK    9  A    between atoms: C_10  and  C_11
REMARK   10  A    between atoms: N_15  and  C_16
REMARK                            x       y       z     vdW  Elec       q    Type
REMARK                         _______ _______ _______ _____ _____    ______ ____
ROOT
ATOM      1  C   UNL     1       4.890   4.442  16.560  0.00  0.00    +0.000 A 
ATOM      2  C   UNL     1       4.777   3.293  17.236  0.00  0.00    +0.000 A 
ATOM      3  C   UNL     1       3.879   3.588  18.292  0.00  0.00    +0.000 A 
ATOM      4  C   UNL     1       3.374   2.936  19.336  0.00  0.00    +0.000 A 
ATOM      5  N   UNL     1       2.513   3.594  20.200  0.00  0.00    +0.000 N 
ATOM      6  C   UNL     1       1.975   2.899  21.362  0.00  0.00    +0.000 C 
ATOM      7  C   UNL     1       2.136   4.945  20.013  0.00  0.00    +0.000 A 
ATOM      8  O   UNL     1       1.369   5.500  20.795  0.00  0.00    +0.000 OA
ATOM      9  N   UNL     1       2.664   5.635  18.931  0.00  0.00    +0.000 NA
ATOM     10  C   UNL     1       3.462   4.982  18.170  0.00  0.00    +0.000 A 
ATOM     11  O   UNL     1       4.099   5.510  17.061  0.00  0.00    +0.000 OA
ENDROOT
BRANCH   1  13
ATOM     12  C   UNL     1       6.467   4.794  14.479  0.00  0.00    +0.000 C 
ATOM     13  C   UNL     1       5.761   4.639  15.443  0.00  0.00    +0.000 C 
BRANCH  12  14
ATOM     14  C   UNL     1       7.319   4.997  13.278  0.00  0.00    +0.000 C 
BRANCH  14  15
ATOM     15  C   UNL     1       7.156   3.865  12.256  0.00  0.00    +0.000 C 
BRANCH  15  16
ATOM     16  C   UNL     1       5.825   3.112  12.399  0.00  0.00    +0.000 C 
BRANCH  16  17
ATOM     17  C   UNL     1       4.728   3.767  11.550  0.00  0.00    +0.000 C 
BRANCH  17  18
ATOM     18  C   UNL     1       3.825   2.729  10.881  0.00  0.00    +0.000 C 
BRANCH  18  19
ATOM     19  C   UNL     1       2.587   3.390  10.272  0.00  0.00    +0.000 C 
BRANCH  19  21
ATOM     20  C   UNL     1       2.078   5.354   8.787  0.00  0.00    +0.000 C 
ATOM     21  C   UNL     1       2.923   4.103   8.963  0.00  0.00    +0.000 C 
ENDBRANCH  19  21
ENDBRANCH  18  19
ENDBRANCH  17  18
ENDBRANCH  16  17
ENDBRANCH  15  16
ENDBRANCH  14  15
ENDBRANCH  12  14
ENDBRANCH   1  13
TORSDOF 8
ENDMDL
MODEL 8
REMARK VINA RESULT:      -6.0      5.244      7.657
REMARK  Name = 
REMARK  10 active torsions:
REMARK  status: ('A' for Active; 'I' for Inactive)
REMARK    1  A    between atoms: C_1  and  C_2
REMARK    2  A    between atoms: C_2  and  C_3
REMARK    3  A    between atoms: C_3  and  C_4
REMARK    4  A    between atoms: C_4  and  C_5
REMARK    5  A    between atoms: C_5  and  C_6
REMARK    6  A    between atoms: C_6  and  C_7
REMARK    7  A    between atoms: C_7  and  C_8
REMARK    8  A    between atoms: C_8  and  C_9
REMARK    9  A    between atoms: C_10  and  C_11
REMARK   10  A    between atoms: N_15  and  C_16
REMARK                            x       y       z     vdW  Elec       q    Type
REMARK                         _______ _______ _______ _____ _____    ______ ____
ROOT
ATOM      1  C   UNL     1       4.789   5.026  17.117  0.00  0.00    +0.000 A 
ATOM      2  C   UNL     1       4.438   4.204  16.122  0.00  0.00    +0.000 A 
ATOM      3  C   UNL     1       5.451   4.374  15.146  0.00  0.00    +0.000 A 
ATOM      4  C   UNL     1       5.696   3.912  13.923  0.00  0.00    +0.000 A 
ATOM      5  N   UNL     1       6.821   4.348  13.241  0.00  0.00    +0.000 N 
ATOM      6  C   UNL     1       7.085   3.869  11.890  0.00  0.00    +0.000 C 
ATOM      7  C   UNL     1       7.736   5.271  13.799  0.00  0.00    +0.000 A 
ATOM      8  O   UNL     1       8.726   5.637  13.170  0.00  0.00    +0.000 OA
ATOM      9  N   UNL     1       7.484   5.765  15.071  0.00  0.00    +0.000 NA
ATOM     10  C   UNL     1       6.425   5.336  15.653  0.00  0.00    +0.000 A 
ATOM     11  O   UNL     1       6.003   5.733  16.909  0.00  0.00    +0.000 OA
ENDROOT
BRANCH   1  13
ATOM     12  C   UNL     1       3.385   5.446  19.308  0.00  0.00    +0.000 C 
ATOM     13  C   UNL     1       4.011   5.244  18.297  0.00  0.00    +0.000 C 
BRANCH  12  14
ATOM     14  C   UNL     1       2.620   5.719  20.553  0.00  0.00    +0.000 C 
BRANCH  14  15
ATOM     15  C   UNL     1       1.957   4.455  21.113  0.00  0.00    +0.000 C 
BRANCH  15  16
ATOM     16  C   UNL     1       0.657   4.084  20.384  0.00  0.00    +0.000 C 
BRANCH  16  17
ATOM     17  C   UNL     1       0.928   3.083  19.254  0.00  0.00    +0.000 C 
BRANCH  17  18
ATOM     18  C   UNL     1       1.941   2.012  19.666  0.00  0.00    +0.000 C 
BRANCH  18  19
ATOM     19  C   UNL     1       2.891   1.683  18.513  0.00  0.00    +0.000 C 
BRANCH  19  21
ATOM     20  C   UNL     1       4.465   1.952  20.455  0.00  0.00    +0.000 C 
ATOM     21  C   UNL     1       4.352   1.791  18.948  0.00  0.00    +0.000 C 
ENDBRANCH  19  21
ENDBRANCH  18  19
ENDBRANCH  17  18
ENDBRANCH  16  17
ENDBRANCH  15  16
ENDBRANCH  14  15
ENDBRANCH  12  14
ENDBRANCH   1  13
TORSDOF 8
ENDMDL
MODEL 9
REMARK VINA RESULT:      -5.9      1.311      2.093
REMARK  Name = 
REMARK  10 active torsions:
REMARK  status: ('A' for Active; 'I' for Inactive)
REMARK    1  A    between atoms: C_1  and  C_2
REMARK    2  A    between atoms: C_2  and  C_3
REMARK    3  A    between atoms: C_3  and  C_4
REMARK    4  A    between atoms: C_4  and  C_5
REMARK    5  A    between atoms: C_5  and  C_6
REMARK    6  A    between atoms: C_6  and  C_7
REMARK    7  A    between atoms: C_7  and  C_8
REMARK    8  A    between atoms: C_8  and  C_9
REMARK    9  A    between atoms: C_10  and  C_11
REMARK   10  A    between atoms: N_15  and  C_16
REMARK                            x       y       z     vdW  Elec       q    Type
REMARK                         _______ _______ _______ _____ _____    ______ ____
ROOT
ATOM      1  C   UNL     1       2.189   7.995  18.961  0.00  0.00    +0.000 A 
ATOM      2  C   UNL     1       1.908   7.636  20.219  0.00  0.00    +0.000 A 
ATOM      3  C   UNL     1       1.038   8.649  20.692  0.00  0.00    +0.000 A 
ATOM      4  C   UNL     1       0.430   8.936  21.840  0.00  0.00    +0.000 A 
ATOM      5  N   UNL     1      -0.352  10.076  21.932  0.00  0.00    +0.000 N 
ATOM      6  C   UNL     1      -1.002  10.415  23.192  0.00  0.00    +0.000 C 
ATOM      7  C   UNL     1      -0.539  10.958  20.841  0.00  0.00    +0.000 A 
ATOM      8  O   UNL     1      -1.240  11.961  20.954  0.00  0.00    +0.000 OA
ATOM      9  N   UNL     1       0.098  10.671  19.643  0.00  0.00    +0.000 NA
ATOM     10  C   UNL     1       0.816   9.609  19.616  0.00  0.00    +0.000 A 
ATOM     11  O   UNL     1       1.540   9.178  18.518  0.00  0.00    +0.000 OA
ENDROOT
BRANCH   1  13
ATOM     12  C   UNL     1       3.896   6.737  17.396  0.00  0.00    +0.000 C 
ATOM     13  C   UNL     1       3.101   7.299  18.107  0.00  0.00    +0.000 C 
BRANCH  12  14
ATOM     14  C   UNL     1       4.894   6.045  16.539  0.00  0.00    +0.000 C 
BRANCH  14  15
ATOM     15  C   UNL     1       5.083   4.577  16.942  0.00  0.00    +0.000 C 
BRANCH  15  16
ATOM     16  C   UNL     1       5.385   4.397  18.437  0.00  0.00    +0.000 C 
BRANCH  16  17
ATOM     17  C   UNL     1       4.456   3.350  19.064  0.00  0.00    +0.000 C 
BRANCH  17  18
ATOM     18  C   UNL     1       3.222   3.087  18.198  0.00  0.00    +0.000 C 
BRANCH  18  19
ATOM     19  C   UNL     1       1.970   3.704  18.825  0.00  0.00    +0.000 C 
BRANCH  19  21
ATOM     20  C   UNL     1       1.263   3.009  21.136  0.00  0.00    +0.000 C 
ATOM     21  C   UNL     1       2.155   3.935  20.324  0.00  0.00    +0.000 C 
ENDBRANCH  19  21
ENDBRANCH  18  19
ENDBRANCH  17  18
ENDBRANCH  16  17
ENDBRANCH  15  16
ENDBRANCH  14  15
ENDBRANCH  12  14
ENDBRANCH   1  13
TORSDOF 8
ENDMDL
