MODEL 1
REMARK VINA RESULT:      -7.8      0.000      0.000
REMARK  Name = 
REMARK  9 active torsions:
REMARK  status: ('A' for Active; 'I' for Inactive)
REMARK    1  A    between atoms: N_1  and  C_2
REMARK    2  A    between atoms: C_2  and  C_3
REMARK    3  A    between atoms: C_6  and  C_7
REMARK    4  A    between atoms: N_9  and  C_10
REMARK    5  A    between atoms: C_18  and  C_19
REMARK    6  A    between atoms: C_23  and  C_24
REMARK    7  A    between atoms: N_26  and  C_27
REMARK    8  A    between atoms: C_30  and  C_31
REMARK    9  A    between atoms: C_31  and  O_33
REMARK                            x       y       z     vdW  Elec       q    Type
REMARK                         _______ _______ _______ _____ _____    ______ ____
ROOT
ATOM      1  C   UNL     1      -3.308  11.152  16.758  0.00  0.00    +0.000 A 
ATOM      2  C   UNL     1      -4.711  11.182  16.602  0.00  0.00    +0.000 A 
ATOM      3  C   UNL     1      -5.545  11.610  17.624  0.00  0.00    +0.000 A 
ATOM      4  C   UNL     1      -5.001  12.006  18.843  0.00  0.00    +0.000 A 
ATOM      5  C   UNL     1      -3.617  11.943  19.038  0.00  0.00    +0.000 A 
ATOM      6  C   UNL     1      -2.728  11.521  18.005  0.00  0.00    +0.000 A 
ENDROOT
BRANCH   6   7
ATOM      7  C   UNL     1      -1.260  11.509  18.294  0.00  0.00    +0.000 A 
ATOM      8  C   UNL     1      -0.429  12.633  18.143  0.00  0.00    +0.000 A 
ATOM      9  C   UNL     1       0.939  12.606  18.446  0.00  0.00    +0.000 A 
ATOM     10  C   UNL     1       1.539  11.423  18.854  0.00  0.00    +0.000 A 
ATOM     11  C   UNL     1       0.753  10.280  18.979  0.00  0.00    +0.000 A 
ATOM     12  C   UNL     1      -0.624  10.329  18.713  0.00  0.00    +0.000 A 
BRANCH  11  13
ATOM     13  C   UNL     1       1.336   8.966  19.333  0.00  0.00    +0.000 C 
ATOM     14  O   UNL     1       1.144   8.543  20.468  0.00  0.00    +0.000 OA
ATOM     15  N   UNL     1       2.100   8.368  18.348  0.00  0.00    +0.000 N 
ATOM     16  H   UNL     1       2.363   8.934  17.551  0.00  0.00    +0.000 HD
BRANCH  15  17
ATOM     17  C   UNL     1       2.673   7.086  18.433  0.00  0.00    +0.000 A 
ATOM     18  C   UNL     1       4.003   6.884  18.819  0.00  0.00    +0.000 A 
ATOM     19  C   UNL     1       4.538   5.601  18.896  0.00  0.00    +0.000 A 
ATOM     20  C   UNL     1       3.751   4.498  18.564  0.00  0.00    +0.000 A 
ATOM     21  C   UNL     1       2.409   4.687  18.205  0.00  0.00    +0.000 A 
ATOM     22  C   UNL     1       1.871   5.976  18.148  0.00  0.00    +0.000 A 
BRANCH  20  23
ATOM     23  C   UNL     1       4.285   3.119  18.632  0.00  0.00    +0.000 C 
ATOM     24  O   UNL     1       4.642   2.603  19.681  0.00  0.00    +0.000 OA
BRANCH  23  25
ATOM     25  O   UNL     1       4.312   2.475  17.447  0.00  0.00    +0.000 OA
ATOM     26  H   UNL     1       3.567   1.870  17.286  0.00  0.00    +0.000 HD
ENDBRANCH  23  25
ENDBRANCH  20  23
ENDBRANCH  15  17
ENDBRANCH  11  13
ENDBRANCH   6   7
BRANCH   4  27
ATOM     27  C   UNL     1      -5.959  12.373  19.918  0.00  0.00    +0.000 C 
ATOM     28  O   UNL     1      -7.137  12.098  19.712  0.00  0.00    +0.000 OA
ATOM     29  N   UNL     1      -5.468  13.048  21.020  0.00  0.00    +0.000 N 
ATOM     30  H   UNL     1      -4.515  13.395  21.003  0.00  0.00    +0.000 HD
BRANCH  29  31
ATOM     31  C   UNL     1      -6.272  13.481  22.116  0.00  0.00    +0.000 A 
ATOM     32  C   UNL     1      -6.651  12.638  23.159  0.00  0.00    +0.000 A 
ATOM     33  C   UNL     1      -7.466  13.126  24.169  0.00  0.00    +0.000 A 
ATOM     34  N   UNL     1      -7.915  14.398  24.220  0.00  0.00    +0.000 NA
ATOM     35  C   UNL     1      -7.524  15.211  23.210  0.00  0.00    +0.000 A 
ATOM     36  C   UNL     1      -6.712  14.805  22.162  0.00  0.00    +0.000 A 
ATOM     37  F   UNL     1      -6.384  15.670  21.193  0.00  0.00    +0.000 F 
ENDBRANCH  29  31
ENDBRANCH   4  27
BRANCH   1  38
ATOM     38  C   UNL     1      -2.536  10.705  15.533  0.00  0.00    +0.000 C 
BRANCH  38  39
ATOM     39  N   UNL     1      -3.401  10.031  14.570  0.00  0.00    +0.000 NA
ATOM     40  H   UNL     1      -4.049  10.704  14.166  0.00  0.00    +0.000 HD
ATOM     41  H   UNL     1      -3.967   9.331  15.047  0.00  0.00    +0.000 HD
ENDBRANCH  38  39
ENDBRANCH   1  38
TORSDOF 9
ENDMDL
MODEL 2
REMARK VINA RESULT:      -7.8      5.392     11.233
REMARK  Name = 
REMARK  9 active torsions:
REMARK  status: ('A' for Active; 'I' for Inactive)
REMARK    1  A    between atoms: N_1  and  C_2
REMARK    2  A    between atoms: C_2  and  C_3
REMARK    3  A    between atoms: C_6  and  C_7
REMARK    4  A    between atoms: N_9  and  C_10
REMARK    5  A    between atoms: C_18  and  C_19
REMARK    6  A    between atoms: C_23  and  C_24
REMARK    7  A    between atoms: N_26  and  C_27
REMARK    8  A    between atoms: C_30  and  C_31
REMARK    9  A    between atoms: C_31  and  O_33
REMARK                            x       y       z     vdW  Elec       q    Type
REMARK                         _______ _______ _______ _____ _____    ______ ____
ROOT
ATOM      1  C   UNL     1       0.740   8.827  20.858  0.00  0.00    +0.000 A 
ATOM      2  C   UNL     1       1.300   7.584  21.228  0.00  0.00    +0.000 A 
ATOM      3  C   UNL     1       2.101   6.863  20.355  0.00  0.00    +0.000 A 
ATOM      4  C   UNL     1       2.355   7.356  19.079  0.00  0.00    +0.000 A 
ATOM      5  C   UNL     1       1.776   8.563  18.673  0.00  0.00    +0.000 A 
ATOM      6  C   UNL     1       0.957   9.338  19.547  0.00  0.00    +0.000 A 
ENDROOT
BRANCH   6   7
ATOM      7  C   UNL     1       0.400  10.630  19.038  0.00  0.00    +0.000 A 
ATOM      8  C   UNL     1      -0.825  10.734  18.357  0.00  0.00    +0.000 A 
ATOM      9  C   UNL     1      -1.341  11.959  17.912  0.00  0.00    +0.000 A 
ATOM     10  C   UNL     1      -0.608  13.125  18.083  0.00  0.00    +0.000 A 
ATOM     11  C   UNL     1       0.628  13.054  18.722  0.00  0.00    +0.000 A 
ATOM     12  C   UNL     1       1.116  11.828  19.198  0.00  0.00    +0.000 A 
BRANCH  11  13
ATOM     13  C   UNL     1       1.500  14.242  18.869  0.00  0.00    +0.000 C 
ATOM     14  O   UNL     1       0.996  15.346  18.687  0.00  0.00    +0.000 OA
ATOM     15  N   UNL     1       2.829  13.977  19.143  0.00  0.00    +0.000 N 
ATOM     16  H   UNL     1       3.148  13.022  19.034  0.00  0.00    +0.000 HD
BRANCH  15  17
ATOM     17  C   UNL     1       3.812  14.948  19.407  0.00  0.00    +0.000 A 
ATOM     18  C   UNL     1       4.346  15.144  20.685  0.00  0.00    +0.000 A 
ATOM     19  C   UNL     1       5.321  16.113  20.912  0.00  0.00    +0.000 A 
ATOM     20  C   UNL     1       5.761  16.916  19.860  0.00  0.00    +0.000 A 
ATOM     21  C   UNL     1       5.255  16.706  18.569  0.00  0.00    +0.000 A 
ATOM     22  C   UNL     1       4.290  15.720  18.343  0.00  0.00    +0.000 A 
BRANCH  20  23
ATOM     23  C   UNL     1       6.794  17.957  20.062  0.00  0.00    +0.000 C 
ATOM     24  O   UNL     1       6.888  18.598  21.099  0.00  0.00    +0.000 OA
BRANCH  23  25
ATOM     25  O   UNL     1       7.639  18.109  19.022  0.00  0.00    +0.000 OA
ATOM     26  H   UNL     1       8.513  18.476  19.246  0.00  0.00    +0.000 HD
ENDBRANCH  23  25
ENDBRANCH  20  23
ENDBRANCH  15  17
ENDBRANCH  11  13
ENDBRANCH   6   7
BRANCH   4  27
ATOM     27  C   UNL     1       3.153   6.490  18.171  0.00  0.00    +0.000 C 
ATOM     28  O   UNL     1       2.590   5.486  17.747  0.00  0.00    +0.000 OA
ATOM     29  N   UNL     1       4.469   6.840  17.935  0.00  0.00    +0.000 N 
ATOM     30  H   UNL     1       4.891   7.580  18.487  0.00  0.00    +0.000 HD
BRANCH  29  31
ATOM     31  C   UNL     1       5.359   6.093  17.107  0.00  0.00    +0.000 A 
ATOM     32  C   UNL     1       5.248   6.053  15.718  0.00  0.00    +0.000 A 
ATOM     33  C   UNL     1       6.129   5.272  14.985  0.00  0.00    +0.000 A 
ATOM     34  N   UNL     1       7.121   4.544  15.539  0.00  0.00    +0.000 NA
ATOM     35  C   UNL     1       7.229   4.608  16.887  0.00  0.00    +0.000 A 
ATOM     36  C   UNL     1       6.391   5.360  17.694  0.00  0.00    +0.000 A 
ATOM     37  F   UNL     1       6.557   5.356  19.024  0.00  0.00    +0.000 F 
ENDBRANCH  29  31
ENDBRANCH   4  27
BRANCH   1  38
ATOM     38  C   UNL     1      -0.072   9.510  21.940  0.00  0.00    +0.000 C 
BRANCH  38  39
ATOM     39  N   UNL     1      -0.790   8.543  22.765  0.00  0.00    +0.000 NA
ATOM     40  H   UNL     1      -1.016   8.966  23.663  0.00  0.00    +0.000 HD
ATOM     41  H   UNL     1      -0.188   7.746  22.961  0.00  0.00    +0.000 HD
ENDBRANCH  38  39
ENDBRANCH   1  38
TORSDOF 9
ENDMDL
MODEL 3
REMARK VINA RESULT:      -7.8      2.052      2.418
REMARK  Name = 
REMARK  9 active torsions:
REMARK  status: ('A' for Active; 'I' for Inactive)
REMARK    1  A    between atoms: N_1  and  C_2
REMARK    2  A    between atoms: C_2  and  C_3
REMARK    3  A    between atoms: C_6  and  C_7
REMARK    4  A    between atoms: N_9  and  C_10
REMARK    5  A    between atoms: C_18  and  C_19
REMARK    6  A    between atoms: C_23  and  C_24
REMARK    7  A    between atoms: N_26  and  C_27
REMARK    8  A    between atoms: C_30  and  C_31
REMARK    9  A    between atoms: C_31  and  O_33
REMARK                            x       y       z     vdW  Elec       q    Type
REMARK                         _______ _______ _______ _____ _____    ______ ____
ROOT
ATOM      1  C   UNL     1      -2.872  11.199  17.976  0.00  0.00    +0.000 A 
ATOM      2  C   UNL     1      -4.242  11.408  18.252  0.00  0.00    +0.000 A 
ATOM      3  C   UNL     1      -4.656  12.109  19.374  0.00  0.00    +0.000 A 
ATOM      4  C   UNL     1      -3.712  12.610  20.266  0.00  0.00    +0.000 A 
ATOM      5  C   UNL     1      -2.352  12.379  20.039  0.00  0.00    +0.000 A 
ATOM      6  C   UNL     1      -1.888  11.673  18.889  0.00  0.00    +0.000 A 
ENDROOT
BRANCH   6   7
ATOM      7  C   UNL     1      -0.413  11.494  18.713  0.00  0.00    +0.000 A 
ATOM      8  C   UNL     1       0.497  12.563  18.644  0.00  0.00    +0.000 A 
ATOM      9  C   UNL     1       1.879  12.370  18.507  0.00  0.00    +0.000 A 
ATOM     10  C   UNL     1       2.393  11.089  18.370  0.00  0.00    +0.000 A 
ATOM     11  C   UNL     1       1.516  10.007  18.397  0.00  0.00    +0.000 A 
ATOM     12  C   UNL     1       0.139  10.209  18.576  0.00  0.00    +0.000 A 
BRANCH  11  13
ATOM     13  C   UNL     1       1.982   8.618  18.178  0.00  0.00    +0.000 C 
ATOM     14  O   UNL     1       2.290   8.293  17.036  0.00  0.00    +0.000 OA
ATOM     15  N   UNL     1       1.967   7.801  19.293  0.00  0.00    +0.000 N 
ATOM     16  H   UNL     1       1.472   8.134  20.111  0.00  0.00    +0.000 HD
BRANCH  15  17
ATOM     17  C   UNL     1       2.446   6.479  19.336  0.00  0.00    +0.000 A 
ATOM     18  C   UNL     1       1.698   5.428  19.876  0.00  0.00    +0.000 A 
ATOM     19  C   UNL     1       2.202   4.130  19.900  0.00  0.00    +0.000 A 
ATOM     20  C   UNL     1       3.478   3.870  19.401  0.00  0.00    +0.000 A 
ATOM     21  C   UNL     1       4.224   4.911  18.829  0.00  0.00    +0.000 A 
ATOM     22  C   UNL     1       3.706   6.209  18.791  0.00  0.00    +0.000 A 
BRANCH  20  23
ATOM     23  C   UNL     1       4.048   2.504  19.411  0.00  0.00    +0.000 C 
ATOM     24  O   UNL     1       3.527   1.570  18.820  0.00  0.00    +0.000 OA
BRANCH  23  25
ATOM     25  O   UNL     1       5.204   2.390  20.096  0.00  0.00    +0.000 OA
ATOM     26  H   UNL     1       5.122   2.015  20.991  0.00  0.00    +0.000 HD
ENDBRANCH  23  25
ENDBRANCH  20  23
ENDBRANCH  15  17
ENDBRANCH  11  13
ENDBRANCH   6   7
BRANCH   4  27
ATOM     27  C   UNL     1      -4.232  13.278  21.488  0.00  0.00    +0.000 C 
ATOM     28  O   UNL     1      -4.936  12.593  22.222  0.00  0.00    +0.000 OA
ATOM     29  N   UNL     1      -3.945  14.619  21.664  0.00  0.00    +0.000 N 
ATOM     30  H   UNL     1      -3.519  15.138  20.903  0.00  0.00    +0.000 HD
BRANCH  29  31
ATOM     31  C   UNL     1      -4.394  15.394  22.775  0.00  0.00    +0.000 A 
ATOM     32  C   UNL     1      -5.627  16.043  22.796  0.00  0.00    +0.000 A 
ATOM     33  C   UNL     1      -5.976  16.810  23.898  0.00  0.00    +0.000 A 
ATOM     34  N   UNL     1      -5.189  16.958  24.985  0.00  0.00    +0.000 NA
ATOM     35  C   UNL     1      -4.003  16.306  24.958  0.00  0.00    +0.000 A 
ATOM     36  C   UNL     1      -3.576  15.522  23.897  0.00  0.00    +0.000 A 
ATOM     37  F   UNL     1      -2.379  14.922  23.945  0.00  0.00    +0.000 F 
ENDBRANCH  29  31
ENDBRANCH   4  27
BRANCH   1  38
ATOM     38  C   UNL     1      -2.584  10.455  16.688  0.00  0.00    +0.000 C 
BRANCH  38  39
ATOM     39  N   UNL     1      -2.693  11.331  15.525  0.00  0.00    +0.000 NA
ATOM     40  H   UNL     1      -1.904  11.974  15.510  0.00  0.00    +0.000 HD
ATOM     41  H   UNL     1      -3.533  11.901  15.602  0.00  0.00    +0.000 HD
ENDBRANCH  38  39
ENDBRANCH   1  38
TORSDOF 9
ENDMDL
MODEL 4
REMARK VINA RESULT:      -7.6      6.163     12.276
REMARK  Name = 
REMARK  9 active torsions:
REMARK  status: ('A' for Active; 'I' for Inactive)
REMARK    1  A    between atoms: N_1  and  C_2
REMARK    2  A    between atoms: C_2  and  C_3
REMARK    3  A    between atoms: C_6  and  C_7
REMARK    4  A    between atoms: N_9  and  C_10
REMARK    5  A    between atoms: C_18  and  C_19
REMARK    6  A    between atoms: C_23  and  C_24
REMARK    7  A    between atoms: N_26  and  C_27
REMARK    8  A    between atoms: C_30  and  C_31
REMARK    9  A    between atoms: C_31  and  O_33
REMARK                            x       y       z     vdW  Elec       q    Type
REMARK                         _______ _______ _______ _____ _____    ______ ____
ROOT
ATOM      1  C   UNL     1       2.782   4.903  20.152  0.00  0.00    +0.000 A 
ATOM      2  C   UNL     1       3.564   3.896  19.545  0.00  0.00    +0.000 A 
ATOM      3  C   UNL     1       4.230   4.118  18.350  0.00  0.00    +0.000 A 
ATOM      4  C   UNL     1       4.122   5.351  17.714  0.00  0.00    +0.000 A 
ATOM      5  C   UNL     1       3.318   6.351  18.272  0.00  0.00    +0.000 A 
ATOM      6  C   UNL     1       2.628   6.163  19.507  0.00  0.00    +0.000 A 
ENDROOT
BRANCH   6   7
ATOM      7  C   UNL     1       1.811   7.296  20.042  0.00  0.00    +0.000 A 
ATOM      8  C   UNL     1       0.939   7.176  21.138  0.00  0.00    +0.000 A 
ATOM      9  C   UNL     1       0.203   8.258  21.640  0.00  0.00    +0.000 A 
ATOM     10  C   UNL     1       0.271   9.495  21.015  0.00  0.00    +0.000 A 
ATOM     11  C   UNL     1       1.097   9.642  19.903  0.00  0.00    +0.000 A 
ATOM     12  C   UNL     1       1.860   8.561  19.434  0.00  0.00    +0.000 A 
BRANCH  11  13
ATOM     13  C   UNL     1       1.159  10.908  19.138  0.00  0.00    +0.000 C 
ATOM     14  O   UNL     1       0.641  10.929  18.026  0.00  0.00    +0.000 OA
ATOM     15  N   UNL     1       1.856  11.937  19.743  0.00  0.00    +0.000 N 
ATOM     16  H   UNL     1       2.425  11.707  20.548  0.00  0.00    +0.000 HD
BRANCH  15  17
ATOM     17  C   UNL     1       1.968  13.247  19.240  0.00  0.00    +0.000 A 
ATOM     18  C   UNL     1       3.061  13.664  18.474  0.00  0.00    +0.000 A 
ATOM     19  C   UNL     1       3.138  14.968  17.989  0.00  0.00    +0.000 A 
ATOM     20  C   UNL     1       2.125  15.881  18.286  0.00  0.00    +0.000 A 
ATOM     21  C   UNL     1       1.011  15.464  19.028  0.00  0.00    +0.000 A 
ATOM     22  C   UNL     1       0.930  14.149  19.496  0.00  0.00    +0.000 A 
BRANCH  20  23
ATOM     23  C   UNL     1       2.173  17.275  17.790  0.00  0.00    +0.000 C 
ATOM     24  O   UNL     1       2.445  17.551  16.631  0.00  0.00    +0.000 OA
BRANCH  23  25
ATOM     25  O   UNL     1       1.859  18.204  18.715  0.00  0.00    +0.000 OA
ATOM     26  H   UNL     1       1.285  18.926  18.403  0.00  0.00    +0.000 HD
ENDBRANCH  23  25
ENDBRANCH  20  23
ENDBRANCH  15  17
ENDBRANCH  11  13
ENDBRANCH   6   7
BRANCH   4  27
ATOM     27  C   UNL     1       4.796   5.489  16.397  0.00  0.00    +0.000 C 
ATOM     28  O   UNL     1       4.848   6.623  15.931  0.00  0.00    +0.000 OA
ATOM     29  N   UNL     1       5.242   4.339  15.774  0.00  0.00    +0.000 N 
ATOM     30  H   UNL     1       4.978   3.436  16.155  0.00  0.00    +0.000 HD
BRANCH  29  31
ATOM     31  C   UNL     1       5.885   4.317  14.501  0.00  0.00    +0.000 A 
ATOM     32  C   UNL     1       5.346   3.667  13.391  0.00  0.00    +0.000 A 
ATOM     33  C   UNL     1       6.051   3.658  12.197  0.00  0.00    +0.000 A 
ATOM     34  N   UNL     1       7.244   4.266  12.028  0.00  0.00    +0.000 NA
ATOM     35  C   UNL     1       7.746   4.908  13.109  0.00  0.00    +0.000 A 
ATOM     36  C   UNL     1       7.110   4.964  14.339  0.00  0.00    +0.000 A 
ATOM     37  F   UNL     1       7.684   5.611  15.363  0.00  0.00    +0.000 F 
ENDBRANCH  29  31
ENDBRANCH   4  27
BRANCH   1  38
ATOM     38  C   UNL     1       2.157   4.518  21.478  0.00  0.00    +0.000 C 
BRANCH  38  39
ATOM     39  N   UNL     1       2.314   3.093  21.752  0.00  0.00    +0.000 NA
ATOM     40  H   UNL     1       3.298   2.841  21.685  0.00  0.00    +0.000 HD
ATOM     41  H   UNL     1       1.825   2.551  21.043  0.00  0.00    +0.000 HD
ENDBRANCH  38  39
ENDBRANCH   1  38
TORSDOF 9
ENDMDL
MODEL 5
REMARK VINA RESULT:      -7.6      4.765      8.287
REMARK  Name = 
REMARK  9 active torsions:
REMARK  status: ('A' for Active; 'I' for Inactive)
REMARK    1  A    between atoms: N_1  and  C_2
REMARK    2  A    between atoms: C_2  and  C_3
REMARK    3  A    between atoms: C_6  and  C_7
REMARK    4  A    between atoms: N_9  and  C_10
REMARK    5  A    between atoms: C_18  and  C_19
REMARK    6  A    between atoms: C_23  and  C_24
REMARK    7  A    between atoms: N_26  and  C_27
REMARK    8  A    between atoms: C_30  and  C_31
REMARK    9  A    between atoms: C_31  and  O_33
REMARK                            x       y       z     vdW  Elec       q    Type
REMARK                         _______ _______ _______ _____ _____    ______ ____
ROOT
ATOM      1  C   UNL     1      -0.117  13.538  19.589  0.00  0.00    +0.000 A 
ATOM      2  C   UNL     1       0.275  14.788  19.061  0.00  0.00    +0.000 A 
ATOM      3  C   UNL     1       1.598  15.202  19.089  0.00  0.00    +0.000 A 
ATOM      4  C   UNL     1       2.569  14.385  19.661  0.00  0.00    +0.000 A 
ATOM      5  C   UNL     1       2.199  13.162  20.229  0.00  0.00    +0.000 A 
ATOM      6  C   UNL     1       0.851  12.697  20.208  0.00  0.00    +0.000 A 
ENDROOT
BRANCH   6   7
ATOM      7  C   UNL     1       0.550  11.364  20.818  0.00  0.00    +0.000 A 
ATOM      8  C   UNL     1      -0.248  11.194  21.962  0.00  0.00    +0.000 A 
ATOM      9  C   UNL     1      -0.539   9.933  22.500  0.00  0.00    +0.000 A 
ATOM     10  C   UNL     1       0.017   8.792  21.939  0.00  0.00    +0.000 A 
ATOM     11  C   UNL     1       0.843   8.926  20.825  0.00  0.00    +0.000 A 
ATOM     12  C   UNL     1       1.095  10.190  20.271  0.00  0.00    +0.000 A 
BRANCH  11  13
ATOM     13  C   UNL     1       1.535   7.763  20.222  0.00  0.00    +0.000 C 
ATOM     14  O   UNL     1       2.023   7.906  19.106  0.00  0.00    +0.000 OA
ATOM     15  N   UNL     1       1.508   6.600  20.969  0.00  0.00    +0.000 N 
ATOM     16  H   UNL     1       0.874   6.564  21.757  0.00  0.00    +0.000 HD
BRANCH  15  17
ATOM     17  C   UNL     1       2.172   5.406  20.634  0.00  0.00    +0.000 A 
ATOM     18  C   UNL     1       1.665   4.147  20.971  0.00  0.00    +0.000 A 
ATOM     19  C   UNL     1       2.346   2.983  20.620  0.00  0.00    +0.000 A 
ATOM     20  C   UNL     1       3.562   3.068  19.943  0.00  0.00    +0.000 A 
ATOM     21  C   UNL     1       4.064   4.323  19.573  0.00  0.00    +0.000 A 
ATOM     22  C   UNL     1       3.367   5.487  19.910  0.00  0.00    +0.000 A 
BRANCH  20  23
ATOM     23  C   UNL     1       4.316   1.854  19.555  0.00  0.00    +0.000 C 
ATOM     24  O   UNL     1       5.215   1.390  20.241  0.00  0.00    +0.000 OA
BRANCH  23  25
ATOM     25  O   UNL     1       3.902   1.289  18.402  0.00  0.00    +0.000 OA
ATOM     26  H   UNL     1       3.522   0.397  18.489  0.00  0.00    +0.000 HD
ENDBRANCH  23  25
ENDBRANCH  20  23
ENDBRANCH  15  17
ENDBRANCH  11  13
ENDBRANCH   6   7
BRANCH   4  27
ATOM     27  C   UNL     1       3.950  14.930  19.729  0.00  0.00    +0.000 C 
ATOM     28  O   UNL     1       4.387  15.161  20.852  0.00  0.00    +0.000 OA
ATOM     29  N   UNL     1       4.600  15.196  18.538  0.00  0.00    +0.000 N 
ATOM     30  H   UNL     1       4.079  15.151  17.669  0.00  0.00    +0.000 HD
BRANCH  29  31
ATOM     31  C   UNL     1       5.916  15.741  18.450  0.00  0.00    +0.000 A 
ATOM     32  C   UNL     1       6.232  17.033  18.867  0.00  0.00    +0.000 A 
ATOM     33  C   UNL     1       7.527  17.503  18.713  0.00  0.00    +0.000 A 
ATOM     34  N   UNL     1       8.532  16.769  18.189  0.00  0.00    +0.000 NA
ATOM     35  C   UNL     1       8.215  15.509  17.806  0.00  0.00    +0.000 A 
ATOM     36  C   UNL     1       6.947  14.962  17.923  0.00  0.00    +0.000 A 
ATOM     37  F   UNL     1       6.715  13.710  17.505  0.00  0.00    +0.000 F 
ENDBRANCH  29  31
ENDBRANCH   4  27
BRANCH   1  38
ATOM     38  C   UNL     1      -1.590  13.213  19.440  0.00  0.00    +0.000 C 
BRANCH  38  39
ATOM     39  N   UNL     1      -2.420  14.091  20.261  0.00  0.00    +0.000 NA
ATOM     40  H   UNL     1      -2.847  13.550  21.010  0.00  0.00    +0.000 HD
ATOM     41  H   UNL     1      -3.182  14.466  19.699  0.00  0.00    +0.000 HD
ENDBRANCH  38  39
ENDBRANCH   1  38
TORSDOF 9
ENDMDL
MODEL 6
REMARK VINA RESULT:      -7.5      4.688      7.735
REMARK  Name = 
REMARK  9 active torsions:
REMARK  status: ('A' for Active; 'I' for Inactive)
REMARK    1  A    between atoms: N_1  and  C_2
REMARK    2  A    between atoms: C_2  and  C_3
REMARK    3  A    between atoms: C_6  and  C_7
REMARK    4  A    between atoms: N_9  and  C_10
REMARK    5  A    between atoms: C_18  and  C_19
REMARK    6  A    between atoms: C_23  and  C_24
REMARK    7  A    between atoms: N_26  and  C_27
REMARK    8  A    between atoms: C_30  and  C_31
REMARK    9  A    between atoms: C_31  and  O_33
REMARK                            x       y       z     vdW  Elec       q    Type
REMARK                         _______ _______ _______ _____ _____    ______ ____
ROOT
ATOM      1  C   UNL     1      -0.315  13.111  19.195  0.00  0.00    +0.000 A 
ATOM      2  C   UNL     1      -0.059  14.377  18.623  0.00  0.00    +0.000 A 
ATOM      3  C   UNL     1       1.101  15.080  18.910  0.00  0.00    +0.000 A 
ATOM      4  C   UNL     1       2.035  14.546  19.793  0.00  0.00    +0.000 A 
ATOM      5  C   UNL     1       1.784  13.314  20.407  0.00  0.00    +0.000 A 
ATOM      6  C   UNL     1       0.608  12.557  20.126  0.00  0.00    +0.000 A 
ENDROOT
BRANCH   6   7
ATOM      7  C   UNL     1       0.434  11.237  20.809  0.00  0.00    +0.000 A 
ATOM      8  C   UNL     1      -0.254  11.075  22.024  0.00  0.00    +0.000 A 
ATOM      9  C   UNL     1      -0.428   9.824  22.632  0.00  0.00    +0.000 A 
ATOM     10  C   UNL     1       0.141   8.691  22.069  0.00  0.00    +0.000 A 
ATOM     11  C   UNL     1       0.861   8.820  20.884  0.00  0.00    +0.000 A 
ATOM     12  C   UNL     1       0.995  10.071  20.262  0.00  0.00    +0.000 A 
BRANCH  11  13
ATOM     13  C   UNL     1       1.563   7.670  20.268  0.00  0.00    +0.000 C 
ATOM     14  O   UNL     1       2.156   7.863  19.211  0.00  0.00    +0.000 OA
ATOM     15  N   UNL     1       1.426   6.464  20.929  0.00  0.00    +0.000 N 
ATOM     16  H   UNL     1       0.722   6.404  21.653  0.00  0.00    +0.000 HD
BRANCH  15  17
ATOM     17  C   UNL     1       2.073   5.266  20.574  0.00  0.00    +0.000 A 
ATOM     18  C   UNL     1       1.456   4.017  20.693  0.00  0.00    +0.000 A 
ATOM     19  C   UNL     1       2.125   2.851  20.328  0.00  0.00    +0.000 A 
ATOM     20  C   UNL     1       3.437   2.920  19.859  0.00  0.00    +0.000 A 
ATOM     21  C   UNL     1       4.054   4.170  19.707  0.00  0.00    +0.000 A 
ATOM     22  C   UNL     1       3.371   5.339  20.056  0.00  0.00    +0.000 A 
BRANCH  20  23
ATOM     23  C   UNL     1       4.181   1.702  19.464  0.00  0.00    +0.000 C 
ATOM     24  O   UNL     1       5.170   1.311  20.066  0.00  0.00    +0.000 OA
BRANCH  23  25
ATOM     25  O   UNL     1       3.653   1.048  18.409  0.00  0.00    +0.000 OA
ATOM     26  H   UNL     1       2.778   1.363  18.120  0.00  0.00    +0.000 HD
ENDBRANCH  23  25
ENDBRANCH  20  23
ENDBRANCH  15  17
ENDBRANCH  11  13
ENDBRANCH   6   7
BRANCH   4  27
ATOM     27  C   UNL     1       3.213  15.392  20.117  0.00  0.00    +0.000 C 
ATOM     28  O   UNL     1       2.976  16.464  20.665  0.00  0.00    +0.000 OA
ATOM     29  N   UNL     1       4.459  14.946  19.718  0.00  0.00    +0.000 N 
ATOM     30  H   UNL     1       4.524  14.142  19.103  0.00  0.00    +0.000 HD
BRANCH  29  31
ATOM     31  C   UNL     1       5.673  15.662  19.941  0.00  0.00    +0.000 A 
ATOM     32  C   UNL     1       6.573  15.334  20.953  0.00  0.00    +0.000 A 
ATOM     33  C   UNL     1       7.713  16.103  21.130  0.00  0.00    +0.000 A 
ATOM     34  N   UNL     1       8.027  17.163  20.355  0.00  0.00    +0.000 NA
ATOM     35  C   UNL     1       7.154  17.459  19.364  0.00  0.00    +0.000 A 
ATOM     36  C   UNL     1       5.991  16.745  19.120  0.00  0.00    +0.000 A 
ATOM     37  F   UNL     1       5.173  17.114  18.125  0.00  0.00    +0.000 F 
ENDBRANCH  29  31
ENDBRANCH   4  27
BRANCH   1  38
ATOM     38  C   UNL     1      -1.604  12.453  18.744  0.00  0.00    +0.000 C 
BRANCH  38  39
ATOM     39  N   UNL     1      -1.625  12.247  17.299  0.00  0.00    +0.000 NA
ATOM     40  H   UNL     1      -0.744  11.831  17.003  0.00  0.00    +0.000 HD
ATOM     41  H   UNL     1      -1.698  13.146  16.825  0.00  0.00    +0.000 HD
ENDBRANCH  38  39
ENDBRANCH   1  38
TORSDOF 9
ENDMDL
MODEL 7
REMARK VINA RESULT:      -7.5      1.596      1.732
REMARK  Name = 
REMARK  9 active torsions:
REMARK  status: ('A' for Active; 'I' for Inactive)
REMARK    1  A    between atoms: N_1  and  C_2
REMARK    2  A    between atoms: C_2  and  C_3
REMARK    3  A    between atoms: C_6  and  C_7
REMARK    4  A    between atoms: N_9  and  C_10
REMARK    5  A    between atoms: C_18  and  C_19
REMARK    6  A    between atoms: C_23  and  C_24
REMARK    7  A    between atoms: N_26  and  C_27
REMARK    8  A    between atoms: C_30  and  C_31
REMARK    9  A    between atoms: C_31  and  O_33
REMARK                            x       y       z     vdW  Elec       q    Type
REMARK                         _______ _______ _______ _____ _____    ______ ____
ROOT
ATOM      1  C   UNL     1      -3.186  10.778  17.621  0.00  0.00    +0.000 A 
ATOM      2  C   UNL     1      -4.594  10.797  17.733  0.00  0.00    +0.000 A 
ATOM      3  C   UNL     1      -5.232  11.531  18.721  0.00  0.00    +0.000 A 
ATOM      4  C   UNL     1      -4.480  12.258  19.640  0.00  0.00    +0.000 A 
ATOM      5  C   UNL     1      -3.083  12.220  19.578  0.00  0.00    +0.000 A 
ATOM      6  C   UNL     1      -2.392  11.487  18.568  0.00  0.00    +0.000 A 
ENDROOT
BRANCH   6   7
ATOM      7  C   UNL     1      -0.897  11.524  18.562  0.00  0.00    +0.000 A 
ATOM      8  C   UNL     1      -0.147  12.712  18.617  0.00  0.00    +0.000 A 
ATOM      9  C   UNL     1       1.254  12.721  18.638  0.00  0.00    +0.000 A 
ATOM     10  C   UNL     1       1.959  11.529  18.540  0.00  0.00    +0.000 A 
ATOM     11  C   UNL     1       1.249  10.335  18.447  0.00  0.00    +0.000 A 
ATOM     12  C   UNL     1      -0.154  10.335  18.468  0.00  0.00    +0.000 A 
BRANCH  11  13
ATOM     13  C   UNL     1       1.932   9.034  18.260  0.00  0.00    +0.000 C 
ATOM     14  O   UNL     1       2.592   8.877  17.238  0.00  0.00    +0.000 OA
ATOM     15  N   UNL     1       1.703   8.093  19.247  0.00  0.00    +0.000 N 
ATOM     16  H   UNL     1       0.957   8.277  19.905  0.00  0.00    +0.000 HD
BRANCH  15  17
ATOM     17  C   UNL     1       2.316   6.828  19.319  0.00  0.00    +0.000 A 
ATOM     18  C   UNL     1       3.292   6.416  18.406  0.00  0.00    +0.000 A 
ATOM     19  C   UNL     1       3.881   5.157  18.509  0.00  0.00    +0.000 A 
ATOM     20  C   UNL     1       3.480   4.283  19.519  0.00  0.00    +0.000 A 
ATOM     21  C   UNL     1       2.525   4.698  20.457  0.00  0.00    +0.000 A 
ATOM     22  C   UNL     1       1.951   5.970  20.361  0.00  0.00    +0.000 A 
BRANCH  20  23
ATOM     23  C   UNL     1       4.082   2.937  19.659  0.00  0.00    +0.000 C 
ATOM     24  O   UNL     1       5.268   2.769  19.900  0.00  0.00    +0.000 OA
BRANCH  23  25
ATOM     25  O   UNL     1       3.204   1.922  19.531  0.00  0.00    +0.000 OA
ATOM     26  H   UNL     1       3.511   1.171  18.992  0.00  0.00    +0.000 HD
ENDBRANCH  23  25
ENDBRANCH  20  23
ENDBRANCH  15  17
ENDBRANCH  11  13
ENDBRANCH   6   7
BRANCH   4  27
ATOM     27  C   UNL     1      -5.228  12.953  20.720  0.00  0.00    +0.000 C 
ATOM     28  O   UNL     1      -5.914  12.243  21.448  0.00  0.00    +0.000 OA
ATOM     29  N   UNL     1      -5.153  14.332  20.775  0.00  0.00    +0.000 N 
ATOM     30  H   UNL     1      -4.715  14.835  20.010  0.00  0.00    +0.000 HD
BRANCH  29  31
ATOM     31  C   UNL     1      -5.834  15.132  21.740  0.00  0.00    +0.000 A 
ATOM     32  C   UNL     1      -7.130  15.609  21.551  0.00  0.00    +0.000 A 
ATOM     33  C   UNL     1      -7.710  16.414  22.520  0.00  0.00    +0.000 A 
ATOM     34  N   UNL     1      -7.095  16.760  23.670  0.00  0.00    +0.000 NA
ATOM     35  C   UNL     1      -5.844  16.275  23.850  0.00  0.00    +0.000 A 
ATOM     36  C   UNL     1      -5.190  15.467  22.932  0.00  0.00    +0.000 A 
ATOM     37  F   UNL     1      -3.944  15.040  23.181  0.00  0.00    +0.000 F 
ENDBRANCH  29  31
ENDBRANCH   4  27
BRANCH   1  38
ATOM     38  C   UNL     1      -2.646   9.966  16.461  0.00  0.00    +0.000 C 
BRANCH  38  39
ATOM     39  N   UNL     1      -2.425  10.796  15.281  0.00  0.00    +0.000 NA
ATOM     40  H   UNL     1      -3.258  10.781  14.696  0.00  0.00    +0.000 HD
ATOM     41  H   UNL     1      -1.669  10.404  14.722  0.00  0.00    +0.000 HD
ENDBRANCH  38  39
ENDBRANCH   1  38
TORSDOF 9
ENDMDL
MODEL 8
REMARK VINA RESULT:      -7.4      5.106      9.146
REMARK  Name = 
REMARK  9 active torsions:
REMARK  status: ('A' for Active; 'I' for Inactive)
REMARK    1  A    between atoms: N_1  and  C_2
REMARK    2  A    between atoms: C_2  and  C_3
REMARK    3  A    between atoms: C_6  and  C_7
REMARK    4  A    between atoms: N_9  and  C_10
REMARK    5  A    between atoms: C_18  and  C_19
REMARK    6  A    between atoms: C_23  and  C_24
REMARK    7  A    between atoms: N_26  and  C_27
REMARK    8  A    between atoms: C_30  and  C_31
REMARK    9  A    between atoms: C_31  and  O_33
REMARK                            x       y       z     vdW  Elec       q    Type
REMARK                         _______ _______ _______ _____ _____    ______ ____
ROOT
ATOM      1  C   UNL     1       1.235  15.566  18.758  0.00  0.00    +0.000 A 
ATOM      2  C   UNL     1       2.144  16.642  18.862  0.00  0.00    +0.000 A 
ATOM      3  C   UNL     1       3.514  16.432  18.905  0.00  0.00    +0.000 A 
ATOM      4  C   UNL     1       4.018  15.135  18.862  0.00  0.00    +0.000 A 
ATOM      5  C   UNL     1       3.137  14.050  18.804  0.00  0.00    +0.000 A 
ATOM      6  C   UNL     1       1.722  14.229  18.745  0.00  0.00    +0.000 A 
ENDROOT
BRANCH   6   7
ATOM      7  C   UNL     1       0.857  13.012  18.659  0.00  0.00    +0.000 A 
ATOM      8  C   UNL     1      -0.491  13.042  18.261  0.00  0.00    +0.000 A 
ATOM      9  C   UNL     1      -1.276  11.885  18.161  0.00  0.00    +0.000 A 
ATOM     10  C   UNL     1      -0.748  10.653  18.521  0.00  0.00    +0.000 A 
ATOM     11  C   UNL     1       0.574  10.590  18.955  0.00  0.00    +0.000 A 
ATOM     12  C   UNL     1       1.363  11.749  19.012  0.00  0.00    +0.000 A 
BRANCH  11  13
ATOM     13  C   UNL     1       1.180   9.325  19.430  0.00  0.00    +0.000 C 
ATOM     14  O   UNL     1       1.000   9.010  20.602  0.00  0.00    +0.000 OA
ATOM     15  N   UNL     1       1.948   8.646  18.502  0.00  0.00    +0.000 N 
ATOM     16  H   UNL     1       2.199   9.137  17.653  0.00  0.00    +0.000 HD
BRANCH  15  17
ATOM     17  C   UNL     1       2.542   7.387  18.706  0.00  0.00    +0.000 A 
ATOM     18  C   UNL     1       3.550   6.891  17.873  0.00  0.00    +0.000 A 
ATOM     19  C   UNL     1       4.120   5.641  18.106  0.00  0.00    +0.000 A 
ATOM     20  C   UNL     1       3.668   4.859  19.169  0.00  0.00    +0.000 A 
ATOM     21  C   UNL     1       2.680   5.360  20.028  0.00  0.00    +0.000 A 
ATOM     22  C   UNL     1       2.125   6.623  19.801  0.00  0.00    +0.000 A 
BRANCH  20  23
ATOM     23  C   UNL     1       4.248   3.525  19.447  0.00  0.00    +0.000 C 
ATOM     24  O   UNL     1       3.613   2.632  19.988  0.00  0.00    +0.000 OA
BRANCH  23  25
ATOM     25  O   UNL     1       5.518   3.373  19.021  0.00  0.00    +0.000 OA
ATOM     26  H   UNL     1       5.839   4.064  18.414  0.00  0.00    +0.000 HD
ENDBRANCH  23  25
ENDBRANCH  20  23
ENDBRANCH  15  17
ENDBRANCH  11  13
ENDBRANCH   6   7
BRANCH   4  27
ATOM     27  C   UNL     1       5.490  14.982  18.995  0.00  0.00    +0.000 C 
ATOM     28  O   UNL     1       5.952  15.146  20.120  0.00  0.00    +0.000 OA
ATOM     29  N   UNL     1       6.222  14.741  17.848  0.00  0.00    +0.000 N 
ATOM     30  H   UNL     1       5.766  14.816  16.945  0.00  0.00    +0.000 HD
BRANCH  29  31
ATOM     31  C   UNL     1       7.642  14.595  17.821  0.00  0.00    +0.000 A 
ATOM     32  C   UNL     1       8.275  13.357  17.733  0.00  0.00    +0.000 A 
ATOM     33  C   UNL     1       9.660  13.295  17.751  0.00  0.00    +0.000 A 
ATOM     34  N   UNL     1      10.456  14.382  17.834  0.00  0.00    +0.000 NA
ATOM     35  C   UNL     1       9.827  15.580  17.900  0.00  0.00    +0.000 A 
ATOM     36  C   UNL     1       8.449  15.731  17.890  0.00  0.00    +0.000 A 
ATOM     37  F   UNL     1       7.907  16.953  17.974  0.00  0.00    +0.000 F 
ENDBRANCH  29  31
ENDBRANCH   4  27
BRANCH   1  38
ATOM     38  C   UNL     1      -0.225  15.966  18.676  0.00  0.00    +0.000 C 
BRANCH  38  39
ATOM     39  N   UNL     1      -0.552  17.008  19.644  0.00  0.00    +0.000 NA
ATOM     40  H   UNL     1      -1.015  17.780  19.168  0.00  0.00    +0.000 HD
ATOM     41  H   UNL     1       0.305  17.384  20.046  0.00  0.00    +0.000 HD
ENDBRANCH  38  39
ENDBRANCH   1  38
TORSDOF 9
ENDMDL
MODEL 9
REMARK VINA RESULT:      -7.4      1.407      1.650
REMARK  Name = 
REMARK  9 active torsions:
REMARK  status: ('A' for Active; 'I' for Inactive)
REMARK    1  A    between atoms: N_1  and  C_2
REMARK    2  A    between atoms: C_2  and  C_3
REMARK    3  A    between atoms: C_6  and  C_7
REMARK    4  A    between atoms: N_9  and  C_10
REMARK    5  A    between atoms: C_18  and  C_19
REMARK    6  A    between atoms: C_23  and  C_24
REMARK    7  A    between atoms: N_26  and  C_27
REMARK    8  A    between atoms: C_30  and  C_31
REMARK    9  A    between atoms: C_31  and  O_33
REMARK                            x       y       z     vdW  Elec       q    Type
REMARK                         _______ _______ _______ _____ _____    ______ ____
ROOT
ATOM      1  C   UNL     1      -3.002  11.227  17.153  0.00  0.00    +0.000 A 
ATOM      2  C   UNL     1      -4.411  11.324  17.202  0.00  0.00    +0.000 A 
ATOM      3  C   UNL     1      -5.062  11.884  18.290  0.00  0.00    +0.000 A 
ATOM      4  C   UNL     1      -4.323  12.351  19.374  0.00  0.00    +0.000 A 
ATOM      5  C   UNL     1      -2.930  12.227  19.370  0.00  0.00    +0.000 A 
ATOM      6  C   UNL     1      -2.226  11.668  18.263  0.00  0.00    +0.000 A 
ENDROOT
BRANCH   6   7
ATOM      7  C   UNL     1      -0.733  11.597  18.334  0.00  0.00    +0.000 A 
ATOM      8  C   UNL     1       0.099  12.730  18.349  0.00  0.00    +0.000 A 
ATOM      9  C   UNL     1       1.495  12.640  18.444  0.00  0.00    +0.000 A 
ATOM     10  C   UNL     1       2.113  11.398  18.463  0.00  0.00    +0.000 A 
ATOM     11  C   UNL     1       1.321  10.253  18.412  0.00  0.00    +0.000 A 
ATOM     12  C   UNL     1      -0.077  10.355  18.358  0.00  0.00    +0.000 A 
BRANCH  11  13
ATOM     13  C   UNL     1       1.913   8.897  18.349  0.00  0.00    +0.000 C 
ATOM     14  O   UNL     1       2.527   8.589  17.332  0.00  0.00    +0.000 OA
ATOM     15  N   UNL     1       1.658   8.084  19.437  0.00  0.00    +0.000 N 
ATOM     16  H   UNL     1       0.947   8.386  20.092  0.00  0.00    +0.000 HD
BRANCH  15  17
ATOM     17  C   UNL     1       2.190   6.795  19.629  0.00  0.00    +0.000 A 
ATOM     18  C   UNL     1       3.225   6.287  18.838  0.00  0.00    +0.000 A 
ATOM     19  C   UNL     1       3.732   5.008  19.057  0.00  0.00    +0.000 A 
ATOM     20  C   UNL     1       3.189   4.209  20.064  0.00  0.00    +0.000 A 
ATOM     21  C   UNL     1       2.172   4.721  20.882  0.00  0.00    +0.000 A 
ATOM     22  C   UNL     1       1.681   6.012  20.670  0.00  0.00    +0.000 A 
BRANCH  20  23
ATOM     23  C   UNL     1       3.700   2.845  20.326  0.00  0.00    +0.000 C 
ATOM     24  O   UNL     1       4.417   2.248  19.536  0.00  0.00    +0.000 OA
BRANCH  23  25
ATOM     25  O   UNL     1       3.334   2.336  21.520  0.00  0.00    +0.000 OA
ATOM     26  H   UNL     1       3.593   1.410  21.675  0.00  0.00    +0.000 HD
ENDBRANCH  23  25
ENDBRANCH  20  23
ENDBRANCH  15  17
ENDBRANCH  11  13
ENDBRANCH   6   7
BRANCH   4  27
ATOM     27  C   UNL     1      -5.092  12.863  20.539  0.00  0.00    +0.000 C 
ATOM     28  O   UNL     1      -5.684  12.022  21.209  0.00  0.00    +0.000 OA
ATOM     29  N   UNL     1      -5.137  14.230  20.735  0.00  0.00    +0.000 N 
ATOM     30  H   UNL     1      -4.774  14.846  20.014  0.00  0.00    +0.000 HD
BRANCH  29  31
ATOM     31  C   UNL     1      -5.852  14.863  21.795  0.00  0.00    +0.000 A 
ATOM     32  C   UNL     1      -5.248  15.261  22.986  0.00  0.00    +0.000 A 
ATOM     33  C   UNL     1      -6.019  15.835  23.985  0.00  0.00    +0.000 A 
ATOM     34  N   UNL     1      -7.346  16.056  23.871  0.00  0.00    +0.000 NA
ATOM     35  C   UNL     1      -7.916  15.682  22.702  0.00  0.00    +0.000 A 
ATOM     36  C   UNL     1      -7.220  15.100  21.654  0.00  0.00    +0.000 A 
ATOM     37  F   UNL     1      -7.865  14.746  20.534  0.00  0.00    +0.000 F 
ENDBRANCH  29  31
ENDBRANCH   4  27
BRANCH   1  38
ATOM     38  C   UNL     1      -2.444  10.633  15.876  0.00  0.00    +0.000 C 
BRANCH  38  39
ATOM     39  N   UNL     1      -3.338   9.624  15.317  0.00  0.00    +0.000 NA
ATOM     40  H   UNL     1      -2.790   8.922  14.823  0.00  0.00    +0.000 HD
ATOM     41  H   UNL     1      -3.952  10.053  14.627  0.00  0.00    +0.000 HD
ENDBRANCH  38  39
ENDBRANCH   1  38
TORSDOF 9
ENDMDL
