MODEL 1
REMARK VINA RESULT:      -7.5      0.000      0.000
REMARK  Name = 
REMARK  9 active torsions:
REMARK  status: ('A' for Active; 'I' for Inactive)
REMARK    1  A    between atoms: C_1  and  O_2
REMARK    2  A    between atoms: O_2  and  C_3
REMARK    3  A    between atoms: C_8  and  C_9
REMARK    4  A    between atoms: C_9  and  C_10
REMARK    5  A    between atoms: C_9  and  C_11
REMARK    6  A    between atoms: N_13  and  CA_14
REMARK    7  A    between atoms: CA_14  and  CB_15
REMARK    8  A    between atoms: CA_14  and  C_16
REMARK    9  A    between atoms: C_16  and  OXT_18
REMARK                            x       y       z     vdW  Elec       q    Type
REMARK                         _______ _______ _______ _____ _____    ______ ____
ROOT
ATOM      1  C   UNK A   0       1.007  10.116  19.543  0.00  0.00    +0.000 A 
ATOM      2  C   UNK A   0       1.529  10.024  18.255  0.00  0.00    +0.000 A 
ATOM      3  C   UNK A   0       2.084   8.821  17.806  0.00  0.00    +0.000 A 
ATOM      4  C   UNK A   0       2.127   7.686  18.635  0.00  0.00    +0.000 A 
ATOM      5  C   UNK A   0       2.697   6.470  18.205  0.00  0.00    +0.000 A 
ATOM      6  C   UNK A   0       2.756   5.342  19.046  0.00  0.00    +0.000 A 
ATOM      7  C   UNK A   0       2.211   5.450  20.332  0.00  0.00    +0.000 A 
ATOM      8  C   UNK A   0       1.650   6.653  20.773  0.00  0.00    +0.000 A 
ATOM      9  C   UNK A   0       1.606   7.782  19.941  0.00  0.00    +0.000 A 
ATOM     10  C   UNK A   0       1.062   9.002  20.384  0.00  0.00    +0.000 A 
ENDROOT
BRANCH   1  12
ATOM     11  C   UNK A   0      -0.827  11.602  19.599  0.00  0.00    +0.000 C 
ATOM     12  O   UNK A   0       0.460  11.244  20.092  0.00  0.00    +0.000 OA
ENDBRANCH   1  12
BRANCH   6  13
ATOM     13  C   UNK A   0       3.446   4.069  18.573  0.00  0.00    +0.000 C 
ATOM     14  C   UNK A   0       2.797   3.534  17.286  0.00  0.00    +0.000 C 
BRANCH  13  15
ATOM     15  C   UNK A   0       4.954   4.178  18.337  0.00  0.00    +0.000 C 
ATOM     16  O   UNK A   0       5.772   3.914  19.221  0.00  0.00    +0.000 OA
ATOM     17  N   ALA A   1       5.379   4.679  17.132  0.00  0.00    +0.000 N 
ATOM     18  H   ALA A   1       4.717   4.932  16.402  0.00  0.00    +0.000 HD
BRANCH  17  19
ATOM     19  CA  ALA A   1       6.806   4.790  16.849  0.00  0.00    +0.000 C 
ATOM     20  CB  ALA A   1       7.103   4.615  15.365  0.00  0.00    +0.000 C 
BRANCH  19  21
ATOM     21  C   ALA A   1       7.337   6.131  17.345  0.00  0.00    +0.000 C 
ATOM     22  O   ALA A   1       7.337   7.160  16.676  0.00  0.00    +0.000 OA
BRANCH  21  23
ATOM     23  OXT ALA A   1       7.835   6.088  18.604  0.00  0.00    +0.000 OA
ATOM     24  HXT ALA A   1       8.436   6.827  18.825  0.00  0.00    +0.000 HD
ENDBRANCH  21  23
ENDBRANCH  19  21
ENDBRANCH  17  19
ENDBRANCH  13  15
ENDBRANCH   6  13
TORSDOF 6
ENDMDL
MODEL 2
REMARK VINA RESULT:      -7.4      1.435      2.352
REMARK  Name = 
REMARK  9 active torsions:
REMARK  status: ('A' for Active; 'I' for Inactive)
REMARK    1  A    between atoms: C_1  and  O_2
REMARK    2  A    between atoms: O_2  and  C_3
REMARK    3  A    between atoms: C_8  and  C_9
REMARK    4  A    between atoms: C_9  and  C_10
REMARK    5  A    between atoms: C_9  and  C_11
REMARK    6  A    between atoms: N_13  and  CA_14
REMARK    7  A    between atoms: CA_14  and  CB_15
REMARK    8  A    between atoms: CA_14  and  C_16
REMARK    9  A    between atoms: C_16  and  OXT_18
REMARK                            x       y       z     vdW  Elec       q    Type
REMARK                         _______ _______ _______ _____ _____    ______ ____
ROOT
ATOM      1  C   UNK A   0       0.385  10.633  20.993  0.00  0.00    +0.000 A 
ATOM      2  C   UNK A   0       0.546   9.683  21.998  0.00  0.00    +0.000 A 
ATOM      3  C   UNK A   0       1.132   8.446  21.708  0.00  0.00    +0.000 A 
ATOM      4  C   UNK A   0       1.571   8.135  20.408  0.00  0.00    +0.000 A 
ATOM      5  C   UNK A   0       2.149   6.888  20.094  0.00  0.00    +0.000 A 
ATOM      6  C   UNK A   0       2.567   6.575  18.787  0.00  0.00    +0.000 A 
ATOM      7  C   UNK A   0       2.412   7.551  17.794  0.00  0.00    +0.000 A 
ATOM      8  C   UNK A   0       1.832   8.788  18.090  0.00  0.00    +0.000 A 
ATOM      9  C   UNK A   0       1.400   9.095  19.389  0.00  0.00    +0.000 A 
ATOM     10  C   UNK A   0       0.797  10.330  19.692  0.00  0.00    +0.000 A 
ENDROOT
BRANCH   1  12
ATOM     11  C   UNK A   0      -1.393  12.080  20.426  0.00  0.00    +0.000 C 
ATOM     12  O   UNK A   0      -0.191  11.864  21.158  0.00  0.00    +0.000 OA
ENDBRANCH   1  12
BRANCH   6  13
ATOM     13  C   UNK A   0       3.119   5.191  18.470  0.00  0.00    +0.000 C 
ATOM     14  C   UNK A   0       2.121   4.376  17.631  0.00  0.00    +0.000 C 
BRANCH  13  15
ATOM     15  C   UNK A   0       4.475   5.161  17.762  0.00  0.00    +0.000 C 
ATOM     16  O   UNK A   0       4.771   4.274  16.958  0.00  0.00    +0.000 OA
ATOM     17  N   ALA A   1       5.406   6.103  18.122  0.00  0.00    +0.000 N 
ATOM     18  H   ALA A   1       5.191   6.824  18.807  0.00  0.00    +0.000 HD
BRANCH  17  19
ATOM     19  CA  ALA A   1       6.709   6.129  17.467  0.00  0.00    +0.000 C 
ATOM     20  CB  ALA A   1       7.363   7.502  17.565  0.00  0.00    +0.000 C 
BRANCH  19  21
ATOM     21  C   ALA A   1       7.620   5.061  18.066  0.00  0.00    +0.000 C 
ATOM     22  O   ALA A   1       7.987   5.050  19.237  0.00  0.00    +0.000 OA
BRANCH  21  23
ATOM     23  OXT ALA A   1       8.010   4.117  17.177  0.00  0.00    +0.000 OA
ATOM     24  HXT ALA A   1       8.902   3.752  17.342  0.00  0.00    +0.000 HD
ENDBRANCH  21  23
ENDBRANCH  19  21
ENDBRANCH  17  19
ENDBRANCH  13  15
ENDBRANCH   6  13
TORSDOF 6
ENDMDL
MODEL 3
REMARK VINA RESULT:      -7.4      2.282      4.024
REMARK  Name = 
REMARK  9 active torsions:
REMARK  status: ('A' for Active; 'I' for Inactive)
REMARK    1  A    between atoms: C_1  and  O_2
REMARK    2  A    between atoms: O_2  and  C_3
REMARK    3  A    between atoms: C_8  and  C_9
REMARK    4  A    between atoms: C_9  and  C_10
REMARK    5  A    between atoms: C_9  and  C_11
REMARK    6  A    between atoms: N_13  and  CA_14
REMARK    7  A    between atoms: CA_14  and  CB_15
REMARK    8  A    between atoms: CA_14  and  C_16
REMARK    9  A    between atoms: C_16  and  OXT_18
REMARK                            x       y       z     vdW  Elec       q    Type
REMARK                         _______ _______ _______ _____ _____    ______ ____
ROOT
ATOM      1  C   UNK A   0      -0.381  10.731  21.806  0.00  0.00    +0.000 A 
ATOM      2  C   UNK A   0       0.066   9.673  22.594  0.00  0.00    +0.000 A 
ATOM      3  C   UNK A   0       0.842   8.655  22.029  0.00  0.00    +0.000 A 
ATOM      4  C   UNK A   0       1.188   8.675  20.666  0.00  0.00    +0.000 A 
ATOM      5  C   UNK A   0       1.955   7.649  20.077  0.00  0.00    +0.000 A 
ATOM      6  C   UNK A   0       2.281   7.664  18.707  0.00  0.00    +0.000 A 
ATOM      7  C   UNK A   0       1.837   8.745  17.935  0.00  0.00    +0.000 A 
ATOM      8  C   UNK A   0       1.068   9.764  18.506  0.00  0.00    +0.000 A 
ATOM      9  C   UNK A   0       0.729   9.741  19.867  0.00  0.00    +0.000 A 
ATOM     10  C   UNK A   0      -0.062  10.752  20.446  0.00  0.00    +0.000 A 
ENDROOT
BRANCH   1  12
ATOM     11  C   UNK A   0      -1.980  12.379  21.258  0.00  0.00    +0.000 C 
ATOM     12  O   UNK A   0      -1.159  11.766  22.247  0.00  0.00    +0.000 OA
ENDBRANCH   1  12
BRANCH   6  13
ATOM     13  C   UNK A   0       3.049   6.502  18.090  0.00  0.00    +0.000 C 
ATOM     14  C   UNK A   0       4.235   7.004  17.252  0.00  0.00    +0.000 C 
BRANCH  13  15
ATOM     15  C   UNK A   0       3.571   5.452  19.075  0.00  0.00    +0.000 C 
ATOM     16  O   UNK A   0       4.687   5.543  19.592  0.00  0.00    +0.000 OA
ATOM     17  N   ALA A   1       2.798   4.340  19.295  0.00  0.00    +0.000 N 
ATOM     18  H   ALA A   1       1.887   4.233  18.852  0.00  0.00    +0.000 HD
BRANCH  17  19
ATOM     19  CA  ALA A   1       3.241   3.317  20.235  0.00  0.00    +0.000 C 
ATOM     20  CB  ALA A   1       2.097   2.820  21.110  0.00  0.00    +0.000 C 
BRANCH  19  21
ATOM     21  C   ALA A   1       3.880   2.154  19.482  0.00  0.00    +0.000 C 
ATOM     22  O   ALA A   1       3.377   1.609  18.504  0.00  0.00    +0.000 OA
BRANCH  21  23
ATOM     23  OXT ALA A   1       5.064   1.753  20.003  0.00  0.00    +0.000 OA
ATOM     24  HXT ALA A   1       5.738   2.459  20.062  0.00  0.00    +0.000 HD
ENDBRANCH  21  23
ENDBRANCH  19  21
ENDBRANCH  17  19
ENDBRANCH  13  15
ENDBRANCH   6  13
TORSDOF 6
ENDMDL
MODEL 4
REMARK VINA RESULT:      -7.4      2.805      4.302
REMARK  Name = 
REMARK  9 active torsions:
REMARK  status: ('A' for Active; 'I' for Inactive)
REMARK    1  A    between atoms: C_1  and  O_2
REMARK    2  A    between atoms: O_2  and  C_3
REMARK    3  A    between atoms: C_8  and  C_9
REMARK    4  A    between atoms: C_9  and  C_10
REMARK    5  A    between atoms: C_9  and  C_11
REMARK    6  A    between atoms: N_13  and  CA_14
REMARK    7  A    between atoms: CA_14  and  CB_15
REMARK    8  A    between atoms: CA_14  and  C_16
REMARK    9  A    between atoms: C_16  and  OXT_18
REMARK                            x       y       z     vdW  Elec       q    Type
REMARK                         _______ _______ _______ _____ _____    ______ ____
ROOT
ATOM      1  C   UNK A   0      -0.158  10.637  21.632  0.00  0.00    +0.000 A 
ATOM      2  C   UNK A   0       0.287   9.574  22.415  0.00  0.00    +0.000 A 
ATOM      3  C   UNK A   0       1.022   8.534  21.837  0.00  0.00    +0.000 A 
ATOM      4  C   UNK A   0       1.329   8.535  20.465  0.00  0.00    +0.000 A 
ATOM      5  C   UNK A   0       2.054   7.487  19.862  0.00  0.00    +0.000 A 
ATOM      6  C   UNK A   0       2.341   7.483  18.483  0.00  0.00    +0.000 A 
ATOM      7  C   UNK A   0       1.899   8.569  17.715  0.00  0.00    +0.000 A 
ATOM      8  C   UNK A   0       1.172   9.610  18.300  0.00  0.00    +0.000 A 
ATOM      9  C   UNK A   0       0.872   9.606  19.670  0.00  0.00    +0.000 A 
ATOM     10  C   UNK A   0       0.123  10.640  20.263  0.00  0.00    +0.000 A 
ENDROOT
BRANCH   1  12
ATOM     11  C   UNK A   0      -1.713  12.334  21.110  0.00  0.00    +0.000 C 
ATOM     12  O   UNK A   0      -0.898  11.694  22.086  0.00  0.00    +0.000 OA
ENDBRANCH   1  12
BRANCH   6  13
ATOM     13  C   UNK A   0       3.062   6.298  17.855  0.00  0.00    +0.000 C 
ATOM     14  C   UNK A   0       4.584   6.415  18.041  0.00  0.00    +0.000 C 
BRANCH  13  15
ATOM     15  C   UNK A   0       2.626   4.916  18.347  0.00  0.00    +0.000 C 
ATOM     16  O   UNK A   0       1.613   4.361  17.915  0.00  0.00    +0.000 OA
ATOM     17  N   ALA A   1       3.343   4.344  19.367  0.00  0.00    +0.000 N 
ATOM     18  H   ALA A   1       4.163   4.802  19.758  0.00  0.00    +0.000 HD
BRANCH  17  19
ATOM     19  CA  ALA A   1       2.979   3.021  19.863  0.00  0.00    +0.000 C 
ATOM     20  CB  ALA A   1       4.207   2.199  20.234  0.00  0.00    +0.000 C 
BRANCH  19  21
ATOM     21  C   ALA A   1       2.042   3.149  21.061  0.00  0.00    +0.000 C 
ATOM     22  O   ALA A   1       2.414   3.123  22.230  0.00  0.00    +0.000 OA
BRANCH  21  23
ATOM     23  OXT ALA A   1       0.738   3.279  20.720  0.00  0.00    +0.000 OA
ATOM     24  HXT ALA A   1       0.499   4.159  20.366  0.00  0.00    +0.000 HD
ENDBRANCH  21  23
ENDBRANCH  19  21
ENDBRANCH  17  19
ENDBRANCH  13  15
ENDBRANCH   6  13
TORSDOF 6
ENDMDL
MODEL 5
REMARK VINA RESULT:      -7.3      2.405      4.487
REMARK  Name = 
REMARK  9 active torsions:
REMARK  status: ('A' for Active; 'I' for Inactive)
REMARK    1  A    between atoms: C_1  and  O_2
REMARK    2  A    between atoms: O_2  and  C_3
REMARK    3  A    between atoms: C_8  and  C_9
REMARK    4  A    between atoms: C_9  and  C_10
REMARK    5  A    between atoms: C_9  and  C_11
REMARK    6  A    between atoms: N_13  and  CA_14
REMARK    7  A    between atoms: CA_14  and  CB_15
REMARK    8  A    between atoms: CA_14  and  C_16
REMARK    9  A    between atoms: C_16  and  OXT_18
REMARK                            x       y       z     vdW  Elec       q    Type
REMARK                         _______ _______ _______ _____ _____    ______ ____
ROOT
ATOM      1  C   UNK A   0      -0.279  11.009  21.958  0.00  0.00    +0.000 A 
ATOM      2  C   UNK A   0       0.019   9.858  22.684  0.00  0.00    +0.000 A 
ATOM      3  C   UNK A   0       0.708   8.803  22.076  0.00  0.00    +0.000 A 
ATOM      4  C   UNK A   0       1.115   8.878  20.732  0.00  0.00    +0.000 A 
ATOM      5  C   UNK A   0       1.796   7.818  20.099  0.00  0.00    +0.000 A 
ATOM      6  C   UNK A   0       2.183   7.890  18.747  0.00  0.00    +0.000 A 
ATOM      7  C   UNK A   0       1.890   9.063  18.039  0.00  0.00    +0.000 A 
ATOM      8  C   UNK A   0       1.207  10.118  18.654  0.00  0.00    +0.000 A 
ATOM      9  C   UNK A   0       0.807  10.040  19.996  0.00  0.00    +0.000 A 
ATOM     10  C   UNK A   0       0.102  11.088  20.616  0.00  0.00    +0.000 A 
ENDROOT
BRANCH   1  12
ATOM     11  C   UNK A   0      -2.191  11.793  23.101  0.00  0.00    +0.000 C 
ATOM     12  O   UNK A   0      -0.963  12.090  22.443  0.00  0.00    +0.000 OA
ENDBRANCH   1  12
BRANCH   6  13
ATOM     13  C   UNK A   0       2.851   6.697  18.077  0.00  0.00    +0.000 C 
ATOM     14  C   UNK A   0       4.178   7.103  17.418  0.00  0.00    +0.000 C 
BRANCH  13  15
ATOM     15  C   UNK A   0       3.117   5.490  18.981  0.00  0.00    +0.000 C 
ATOM     16  O   UNK A   0       4.160   5.380  19.630  0.00  0.00    +0.000 OA
ATOM     17  N   ALA A   1       2.199   4.470  18.973  0.00  0.00    +0.000 N 
ATOM     18  H   ALA A   1       1.348   4.529  18.419  0.00  0.00    +0.000 HD
BRANCH  17  19
ATOM     19  CA  ALA A   1       2.396   3.304  19.827  0.00  0.00    +0.000 C 
ATOM     20  CB  ALA A   1       1.350   3.229  20.932  0.00  0.00    +0.000 C 
BRANCH  19  21
ATOM     21  C   ALA A   1       2.377   2.029  18.987  0.00  0.00    +0.000 C 
ATOM     22  O   ALA A   1       3.385   1.422  18.638  0.00  0.00    +0.000 OA
BRANCH  21  23
ATOM     23  OXT ALA A   1       1.133   1.625  18.638  0.00  0.00    +0.000 OA
ATOM     24  HXT ALA A   1       0.981   0.664  18.732  0.00  0.00    +0.000 HD
ENDBRANCH  21  23
ENDBRANCH  19  21
ENDBRANCH  17  19
ENDBRANCH  13  15
ENDBRANCH   6  13
TORSDOF 6
ENDMDL
MODEL 6
REMARK VINA RESULT:      -7.3      0.905      1.158
REMARK  Name = 
REMARK  9 active torsions:
REMARK  status: ('A' for Active; 'I' for Inactive)
REMARK    1  A    between atoms: C_1  and  O_2
REMARK    2  A    between atoms: O_2  and  C_3
REMARK    3  A    between atoms: C_8  and  C_9
REMARK    4  A    between atoms: C_9  and  C_10
REMARK    5  A    between atoms: C_9  and  C_11
REMARK    6  A    between atoms: N_13  and  CA_14
REMARK    7  A    between atoms: CA_14  and  CB_15
REMARK    8  A    between atoms: CA_14  and  C_16
REMARK    9  A    between atoms: C_16  and  OXT_18
REMARK                            x       y       z     vdW  Elec       q    Type
REMARK                         _______ _______ _______ _____ _____    ______ ____
ROOT
ATOM      1  C   UNK A   0       0.984   9.633  20.026  0.00  0.00    +0.000 A 
ATOM      2  C   UNK A   0       1.460   9.656  18.718  0.00  0.00    +0.000 A 
ATOM      3  C   UNK A   0       2.014   8.503  18.151  0.00  0.00    +0.000 A 
ATOM      4  C   UNK A   0       2.100   7.304  18.879  0.00  0.00    +0.000 A 
ATOM      5  C   UNK A   0       2.669   6.137  18.330  0.00  0.00    +0.000 A 
ATOM      6  C   UNK A   0       2.772   4.944  19.072  0.00  0.00    +0.000 A 
ATOM      7  C   UNK A   0       2.272   4.936  20.380  0.00  0.00    +0.000 A 
ATOM      8  C   UNK A   0       1.713   6.089  20.939  0.00  0.00    +0.000 A 
ATOM      9  C   UNK A   0       1.625   7.283  20.207  0.00  0.00    +0.000 A 
ATOM     10  C   UNK A   0       1.082   8.453  20.769  0.00  0.00    +0.000 A 
ENDROOT
BRANCH   1  12
ATOM     11  C   UNK A   0      -0.286  11.618  19.874  0.00  0.00    +0.000 C 
ATOM     12  O   UNK A   0       0.443  10.703  20.686  0.00  0.00    +0.000 OA
ENDBRANCH   1  12
BRANCH   6  13
ATOM     13  C   UNK A   0       3.460   3.726  18.470  0.00  0.00    +0.000 C 
ATOM     14  C   UNK A   0       2.571   3.055  17.411  0.00  0.00    +0.000 C 
BRANCH  13  15
ATOM     15  C   UNK A   0       4.836   3.978  17.847  0.00  0.00    +0.000 C 
ATOM     16  O   UNK A   0       5.842   4.151  18.539  0.00  0.00    +0.000 OA
ATOM     17  N   ALA A   1       4.907   4.107  16.483  0.00  0.00    +0.000 N 
ATOM     18  H   ALA A   1       4.081   3.999  15.898  0.00  0.00    +0.000 HD
BRANCH  17  19
ATOM     19  CA  ALA A   1       6.195   4.333  15.837  0.00  0.00    +0.000 C 
ATOM     20  CB  ALA A   1       6.200   3.834  14.398  0.00  0.00    +0.000 C 
BRANCH  19  21
ATOM     21  C   ALA A   1       6.557   5.814  15.889  0.00  0.00    +0.000 C 
ATOM     22  O   ALA A   1       7.620   6.247  16.325  0.00  0.00    +0.000 OA
BRANCH  21  23
ATOM     23  OXT ALA A   1       5.582   6.630  15.422  0.00  0.00    +0.000 OA
ATOM     24  HXT ALA A   1       5.899   7.335  14.824  0.00  0.00    +0.000 HD
ENDBRANCH  21  23
ENDBRANCH  19  21
ENDBRANCH  17  19
ENDBRANCH  13  15
ENDBRANCH   6  13
TORSDOF 6
ENDMDL
MODEL 7
REMARK VINA RESULT:      -7.2      1.088      2.010
REMARK  Name = 
REMARK  9 active torsions:
REMARK  status: ('A' for Active; 'I' for Inactive)
REMARK    1  A    between atoms: C_1  and  O_2
REMARK    2  A    between atoms: O_2  and  C_3
REMARK    3  A    between atoms: C_8  and  C_9
REMARK    4  A    between atoms: C_9  and  C_10
REMARK    5  A    between atoms: C_9  and  C_11
REMARK    6  A    between atoms: N_13  and  CA_14
REMARK    7  A    between atoms: CA_14  and  CB_15
REMARK    8  A    between atoms: CA_14  and  C_16
REMARK    9  A    between atoms: C_16  and  OXT_18
REMARK                            x       y       z     vdW  Elec       q    Type
REMARK                         _______ _______ _______ _____ _____    ______ ____
ROOT
ATOM      1  C   UNK A   0       0.749  10.379  20.483  0.00  0.00    +0.000 A 
ATOM      2  C   UNK A   0       0.704   9.540  21.594  0.00  0.00    +0.000 A 
ATOM      3  C   UNK A   0       1.152   8.218  21.496  0.00  0.00    +0.000 A 
ATOM      4  C   UNK A   0       1.656   7.709  20.285  0.00  0.00    +0.000 A 
ATOM      5  C   UNK A   0       2.097   6.376  20.163  0.00  0.00    +0.000 A 
ATOM      6  C   UNK A   0       2.581   5.865  18.944  0.00  0.00    +0.000 A 
ATOM      7  C   UNK A   0       2.634   6.730  17.843  0.00  0.00    +0.000 A 
ATOM      8  C   UNK A   0       2.192   8.052  17.948  0.00  0.00    +0.000 A 
ATOM      9  C   UNK A   0       1.694   8.556  19.159  0.00  0.00    +0.000 A 
ATOM     10  C   UNK A   0       1.228   9.880  19.269  0.00  0.00    +0.000 A 
ENDROOT
BRANCH   1  12
ATOM     11  C   UNK A   0       1.285  12.633  20.030  0.00  0.00    +0.000 C 
ATOM     12  O   UNK A   0       0.321  11.678  20.460  0.00  0.00    +0.000 OA
ENDBRANCH   1  12
BRANCH   6  13
ATOM     13  C   UNK A   0       2.979   4.400  18.831  0.00  0.00    +0.000 C 
ATOM     14  C   UNK A   0       2.404   3.767  17.554  0.00  0.00    +0.000 C 
BRANCH  13  15
ATOM     15  C   UNK A   0       4.482   4.113  18.871  0.00  0.00    +0.000 C 
ATOM     16  O   UNK A   0       4.962   3.259  19.620  0.00  0.00    +0.000 OA
ATOM     17  N   ALA A   1       5.306   4.909  18.116  0.00  0.00    +0.000 N 
ATOM     18  H   ALA A   1       4.930   5.640  17.516  0.00  0.00    +0.000 HD
BRANCH  17  19
ATOM     19  CA  ALA A   1       6.745   4.669  18.106  0.00  0.00    +0.000 C 
ATOM     20  CB  ALA A   1       7.319   4.740  16.697  0.00  0.00    +0.000 C 
BRANCH  19  21
ATOM     21  C   ALA A   1       7.450   5.667  19.020  0.00  0.00    +0.000 C 
ATOM     22  O   ALA A   1       7.634   5.487  20.220  0.00  0.00    +0.000 OA
BRANCH  21  23
ATOM     23  OXT ALA A   1       7.849   6.796  18.389  0.00  0.00    +0.000 OA
ATOM     24  HXT ALA A   1       8.818   6.909  18.338  0.00  0.00    +0.000 HD
ENDBRANCH  21  23
ENDBRANCH  19  21
ENDBRANCH  17  19
ENDBRANCH  13  15
ENDBRANCH   6  13
TORSDOF 6
ENDMDL
MODEL 8
REMARK VINA RESULT:      -7.1      2.559      3.979
REMARK  Name = 
REMARK  9 active torsions:
REMARK  status: ('A' for Active; 'I' for Inactive)
REMARK    1  A    between atoms: C_1  and  O_2
REMARK    2  A    between atoms: O_2  and  C_3
REMARK    3  A    between atoms: C_8  and  C_9
REMARK    4  A    between atoms: C_9  and  C_10
REMARK    5  A    between atoms: C_9  and  C_11
REMARK    6  A    between atoms: N_13  and  CA_14
REMARK    7  A    between atoms: CA_14  and  CB_15
REMARK    8  A    between atoms: CA_14  and  C_16
REMARK    9  A    between atoms: C_16  and  OXT_18
REMARK                            x       y       z     vdW  Elec       q    Type
REMARK                         _______ _______ _______ _____ _____    ______ ____
ROOT
ATOM      1  C   UNK A   0      -0.070  10.586  21.337  0.00  0.00    +0.000 A 
ATOM      2  C   UNK A   0       0.200   9.469  22.125  0.00  0.00    +0.000 A 
ATOM      3  C   UNK A   0       0.920   8.393  21.594  0.00  0.00    +0.000 A 
ATOM      4  C   UNK A   0       1.386   8.412  20.268  0.00  0.00    +0.000 A 
ATOM      5  C   UNK A   0       2.099   7.330  19.712  0.00  0.00    +0.000 A 
ATOM      6  C   UNK A   0       2.545   7.346  18.376  0.00  0.00    +0.000 A 
ATOM      7  C   UNK A   0       2.278   8.485  17.606  0.00  0.00    +0.000 A 
ATOM      8  C   UNK A   0       1.565   9.562  18.143  0.00  0.00    +0.000 A 
ATOM      9  C   UNK A   0       1.105   9.539  19.469  0.00  0.00    +0.000 A 
ATOM     10  C   UNK A   0       0.369  10.609  20.011  0.00  0.00    +0.000 A 
ENDROOT
BRANCH   1  12
ATOM     11  C   UNK A   0      -0.276  12.937  21.298  0.00  0.00    +0.000 C 
ATOM     12  O   UNK A   0      -0.780  11.683  21.744  0.00  0.00    +0.000 OA
ENDBRANCH   1  12
BRANCH   6  13
ATOM     13  C   UNK A   0       3.247   6.129  17.789  0.00  0.00    +0.000 C 
ATOM     14  C   UNK A   0       4.753   6.158  18.094  0.00  0.00    +0.000 C 
BRANCH  13  15
ATOM     15  C   UNK A   0       2.698   4.768  18.226  0.00  0.00    +0.000 C 
ATOM     16  O   UNK A   0       1.568   4.389  17.908  0.00  0.00    +0.000 OA
ATOM     17  N   ALA A   1       3.465   4.012  19.076  0.00  0.00    +0.000 N 
ATOM     18  H   ALA A   1       4.387   4.323  19.375  0.00  0.00    +0.000 HD
BRANCH  17  19
ATOM     19  CA  ALA A   1       2.996   2.701  19.512  0.00  0.00    +0.000 C 
ATOM     20  CB  ALA A   1       3.450   1.596  18.566  0.00  0.00    +0.000 C 
BRANCH  19  21
ATOM     21  C   ALA A   1       3.474   2.418  20.933  0.00  0.00    +0.000 C 
ATOM     22  O   ALA A   1       2.772   2.543  21.931  0.00  0.00    +0.000 OA
BRANCH  21  23
ATOM     23  OXT ALA A   1       4.768   2.025  21.004  0.00  0.00    +0.000 OA
ATOM     24  HXT ALA A   1       5.096   1.881  21.913  0.00  0.00    +0.000 HD
ENDBRANCH  21  23
ENDBRANCH  19  21
ENDBRANCH  17  19
ENDBRANCH  13  15
ENDBRANCH   6  13
TORSDOF 6
ENDMDL
MODEL 9
REMARK VINA RESULT:      -7.1      1.448      2.277
REMARK  Name = 
REMARK  9 active torsions:
REMARK  status: ('A' for Active; 'I' for Inactive)
REMARK    1  A    between atoms: C_1  and  O_2
REMARK    2  A    between atoms: O_2  and  C_3
REMARK    3  A    between atoms: C_8  and  C_9
REMARK    4  A    between atoms: C_9  and  C_10
REMARK    5  A    between atoms: C_9  and  C_11
REMARK    6  A    between atoms: N_13  and  CA_14
REMARK    7  A    between atoms: CA_14  and  CB_15
REMARK    8  A    between atoms: CA_14  and  C_16
REMARK    9  A    between atoms: C_16  and  OXT_18
REMARK                            x       y       z     vdW  Elec       q    Type
REMARK                         _______ _______ _______ _____ _____    ______ ____
ROOT
ATOM      1  C   UNK A   0       0.197  11.030  20.016  0.00  0.00    +0.000 A 
ATOM      2  C   UNK A   0       0.146  10.412  21.263  0.00  0.00    +0.000 A 
ATOM      3  C   UNK A   0       0.721   9.149  21.446  0.00  0.00    +0.000 A 
ATOM      4  C   UNK A   0       1.360   8.480  20.387  0.00  0.00    +0.000 A 
ATOM      5  C   UNK A   0       1.930   7.201  20.549  0.00  0.00    +0.000 A 
ATOM      6  C   UNK A   0       2.550   6.527  19.480  0.00  0.00    +0.000 A 
ATOM      7  C   UNK A   0       2.606   7.172  18.237  0.00  0.00    +0.000 A 
ATOM      8  C   UNK A   0       2.036   8.437  18.062  0.00  0.00    +0.000 A 
ATOM      9  C   UNK A   0       1.404   9.102  19.123  0.00  0.00    +0.000 A 
ATOM     10  C   UNK A   0       0.810  10.367  18.949  0.00  0.00    +0.000 A 
ENDROOT
BRANCH   1  12
ATOM     11  C   UNK A   0       0.288  12.962  18.662  0.00  0.00    +0.000 C 
ATOM     12  O   UNK A   0      -0.347  12.250  19.719  0.00  0.00    +0.000 OA
ENDBRANCH   1  12
BRANCH   6  13
ATOM     13  C   UNK A   0       3.089   5.116  19.674  0.00  0.00    +0.000 C 
ATOM     14  C   UNK A   0       1.997   4.175  20.207  0.00  0.00    +0.000 C 
BRANCH  13  15
ATOM     15  C   UNK A   0       3.717   4.467  18.438  0.00  0.00    +0.000 C 
ATOM     16  O   UNK A   0       3.222   3.473  17.902  0.00  0.00    +0.000 OA
ATOM     17  N   ALA A   1       4.916   4.964  17.993  0.00  0.00    +0.000 N 
ATOM     18  H   ALA A   1       5.356   5.764  18.443  0.00  0.00    +0.000 HD
BRANCH  17  19
ATOM     19  CA  ALA A   1       5.551   4.393  16.811  0.00  0.00    +0.000 C 
ATOM     20  CB  ALA A   1       5.122   5.111  15.537  0.00  0.00    +0.000 C 
BRANCH  19  21
ATOM     21  C   ALA A   1       7.069   4.431  16.959  0.00  0.00    +0.000 C 
ATOM     22  O   ALA A   1       7.846   4.608  16.025  0.00  0.00    +0.000 OA
BRANCH  21  23
ATOM     23  OXT ALA A   1       7.497   4.231  18.227  0.00  0.00    +0.000 OA
ATOM     24  HXT ALA A   1       6.849   3.783  18.806  0.00  0.00    +0.000 HD
ENDBRANCH  21  23
ENDBRANCH  19  21
ENDBRANCH  17  19
ENDBRANCH  13  15
ENDBRANCH   6  13
TORSDOF 6
ENDMDL
