MODEL 1
REMARK VINA RESULT:      -7.9      0.000      0.000
REMARK  Name = 
REMARK  9 active torsions:
REMARK  status: ('A' for Active; 'I' for Inactive)
REMARK    1  A    between atoms: C_2  and  S_4
REMARK    2  A    between atoms: S_4  and  C_5
REMARK    3  A    between atoms: C_5  and  C_6
REMARK    4  A    between atoms: C_12  and  O_13
REMARK    5  A    between atoms: O_13  and  C_14
REMARK    6  A    between atoms: C_17  and  N_18
REMARK    7  A    between atoms: C_22  and  C_23
REMARK    8  A    between atoms: C_23  and  S_24
REMARK    9  A    between atoms: S_24  and  C_25
REMARK                            x       y       z     vdW  Elec       q    Type
REMARK                         _______ _______ _______ _____ _____    ______ ____
ROOT
ATOM      1  C   UNL     1       5.523   4.302  16.742  0.00  0.00    +0.000 A 
ATOM      2  C   UNL     1       4.808   4.078  15.546  0.00  0.00    +0.000 A 
ATOM      3  C   UNL     1       5.407   4.282  14.305  0.00  0.00    +0.000 A 
ATOM      4  C   UNL     1       6.763   4.595  14.254  0.00  0.00    +0.000 A 
ATOM      5  C   UNL     1       7.526   4.639  15.430  0.00  0.00    +0.000 A 
ATOM      6  C   UNL     1       6.916   4.530  16.703  0.00  0.00    +0.000 A 
ENDROOT
BRANCH   4   7
ATOM      7  N   UNL     1       7.385   4.925  12.964  0.00  0.00    +0.000 N 
ATOM      8  O   UNL     1       8.199   5.860  12.942  0.00  0.00    +0.000 OA
ATOM      9  O   UNL     1       7.079   4.236  11.981  0.00  0.00    +0.000 OA
ENDBRANCH   4   7
BRANCH   1  10
ATOM     10  O   UNL     1       4.834   4.369  17.955  0.00  0.00    +0.000 OA
BRANCH  10  17
ATOM     11  C   UNL     1       3.208   5.631  19.262  0.00  0.00    +0.000 A 
ATOM     12  C   UNL     1       2.348   6.760  19.289  0.00  0.00    +0.000 A 
ATOM     13  C   UNL     1       2.453   7.789  18.355  0.00  0.00    +0.000 A 
ATOM     14 CL   UNL     1       1.321   9.084  18.366  0.00  0.00    +0.000 Cl
ATOM     15  C   UNL     1       3.463   7.764  17.409  0.00  0.00    +0.000 A 
ATOM     16  C   UNL     1       4.329   6.674  17.369  0.00  0.00    +0.000 A 
ATOM     17  C   UNL     1       4.142   5.554  18.211  0.00  0.00    +0.000 A 
BRANCH  11  18
ATOM     18  C   UNL     1       2.934   4.581  20.318  0.00  0.00    +0.000 C 
BRANCH  18  19
ATOM     19  S   UNL     1       1.483   3.527  20.088  0.00  0.00    +0.000 S 
BRANCH  19  21
ATOM     20  N   UNL     1       1.183   3.628  17.454  0.00  0.00    +0.000 NA
ATOM     21  C   UNL     1       1.731   3.015  18.441  0.00  0.00    +0.000 C 
ATOM     22  N   UNL     1       2.544   1.949  18.289  0.00  0.00    +0.000 N 
ATOM     23  H   UNL     1       1.429   3.147  16.585  0.00  0.00    +0.000 HD
ATOM     24  H   UNL     1       3.023   1.864  17.403  0.00  0.00    +0.000 HD
ATOM     25  H   UNL     1       3.137   1.762  19.088  0.00  0.00    +0.000 HD
ENDBRANCH  19  21
ENDBRANCH  18  19
ENDBRANCH  11  18
ENDBRANCH  10  17
ENDBRANCH   1  10
BRANCH   6  26
ATOM     26  C   UNL     1       7.759   4.600  17.969  0.00  0.00    +0.000 C 
BRANCH  26  27
ATOM     27  S   UNL     1       7.281   5.961  19.099  0.00  0.00    +0.000 S 
BRANCH  27  28
ATOM     28  C   UNL     1       7.967   7.313  18.272  0.00  0.00    +0.000 C 
ATOM     29  N   UNL     1       7.628   7.560  17.057  0.00  0.00    +0.000 NA
ATOM     30  N   UNL     1       8.789   8.117  18.972  0.00  0.00    +0.000 N 
ATOM     31  H   UNL     1       6.961   6.840  16.765  0.00  0.00    +0.000 HD
ATOM     32  H   UNL     1       8.568   8.166  19.960  0.00  0.00    +0.000 HD
ATOM     33  H   UNL     1       8.857   9.032  18.540  0.00  0.00    +0.000 HD
ENDBRANCH  27  28
ENDBRANCH  26  27
ENDBRANCH   6  26
TORSDOF 9
ENDMDL
MODEL 2
REMARK VINA RESULT:      -7.8      4.370      6.561
REMARK  Name = 
REMARK  9 active torsions:
REMARK  status: ('A' for Active; 'I' for Inactive)
REMARK    1  A    between atoms: C_2  and  S_4
REMARK    2  A    between atoms: S_4  and  C_5
REMARK    3  A    between atoms: C_5  and  C_6
REMARK    4  A    between atoms: C_12  and  O_13
REMARK    5  A    between atoms: O_13  and  C_14
REMARK    6  A    between atoms: C_17  and  N_18
REMARK    7  A    between atoms: C_22  and  C_23
REMARK    8  A    between atoms: C_23  and  S_24
REMARK    9  A    between atoms: S_24  and  C_25
REMARK                            x       y       z     vdW  Elec       q    Type
REMARK                         _______ _______ _______ _____ _____    ______ ____
ROOT
ATOM      1  C   UNL     1       2.247   6.941  19.536  0.00  0.00    +0.000 A 
ATOM      2  C   UNL     1       1.555   6.128  20.459  0.00  0.00    +0.000 A 
ATOM      3  C   UNL     1       1.270   4.796  20.166  0.00  0.00    +0.000 A 
ATOM      4  C   UNL     1       1.782   4.239  18.997  0.00  0.00    +0.000 A 
ATOM      5  C   UNL     1       2.625   4.988  18.164  0.00  0.00    +0.000 A 
ATOM      6  C   UNL     1       2.848   6.367  18.395  0.00  0.00    +0.000 A 
ENDROOT
BRANCH   4   7
ATOM      7  N   UNL     1       1.398   2.873  18.614  0.00  0.00    +0.000 N 
ATOM      8  O   UNL     1       0.282   2.469  18.971  0.00  0.00    +0.000 OA
ATOM      9  O   UNL     1       2.201   2.215  17.938  0.00  0.00    +0.000 OA
ENDBRANCH   4   7
BRANCH   1  10
ATOM     10  O   UNL     1       2.272   8.325  19.722  0.00  0.00    +0.000 OA
BRANCH  10  17
ATOM     11  C   UNL     1       0.292   9.737  19.903  0.00  0.00    +0.000 A 
ATOM     12  C   UNL     1      -0.553  10.464  20.781  0.00  0.00    +0.000 A 
ATOM     13  C   UNL     1      -0.503  10.291  22.163  0.00  0.00    +0.000 A 
ATOM     14 CL   UNL     1      -1.473  11.270  23.191  0.00  0.00    +0.000 Cl
ATOM     15  C   UNL     1       0.336   9.336  22.711  0.00  0.00    +0.000 A 
ATOM     16  C   UNL     1       1.166   8.599  21.870  0.00  0.00    +0.000 A 
ATOM     17  C   UNL     1       1.236   8.869  20.484  0.00  0.00    +0.000 A 
BRANCH  11  18
ATOM     18  C   UNL     1       0.146  10.075  18.433  0.00  0.00    +0.000 C 
BRANCH  18  19
ATOM     19  S   UNL     1      -1.524  10.077  17.741  0.00  0.00    +0.000 S 
BRANCH  19  21
ATOM     20  N   UNL     1      -1.065  12.672  17.441  0.00  0.00    +0.000 NA
ATOM     21  C   UNL     1      -1.896  11.777  17.837  0.00  0.00    +0.000 C 
ATOM     22  N   UNL     1      -3.113  12.069  18.339  0.00  0.00    +0.000 N 
ATOM     23  H   UNL     1      -1.463  13.598  17.617  0.00  0.00    +0.000 HD
ATOM     24  H   UNL     1      -3.522  12.950  18.058  0.00  0.00    +0.000 HD
ATOM     25  H   UNL     1      -3.767  11.296  18.319  0.00  0.00    +0.000 HD
ENDBRANCH  19  21
ENDBRANCH  18  19
ENDBRANCH  11  18
ENDBRANCH  10  17
ENDBRANCH   1  10
BRANCH   6  26
ATOM     26  C   UNL     1       3.750   7.168  17.467  0.00  0.00    +0.000 C 
BRANCH  26  27
ATOM     27  S   UNL     1       4.983   6.148  16.573  0.00  0.00    +0.000 S 
BRANCH  27  28
ATOM     28  C   UNL     1       6.421   6.571  17.429  0.00  0.00    +0.000 C 
ATOM     29  N   UNL     1       7.118   7.584  17.052  0.00  0.00    +0.000 NA
ATOM     30  N   UNL     1       6.722   5.856  18.529  0.00  0.00    +0.000 N 
ATOM     31  H   UNL     1       6.661   7.989  16.230  0.00  0.00    +0.000 HD
ATOM     32  H   UNL     1       5.910   5.497  19.017  0.00  0.00    +0.000 HD
ATOM     33  H   UNL     1       7.349   6.370  19.137  0.00  0.00    +0.000 HD
ENDBRANCH  27  28
ENDBRANCH  26  27
ENDBRANCH   6  26
TORSDOF 9
ENDMDL
MODEL 3
REMARK VINA RESULT:      -7.7      2.682      6.683
REMARK  Name = 
REMARK  9 active torsions:
REMARK  status: ('A' for Active; 'I' for Inactive)
REMARK    1  A    between atoms: C_2  and  S_4
REMARK    2  A    between atoms: S_4  and  C_5
REMARK    3  A    between atoms: C_5  and  C_6
REMARK    4  A    between atoms: C_12  and  O_13
REMARK    5  A    between atoms: O_13  and  C_14
REMARK    6  A    between atoms: C_17  and  N_18
REMARK    7  A    between atoms: C_22  and  C_23
REMARK    8  A    between atoms: C_23  and  S_24
REMARK    9  A    between atoms: S_24  and  C_25
REMARK                            x       y       z     vdW  Elec       q    Type
REMARK                         _______ _______ _______ _____ _____    ______ ____
ROOT
ATOM      1  C   UNL     1       4.214   4.973  17.934  0.00  0.00    +0.000 A 
ATOM      2  C   UNL     1       4.154   6.161  17.174  0.00  0.00    +0.000 A 
ATOM      3  C   UNL     1       3.372   7.237  17.587  0.00  0.00    +0.000 A 
ATOM      4  C   UNL     1       2.739   7.173  18.826  0.00  0.00    +0.000 A 
ATOM      5  C   UNL     1       2.941   6.072  19.670  0.00  0.00    +0.000 A 
ATOM      6  C   UNL     1       3.653   4.931  19.229  0.00  0.00    +0.000 A 
ENDROOT
BRANCH   4   7
ATOM      7  N   UNL     1       1.820   8.247  19.228  0.00  0.00    +0.000 N 
ATOM      8  O   UNL     1       1.552   9.118  18.388  0.00  0.00    +0.000 OA
ATOM      9  O   UNL     1       1.347   8.205  20.373  0.00  0.00    +0.000 OA
ENDBRANCH   4   7
BRANCH   1  10
ATOM     10  O   UNL     1       4.765   3.821  17.369  0.00  0.00    +0.000 OA
BRANCH  10  17
ATOM     11  C   UNL     1       6.931   4.406  16.416  0.00  0.00    +0.000 A 
ATOM     12  C   UNL     1       7.622   4.844  15.256  0.00  0.00    +0.000 A 
ATOM     13  C   UNL     1       7.028   4.830  13.995  0.00  0.00    +0.000 A 
ATOM     14 CL   UNL     1       7.869   5.469  12.637  0.00  0.00    +0.000 Cl
ATOM     15  C   UNL     1       5.755   4.310  13.836  0.00  0.00    +0.000 A 
ATOM     16  C   UNL     1       5.061   3.860  14.956  0.00  0.00    +0.000 A 
ATOM     17  C   UNL     1       5.591   4.007  16.258  0.00  0.00    +0.000 A 
BRANCH  11  18
ATOM     18  C   UNL     1       7.701   4.528  17.715  0.00  0.00    +0.000 C 
BRANCH  18  19
ATOM     19  S   UNL     1       7.139   5.770  18.902  0.00  0.00    +0.000 S 
BRANCH  19  21
ATOM     20  N   UNL     1       7.375   7.629  17.024  0.00  0.00    +0.000 NA
ATOM     21  C   UNL     1       7.784   7.213  18.168  0.00  0.00    +0.000 C 
ATOM     22  N   UNL     1       8.724   7.854  18.894  0.00  0.00    +0.000 N 
ATOM     23  H   UNL     1       7.905   8.465  16.764  0.00  0.00    +0.000 HD
ATOM     24  H   UNL     1       8.831   8.845  18.727  0.00  0.00    +0.000 HD
ATOM     25  H   UNL     1       8.728   7.607  19.877  0.00  0.00    +0.000 HD
ENDBRANCH  19  21
ENDBRANCH  18  19
ENDBRANCH  11  18
ENDBRANCH  10  17
ENDBRANCH   1  10
BRANCH   6  26
ATOM     26  C   UNL     1       3.844   3.737  20.154  0.00  0.00    +0.000 C 
BRANCH  26  27
ATOM     27  S   UNL     1       2.302   2.807  20.488  0.00  0.00    +0.000 S 
BRANCH  27  28
ATOM     28  C   UNL     1       1.953   2.199  18.910  0.00  0.00    +0.000 C 
ATOM     29  N   UNL     1       0.839   2.495  18.340  0.00  0.00    +0.000 NA
ATOM     30  N   UNL     1       2.914   1.486  18.293  0.00  0.00    +0.000 N 
ATOM     31  H   UNL     1       0.304   3.083  18.987  0.00  0.00    +0.000 HD
ATOM     32  H   UNL     1       3.854   1.761  18.552  0.00  0.00    +0.000 HD
ATOM     33  H   UNL     1       2.770   1.475  17.290  0.00  0.00    +0.000 HD
ENDBRANCH  27  28
ENDBRANCH  26  27
ENDBRANCH   6  26
TORSDOF 9
ENDMDL
MODEL 4
REMARK VINA RESULT:      -7.7      1.075      1.437
REMARK  Name = 
REMARK  9 active torsions:
REMARK  status: ('A' for Active; 'I' for Inactive)
REMARK    1  A    between atoms: C_2  and  S_4
REMARK    2  A    between atoms: S_4  and  C_5
REMARK    3  A    between atoms: C_5  and  C_6
REMARK    4  A    between atoms: C_12  and  O_13
REMARK    5  A    between atoms: O_13  and  C_14
REMARK    6  A    between atoms: C_17  and  N_18
REMARK    7  A    between atoms: C_22  and  C_23
REMARK    8  A    between atoms: C_23  and  S_24
REMARK    9  A    between atoms: S_24  and  C_25
REMARK                            x       y       z     vdW  Elec       q    Type
REMARK                         _______ _______ _______ _____ _____    ______ ____
ROOT
ATOM      1  C   UNL     1       5.658   4.266  16.606  0.00  0.00    +0.000 A 
ATOM      2  C   UNL     1       4.951   4.065  15.401  0.00  0.00    +0.000 A 
ATOM      3  C   UNL     1       5.547   4.325  14.169  0.00  0.00    +0.000 A 
ATOM      4  C   UNL     1       6.895   4.672  14.132  0.00  0.00    +0.000 A 
ATOM      5  C   UNL     1       7.654   4.696  15.311  0.00  0.00    +0.000 A 
ATOM      6  C   UNL     1       7.046   4.528  16.578  0.00  0.00    +0.000 A 
ENDROOT
BRANCH   4   7
ATOM      7  N   UNL     1       7.511   5.060  12.856  0.00  0.00    +0.000 N 
ATOM      8  O   UNL     1       7.215   4.397  11.851  0.00  0.00    +0.000 OA
ATOM      9  O   UNL     1       8.268   6.040  12.853  0.00  0.00    +0.000 OA
ENDBRANCH   4   7
BRANCH   1  10
ATOM     10  O   UNL     1       4.965   4.276  17.819  0.00  0.00    +0.000 OA
BRANCH  10  17
ATOM     11  C   UNL     1       2.653   4.985  18.124  0.00  0.00    +0.000 A 
ATOM     12  C   UNL     1       1.730   6.057  18.008  0.00  0.00    +0.000 A 
ATOM     13  C   UNL     1       2.150   7.374  17.825  0.00  0.00    +0.000 A 
ATOM     14 CL   UNL     1       0.993   8.623  17.585  0.00  0.00    +0.000 Cl
ATOM     15  C   UNL     1       3.501   7.676  17.825  0.00  0.00    +0.000 A 
ATOM     16  C   UNL     1       4.427   6.643  17.951  0.00  0.00    +0.000 A 
ATOM     17  C   UNL     1       4.020   5.290  17.986  0.00  0.00    +0.000 A 
BRANCH  11  18
ATOM     18  C   UNL     1       2.035   3.610  18.274  0.00  0.00    +0.000 C 
BRANCH  18  19
ATOM     19  S   UNL     1       2.374   2.706  19.801  0.00  0.00    +0.000 S 
BRANCH  19  21
ATOM     20  N   UNL     1       4.975   2.194  19.920  0.00  0.00    +0.000 NA
ATOM     21  C   UNL     1       3.857   1.902  19.361  0.00  0.00    +0.000 C 
ATOM     22  N   UNL     1       3.732   0.953  18.410  0.00  0.00    +0.000 N 
ATOM     23  H   UNL     1       5.718   1.635  19.493  0.00  0.00    +0.000 HD
ATOM     24  H   UNL     1       4.428   0.219  18.405  0.00  0.00    +0.000 HD
ATOM     25  H   UNL     1       2.786   0.614  18.283  0.00  0.00    +0.000 HD
ENDBRANCH  19  21
ENDBRANCH  18  19
ENDBRANCH  11  18
ENDBRANCH  10  17
ENDBRANCH   1  10
BRANCH   6  26
ATOM     26  C   UNL     1       7.884   4.577  17.848  0.00  0.00    +0.000 C 
BRANCH  26  27
ATOM     27  S   UNL     1       7.360   5.874  19.030  0.00  0.00    +0.000 S 
BRANCH  27  28
ATOM     28  C   UNL     1       7.992   7.282  18.255  0.00  0.00    +0.000 C 
ATOM     29  N   UNL     1       7.634   7.567  17.053  0.00  0.00    +0.000 NA
ATOM     30  N   UNL     1       8.791   8.085  18.982  0.00  0.00    +0.000 N 
ATOM     31  H   UNL     1       6.990   6.837  16.737  0.00  0.00    +0.000 HD
ATOM     32  H   UNL     1       8.576   8.086  19.972  0.00  0.00    +0.000 HD
ATOM     33  H   UNL     1       8.824   9.018  18.587  0.00  0.00    +0.000 HD
ENDBRANCH  27  28
ENDBRANCH  26  27
ENDBRANCH   6  26
TORSDOF 9
ENDMDL
MODEL 5
REMARK VINA RESULT:      -7.6      4.163      6.296
REMARK  Name = 
REMARK  9 active torsions:
REMARK  status: ('A' for Active; 'I' for Inactive)
REMARK    1  A    between atoms: C_2  and  S_4
REMARK    2  A    between atoms: S_4  and  C_5
REMARK    3  A    between atoms: C_5  and  C_6
REMARK    4  A    between atoms: C_12  and  O_13
REMARK    5  A    between atoms: O_13  and  C_14
REMARK    6  A    between atoms: C_17  and  N_18
REMARK    7  A    between atoms: C_22  and  C_23
REMARK    8  A    between atoms: C_23  and  S_24
REMARK    9  A    between atoms: S_24  and  C_25
REMARK                            x       y       z     vdW  Elec       q    Type
REMARK                         _______ _______ _______ _____ _____    ______ ____
ROOT
ATOM      1  C   UNL     1       2.600   6.796  19.237  0.00  0.00    +0.000 A 
ATOM      2  C   UNL     1       1.915   6.043  20.216  0.00  0.00    +0.000 A 
ATOM      3  C   UNL     1       2.066   4.660  20.290  0.00  0.00    +0.000 A 
ATOM      4  C   UNL     1       2.997   4.038  19.462  0.00  0.00    +0.000 A 
ATOM      5  C   UNL     1       3.814   4.800  18.615  0.00  0.00    +0.000 A 
ATOM      6  C   UNL     1       3.610   6.192  18.456  0.00  0.00    +0.000 A 
ENDROOT
BRANCH   4   7
ATOM      7  N   UNL     1       3.088   2.571  19.445  0.00  0.00    +0.000 N 
ATOM      8  O   UNL     1       4.161   2.059  19.797  0.00  0.00    +0.000 OA
ATOM      9  O   UNL     1       2.083   1.933  19.105  0.00  0.00    +0.000 OA
ENDBRANCH   4   7
BRANCH   1  10
ATOM     10  O   UNL     1       2.222   8.119  18.997  0.00  0.00    +0.000 OA
BRANCH  10  17
ATOM     11  C   UNL     1       0.365   9.622  19.483  0.00  0.00    +0.000 A 
ATOM     12  C   UNL     1      -0.317  10.356  20.487  0.00  0.00    +0.000 A 
ATOM     13  C   UNL     1      -0.100  10.124  21.845  0.00  0.00    +0.000 A 
ATOM     14 CL   UNL     1      -0.872  11.109  23.024  0.00  0.00    +0.000 Cl
ATOM     15  C   UNL     1       0.748   9.106  22.246  0.00  0.00    +0.000 A 
ATOM     16  C   UNL     1       1.420   8.361  21.279  0.00  0.00    +0.000 A 
ATOM     17  C   UNL     1       1.325   8.683  19.906  0.00  0.00    +0.000 A 
BRANCH  11  18
ATOM     18  C   UNL     1       0.050  10.026  18.057  0.00  0.00    +0.000 C 
BRANCH  18  19
ATOM     19  S   UNL     1      -1.683   9.988  17.545  0.00  0.00    +0.000 S 
BRANCH  19  21
ATOM     20  N   UNL     1      -3.241  12.024  18.229  0.00  0.00    +0.000 NA
ATOM     21  C   UNL     1      -2.103  11.667  17.753  0.00  0.00    +0.000 C 
ATOM     22  N   UNL     1      -1.144  12.546  17.393  0.00  0.00    +0.000 N 
ATOM     23  H   UNL     1      -3.295  13.046  18.234  0.00  0.00    +0.000 HD
ATOM     24  H   UNL     1      -1.165  13.451  17.843  0.00  0.00    +0.000 HD
ATOM     25  H   UNL     1      -0.216  12.145  17.334  0.00  0.00    +0.000 HD
ENDBRANCH  19  21
ENDBRANCH  18  19
ENDBRANCH  11  18
ENDBRANCH  10  17
ENDBRANCH   1  10
BRANCH   6  26
ATOM     26  C   UNL     1       4.494   6.998  17.516  0.00  0.00    +0.000 C 
BRANCH  26  27
ATOM     27  S   UNL     1       5.223   6.009  16.157  0.00  0.00    +0.000 S 
BRANCH  27  28
ATOM     28  C   UNL     1       6.864   5.906  16.688  0.00  0.00    +0.000 C 
ATOM     29  N   UNL     1       7.413   4.755  16.856  0.00  0.00    +0.000 NA
ATOM     30  N   UNL     1       7.542   7.060  16.833  0.00  0.00    +0.000 N 
ATOM     31  H   UNL     1       6.713   4.040  16.637  0.00  0.00    +0.000 HD
ATOM     32  H   UNL     1       7.242   7.791  16.200  0.00  0.00    +0.000 HD
ATOM     33  H   UNL     1       8.543   6.899  16.802  0.00  0.00    +0.000 HD
ENDBRANCH  27  28
ENDBRANCH  26  27
ENDBRANCH   6  26
TORSDOF 9
ENDMDL
MODEL 6
REMARK VINA RESULT:      -7.6      4.221      6.407
REMARK  Name = 
REMARK  9 active torsions:
REMARK  status: ('A' for Active; 'I' for Inactive)
REMARK    1  A    between atoms: C_2  and  S_4
REMARK    2  A    between atoms: S_4  and  C_5
REMARK    3  A    between atoms: C_5  and  C_6
REMARK    4  A    between atoms: C_12  and  O_13
REMARK    5  A    between atoms: O_13  and  C_14
REMARK    6  A    between atoms: C_17  and  N_18
REMARK    7  A    between atoms: C_22  and  C_23
REMARK    8  A    between atoms: C_23  and  S_24
REMARK    9  A    between atoms: S_24  and  C_25
REMARK                            x       y       z     vdW  Elec       q    Type
REMARK                         _______ _______ _______ _____ _____    ______ ____
ROOT
ATOM      1  C   UNL     1       2.434   6.880  19.239  0.00  0.00    +0.000 A 
ATOM      2  C   UNL     1       1.724   6.124  20.197  0.00  0.00    +0.000 A 
ATOM      3  C   UNL     1       1.689   4.733  20.128  0.00  0.00    +0.000 A 
ATOM      4  C   UNL     1       2.463   4.085  19.169  0.00  0.00    +0.000 A 
ATOM      5  C   UNL     1       3.315   4.819  18.331  0.00  0.00    +0.000 A 
ATOM      6  C   UNL     1       3.293   6.235  18.322  0.00  0.00    +0.000 A 
ENDROOT
BRANCH   4   7
ATOM      7  N   UNL     1       2.351   2.629  19.006  0.00  0.00    +0.000 N 
ATOM      8  O   UNL     1       1.561   2.028  19.748  0.00  0.00    +0.000 OA
ATOM      9  O   UNL     1       3.033   2.092  18.122  0.00  0.00    +0.000 OA
ENDBRANCH   4   7
BRANCH   1  10
ATOM     10  O   UNL     1       2.226   8.258  19.158  0.00  0.00    +0.000 OA
BRANCH  10  17
ATOM     11  C   UNL     1       0.309   9.704  19.582  0.00  0.00    +0.000 A 
ATOM     12  C   UNL     1      -0.426  10.419  20.563  0.00  0.00    +0.000 A 
ATOM     13  C   UNL     1      -0.242  10.199  21.927  0.00  0.00    +0.000 A 
ATOM     14 CL   UNL     1      -1.079  11.163  23.078  0.00  0.00    +0.000 Cl
ATOM     15  C   UNL     1       0.625   9.209  22.357  0.00  0.00    +0.000 A 
ATOM     16  C   UNL     1       1.349   8.483  21.414  0.00  0.00    +0.000 A 
ATOM     17  C   UNL     1       1.285   8.797  20.037  0.00  0.00    +0.000 A 
BRANCH  11  18
ATOM     18  C   UNL     1       0.024  10.093  18.146  0.00  0.00    +0.000 C 
BRANCH  18  19
ATOM     19  S   UNL     1      -1.672   9.897  17.551  0.00  0.00    +0.000 S 
BRANCH  19  21
ATOM     20  N   UNL     1      -3.406  11.900  17.420  0.00  0.00    +0.000 NA
ATOM     21  C   UNL     1      -2.168  11.566  17.475  0.00  0.00    +0.000 C 
ATOM     22  N   UNL     1      -1.160  12.463  17.494  0.00  0.00    +0.000 N 
ATOM     23  H   UNL     1      -3.474  12.919  17.346  0.00  0.00    +0.000 HD
ATOM     24  H   UNL     1      -1.379  13.386  17.844  0.00  0.00    +0.000 HD
ATOM     25  H   UNL     1      -0.284  12.096  17.844  0.00  0.00    +0.000 HD
ENDBRANCH  19  21
ENDBRANCH  18  19
ENDBRANCH  11  18
ENDBRANCH  10  17
ENDBRANCH   1  10
BRANCH   6  26
ATOM     26  C   UNL     1       4.211   7.014  17.390  0.00  0.00    +0.000 C 
BRANCH  26  27
ATOM     27  S   UNL     1       5.984   6.592  17.576  0.00  0.00    +0.000 S 
BRANCH  27  28
ATOM     28  C   UNL     1       6.255   5.720  16.110  0.00  0.00    +0.000 C 
ATOM     29  N   UNL     1       5.480   5.906  15.101  0.00  0.00    +0.000 NA
ATOM     30  N   UNL     1       7.337   4.921  16.054  0.00  0.00    +0.000 N 
ATOM     31  H   UNL     1       4.768   6.590  15.374  0.00  0.00    +0.000 HD
ATOM     32  H   UNL     1       8.112   5.244  16.621  0.00  0.00    +0.000 HD
ATOM     33  H   UNL     1       7.604   4.737  15.093  0.00  0.00    +0.000 HD
ENDBRANCH  27  28
ENDBRANCH  26  27
ENDBRANCH   6  26
TORSDOF 9
ENDMDL
MODEL 7
REMARK VINA RESULT:      -7.6      4.180      6.471
REMARK  Name = 
REMARK  9 active torsions:
REMARK  status: ('A' for Active; 'I' for Inactive)
REMARK    1  A    between atoms: C_2  and  S_4
REMARK    2  A    between atoms: S_4  and  C_5
REMARK    3  A    between atoms: C_5  and  C_6
REMARK    4  A    between atoms: C_12  and  O_13
REMARK    5  A    between atoms: O_13  and  C_14
REMARK    6  A    between atoms: C_17  and  N_18
REMARK    7  A    between atoms: C_22  and  C_23
REMARK    8  A    between atoms: C_23  and  S_24
REMARK    9  A    between atoms: S_24  and  C_25
REMARK                            x       y       z     vdW  Elec       q    Type
REMARK                         _______ _______ _______ _____ _____    ______ ____
ROOT
ATOM      1  C   UNL     1       2.200   6.767  19.552  0.00  0.00    +0.000 A 
ATOM      2  C   UNL     1       1.428   6.022  20.469  0.00  0.00    +0.000 A 
ATOM      3  C   UNL     1       1.187   4.665  20.265  0.00  0.00    +0.000 A 
ATOM      4  C   UNL     1       1.820   4.020  19.206  0.00  0.00    +0.000 A 
ATOM      5  C   UNL     1       2.734   4.711  18.398  0.00  0.00    +0.000 A 
ATOM      6  C   UNL     1       2.918   6.108  18.530  0.00  0.00    +0.000 A 
ENDROOT
BRANCH   4   7
ATOM      7  N   UNL     1       1.490   2.619  18.907  0.00  0.00    +0.000 N 
ATOM      8  O   UNL     1       0.326   2.364  18.565  0.00  0.00    +0.000 OA
ATOM      9  O   UNL     1       2.399   1.781  18.990  0.00  0.00    +0.000 OA
ENDBRANCH   4   7
BRANCH   1  10
ATOM     10  O   UNL     1       2.192   8.162  19.618  0.00  0.00    +0.000 OA
BRANCH  10  17
ATOM     11  C   UNL     1       0.262   9.626  19.891  0.00  0.00    +0.000 A 
ATOM     12  C   UNL     1      -0.515  10.384  20.805  0.00  0.00    +0.000 A 
ATOM     13  C   UNL     1      -0.394  10.224  22.185  0.00  0.00    +0.000 A 
ATOM     14 CL   UNL     1      -1.280  11.238  23.254  0.00  0.00    +0.000 Cl
ATOM     15  C   UNL     1       0.450   9.253  22.697  0.00  0.00    +0.000 A 
ATOM     16  C   UNL     1       1.214   8.486  21.820  0.00  0.00    +0.000 A 
ATOM     17  C   UNL     1       1.213   8.740  20.429  0.00  0.00    +0.000 A 
BRANCH  11  18
ATOM     18  C   UNL     1       0.043   9.952  18.428  0.00  0.00    +0.000 C 
BRANCH  18  19
ATOM     19  S   UNL     1      -0.947  11.414  18.040  0.00  0.00    +0.000 S 
BRANCH  19  21
ATOM     20  N   UNL     1      -2.466  11.141  15.882  0.00  0.00    +0.000 NA
ATOM     21  C   UNL     1      -2.189  10.693  17.052  0.00  0.00    +0.000 C 
ATOM     22  N   UNL     1      -2.816   9.633  17.605  0.00  0.00    +0.000 N 
ATOM     23  H   UNL     1      -3.243  10.601  15.493  0.00  0.00    +0.000 HD
ATOM     24  H   UNL     1      -3.227   8.965  16.968  0.00  0.00    +0.000 HD
ATOM     25  H   UNL     1      -2.308   9.204  18.369  0.00  0.00    +0.000 HD
ENDBRANCH  19  21
ENDBRANCH  18  19
ENDBRANCH  11  18
ENDBRANCH  10  17
ENDBRANCH   1  10
BRANCH   6  26
ATOM     26  C   UNL     1       3.901   6.844  17.629  0.00  0.00    +0.000 C 
BRANCH  26  27
ATOM     27  S   UNL     1       5.633   6.275  17.805  0.00  0.00    +0.000 S 
BRANCH  27  28
ATOM     28  C   UNL     1       6.085   6.124  16.145  0.00  0.00    +0.000 C 
ATOM     29  N   UNL     1       7.179   5.528  15.830  0.00  0.00    +0.000 NA
ATOM     30  N   UNL     1       5.216   6.578  15.222  0.00  0.00    +0.000 N 
ATOM     31  H   UNL     1       7.636   5.233  16.697  0.00  0.00    +0.000 HD
ATOM     32  H   UNL     1       4.246   6.513  15.508  0.00  0.00    +0.000 HD
ATOM     33  H   UNL     1       5.388   6.150  14.319  0.00  0.00    +0.000 HD
ENDBRANCH  27  28
ENDBRANCH  26  27
ENDBRANCH   6  26
TORSDOF 9
ENDMDL
MODEL 8
REMARK VINA RESULT:      -7.6      5.097      7.932
REMARK  Name = 
REMARK  9 active torsions:
REMARK  status: ('A' for Active; 'I' for Inactive)
REMARK    1  A    between atoms: C_2  and  S_4
REMARK    2  A    between atoms: S_4  and  C_5
REMARK    3  A    between atoms: C_5  and  C_6
REMARK    4  A    between atoms: C_12  and  O_13
REMARK    5  A    between atoms: O_13  and  C_14
REMARK    6  A    between atoms: C_17  and  N_18
REMARK    7  A    between atoms: C_22  and  C_23
REMARK    8  A    between atoms: C_23  and  S_24
REMARK    9  A    between atoms: S_24  and  C_25
REMARK                            x       y       z     vdW  Elec       q    Type
REMARK                         _______ _______ _______ _____ _____    ______ ____
ROOT
ATOM      1  C   UNL     1       1.659   8.669  19.378  0.00  0.00    +0.000 A 
ATOM      2  C   UNL     1       1.476   8.784  17.983  0.00  0.00    +0.000 A 
ATOM      3  C   UNL     1       0.340   9.397  17.458  0.00  0.00    +0.000 A 
ATOM      4  C   UNL     1      -0.560  10.007  18.328  0.00  0.00    +0.000 A 
ATOM      5  C   UNL     1      -0.293  10.058  19.704  0.00  0.00    +0.000 A 
ATOM      6  C   UNL     1       0.804   9.360  20.265  0.00  0.00    +0.000 A 
ENDROOT
BRANCH   4   7
ATOM      7  N   UNL     1      -1.817  10.558  17.804  0.00  0.00    +0.000 N 
ATOM      8  O   UNL     1      -2.814   9.821  17.810  0.00  0.00    +0.000 OA
ATOM      9  O   UNL     1      -1.814  11.733  17.411  0.00  0.00    +0.000 OA
ENDBRANCH   4   7
BRANCH   1  10
ATOM     10  O   UNL     1       2.643   7.813  19.876  0.00  0.00    +0.000 OA
BRANCH  10  17
ATOM     11  C   UNL     1       3.040   5.724  18.683  0.00  0.00    +0.000 A 
ATOM     12  C   UNL     1       2.553   4.419  18.409  0.00  0.00    +0.000 A 
ATOM     13  C   UNL     1       1.536   3.838  19.166  0.00  0.00    +0.000 A 
ATOM     14 CL   UNL     1       0.908   2.298  18.731  0.00  0.00    +0.000 Cl
ATOM     15  C   UNL     1       1.023   4.507  20.264  0.00  0.00    +0.000 A 
ATOM     16  C   UNL     1       1.494   5.784  20.563  0.00  0.00    +0.000 A 
ATOM     17  C   UNL     1       2.414   6.444  19.717  0.00  0.00    +0.000 A 
BRANCH  11  18
ATOM     18  C   UNL     1       4.114   6.226  17.740  0.00  0.00    +0.000 C 
BRANCH  18  19
ATOM     19  S   UNL     1       4.874   5.022  16.627  0.00  0.00    +0.000 S 
BRANCH  19  21
ATOM     20  N   UNL     1       7.301   6.093  16.556  0.00  0.00    +0.000 NA
ATOM     21  C   UNL     1       6.548   5.195  17.081  0.00  0.00    +0.000 C 
ATOM     22  N   UNL     1       6.977   4.331  18.026  0.00  0.00    +0.000 N 
ATOM     23  H   UNL     1       8.247   5.999  16.935  0.00  0.00    +0.000 HD
ATOM     24  H   UNL     1       7.762   4.626  18.589  0.00  0.00    +0.000 HD
ATOM     25  H   UNL     1       6.233   3.901  18.562  0.00  0.00    +0.000 HD
ENDBRANCH  19  21
ENDBRANCH  18  19
ENDBRANCH  11  18
ENDBRANCH  10  17
ENDBRANCH   1  10
BRANCH   6  26
ATOM     26  C   UNL     1       1.065   9.411  21.763  0.00  0.00    +0.000 C 
BRANCH  26  27
ATOM     27  S   UNL     1      -0.456   9.331  22.782  0.00  0.00    +0.000 S 
BRANCH  27  28
ATOM     28  C   UNL     1      -0.830  11.010  22.922  0.00  0.00    +0.000 C 
ATOM     29  N   UNL     1       0.025  11.892  22.542  0.00  0.00    +0.000 NA
ATOM     30  N   UNL     1      -2.060  11.338  23.361  0.00  0.00    +0.000 N 
ATOM     31  H   UNL     1       0.856  11.397  22.205  0.00  0.00    +0.000 HD
ATOM     32  H   UNL     1      -2.774  10.662  23.115  0.00  0.00    +0.000 HD
ATOM     33  H   UNL     1      -2.304  12.283  23.087  0.00  0.00    +0.000 HD
ENDBRANCH  27  28
ENDBRANCH  26  27
ENDBRANCH   6  26
TORSDOF 9
ENDMDL
MODEL 9
REMARK VINA RESULT:      -7.5      4.095      6.098
REMARK  Name = 
REMARK  9 active torsions:
REMARK  status: ('A' for Active; 'I' for Inactive)
REMARK    1  A    between atoms: C_2  and  S_4
REMARK    2  A    between atoms: S_4  and  C_5
REMARK    3  A    between atoms: C_5  and  C_6
REMARK    4  A    between atoms: C_12  and  O_13
REMARK    5  A    between atoms: O_13  and  C_14
REMARK    6  A    between atoms: C_17  and  N_18
REMARK    7  A    between atoms: C_22  and  C_23
REMARK    8  A    between atoms: C_23  and  S_24
REMARK    9  A    between atoms: S_24  and  C_25
REMARK                            x       y       z     vdW  Elec       q    Type
REMARK                         _______ _______ _______ _____ _____    ______ ____
ROOT
ATOM      1  C   UNL     1       2.530   6.406  19.695  0.00  0.00    +0.000 A 
ATOM      2  C   UNL     1       1.565   5.658  20.404  0.00  0.00    +0.000 A 
ATOM      3  C   UNL     1       1.180   4.392  19.970  0.00  0.00    +0.000 A 
ATOM      4  C   UNL     1       1.848   3.818  18.890  0.00  0.00    +0.000 A 
ATOM      5  C   UNL     1       2.932   4.477  18.294  0.00  0.00    +0.000 A 
ATOM      6  C   UNL     1       3.275   5.802  18.659  0.00  0.00    +0.000 A 
ENDROOT
BRANCH   4   7
ATOM      7  N   UNL     1       1.381   2.535  18.347  0.00  0.00    +0.000 N 
ATOM      8  O   UNL     1       2.096   1.975  17.502  0.00  0.00    +0.000 OA
ATOM      9  O   UNL     1       0.316   2.076  18.781  0.00  0.00    +0.000 OA
ENDBRANCH   4   7
BRANCH   1  10
ATOM     10  O   UNL     1       2.691   7.765  19.976  0.00  0.00    +0.000 OA
BRANCH  10  17
ATOM     11  C   UNL     1       0.892   9.381  20.289  0.00  0.00    +0.000 A 
ATOM     12  C   UNL     1      -0.233  10.012  19.698  0.00  0.00    +0.000 A 
ATOM     13  C   UNL     1      -0.479   9.946  18.326  0.00  0.00    +0.000 A 
ATOM     14 CL   UNL     1      -1.911  10.638  17.672  0.00  0.00    +0.000 Cl
ATOM     15  C   UNL     1       0.426   9.314  17.491  0.00  0.00    +0.000 A 
ATOM     16  C   UNL     1       1.546   8.699  18.045  0.00  0.00    +0.000 A 
ATOM     17  C   UNL     1       1.729   8.627  19.445  0.00  0.00    +0.000 A 
BRANCH  11  18
ATOM     18  C   UNL     1       0.990   9.508  21.795  0.00  0.00    +0.000 C 
BRANCH  18  19
ATOM     19  S   UNL     1      -0.552   9.460  22.737  0.00  0.00    +0.000 S 
BRANCH  19  21
ATOM     20  N   UNL     1      -0.016  12.051  22.542  0.00  0.00    +0.000 NA
ATOM     21  C   UNL     1      -0.886  11.165  22.869  0.00  0.00    +0.000 C 
ATOM     22  N   UNL     1      -2.119  11.473  23.323  0.00  0.00    +0.000 N 
ATOM     23  H   UNL     1      -0.400  12.981  22.729  0.00  0.00    +0.000 HD
ATOM     24  H   UNL     1      -2.493  12.373  23.051  0.00  0.00    +0.000 HD
ATOM     25  H   UNL     1      -2.789  10.718  23.248  0.00  0.00    +0.000 HD
ENDBRANCH  19  21
ENDBRANCH  18  19
ENDBRANCH  11  18
ENDBRANCH  10  17
ENDBRANCH   1  10
BRANCH   6  26
ATOM     26  C   UNL     1       4.443   6.508  17.985  0.00  0.00    +0.000 C 
BRANCH  26  27
ATOM     27  S   UNL     1       6.059   5.689  18.258  0.00  0.00    +0.000 S 
BRANCH  27  28
ATOM     28  C   UNL     1       7.012   6.462  17.043  0.00  0.00    +0.000 C 
ATOM     29  N   UNL     1       7.317   5.828  15.967  0.00  0.00    +0.000 NA
ATOM     30  N   UNL     1       7.341   7.752  17.240  0.00  0.00    +0.000 N 
ATOM     31  H   UNL     1       6.914   4.889  16.033  0.00  0.00    +0.000 HD
ATOM     32  H   UNL     1       6.653   8.271  17.774  0.00  0.00    +0.000 HD
ATOM     33  H   UNL     1       7.580   8.204  16.365  0.00  0.00    +0.000 HD
ENDBRANCH  27  28
ENDBRANCH  26  27
ENDBRANCH   6  26
TORSDOF 9
ENDMDL
