MODEL 1
REMARK VINA RESULT:      -6.1      0.000      0.000
REMARK  Name = 
REMARK  9 active torsions:
REMARK  status: ('A' for Active; 'I' for Inactive)
REMARK    1  A    between atoms: C_1  and  C_2
REMARK    2  A    between atoms: C_2  and  O_3
REMARK    3  A    between atoms: O_3  and  P_4
REMARK    4  A    between atoms: P_4  and  C_6
REMARK    5  A    between atoms: P_4  and  O_14
REMARK    6  A    between atoms: C_6  and  C_7
REMARK    7  A    between atoms: C_10  and  C_11
REMARK    8  A    between atoms: O_14  and  C_15
REMARK    9  A    between atoms: C_15  and  C_16
REMARK                            x       y       z     vdW  Elec       q    Type
REMARK                         _______ _______ _______ _____ _____    ______ ____
ROOT
ATOM      1  P   UNL     1       6.750   5.511  16.723  0.00  0.00    +0.000 P 
ATOM      2  O   UNL     1       7.850   4.506  16.347  0.00  0.00    +0.000 OA
ENDROOT
BRANCH   1   3
ATOM      3  O   UNL     1       7.294   5.495  18.366  0.00  0.00    +0.000 OA
BRANCH   3   5
ATOM      4  C   UNL     1       7.678   7.770  17.662  0.00  0.00    +0.000 C 
ATOM      5  C   UNL     1       7.997   6.697  18.678  0.00  0.00    +0.000 C 
ENDBRANCH   3   5
ENDBRANCH   1   3
BRANCH   1   6
ATOM      6  C   UNL     1       5.196   4.396  17.385  0.00  0.00    +0.000 C 
BRANCH   6   7
ATOM      7  C   UNL     1       4.216   5.268  18.111  0.00  0.00    +0.000 A 
ATOM      8  C   UNL     1       3.648   5.236  19.376  0.00  0.00    +0.000 A 
ATOM      9  C   UNL     1       2.861   6.402  19.515  0.00  0.00    +0.000 A 
ATOM     10  C   UNL     1       2.913   7.076  18.307  0.00  0.00    +0.000 A 
ATOM     11  O   UNL     1       3.664   6.340  17.430  0.00  0.00    +0.000 OA
BRANCH  10  12
ATOM     12  C   UNL     1       2.409   8.337  17.855  0.00  0.00    +0.000 C 
ATOM     13  N   UNL     1       1.975   9.354  17.501  0.00  0.00    +0.000 NA
ENDBRANCH  10  12
ENDBRANCH   6   7
ENDBRANCH   1   6
BRANCH   1  14
ATOM     14  O   UNL     1       6.207   5.527  15.081  0.00  0.00    +0.000 OA
BRANCH  14  15
ATOM     15  C   UNL     1       6.869   4.788  14.077  0.00  0.00    +0.000 C 
ATOM     16  C   UNL     1       6.018   3.779  13.342  0.00  0.00    +0.000 C 
ENDBRANCH  14  15
ENDBRANCH   1  14
TORSDOF 7
ENDMDL
MODEL 2
REMARK VINA RESULT:      -6.0      2.267      4.021
REMARK  Name = 
REMARK  9 active torsions:
REMARK  status: ('A' for Active; 'I' for Inactive)
REMARK    1  A    between atoms: C_1  and  C_2
REMARK    2  A    between atoms: C_2  and  O_3
REMARK    3  A    between atoms: O_3  and  P_4
REMARK    4  A    between atoms: P_4  and  C_6
REMARK    5  A    between atoms: P_4  and  O_14
REMARK    6  A    between atoms: C_6  and  C_7
REMARK    7  A    between atoms: C_10  and  C_11
REMARK    8  A    between atoms: O_14  and  C_15
REMARK    9  A    between atoms: C_15  and  C_16
REMARK                            x       y       z     vdW  Elec       q    Type
REMARK                         _______ _______ _______ _____ _____    ______ ____
ROOT
ATOM      1  P   UNL     1       6.735   4.930  16.096  0.00  0.00    +0.000 P 
ATOM      2  O   UNL     1       7.749   5.356  15.023  0.00  0.00    +0.000 OA
ENDROOT
BRANCH   1   3
ATOM      3  O   UNL     1       5.966   3.880  14.957  0.00  0.00    +0.000 OA
BRANCH   3   5
ATOM      4  C   UNL     1       5.637   3.486  12.600  0.00  0.00    +0.000 C 
ATOM      5  C   UNL     1       6.577   3.991  13.671  0.00  0.00    +0.000 C 
ENDBRANCH   3   5
ENDBRANCH   1   3
BRANCH   1   6
ATOM      6  C   UNL     1       5.131   6.137  15.840  0.00  0.00    +0.000 C 
BRANCH   6   7
ATOM      7  C   UNL     1       4.154   5.930  16.959  0.00  0.00    +0.000 A 
ATOM      8  C   UNL     1       3.710   6.718  18.010  0.00  0.00    +0.000 A 
ATOM      9  C   UNL     1       2.697   5.995  18.681  0.00  0.00    +0.000 A 
ATOM     10  C   UNL     1       2.603   4.758  18.066  0.00  0.00    +0.000 A 
ATOM     11  O   UNL     1       3.549   4.690  17.078  0.00  0.00    +0.000 OA
BRANCH  10  12
ATOM     12  C   UNL     1       1.724   3.639  18.223  0.00  0.00    +0.000 C 
ATOM     13  N   UNL     1       1.018   2.731  18.379  0.00  0.00    +0.000 NA
ENDBRANCH  10  12
ENDBRANCH   6   7
ENDBRANCH   1   6
BRANCH   1  14
ATOM     14  O   UNL     1       7.504   5.980  17.235  0.00  0.00    +0.000 OA
BRANCH  14  15
ATOM     15  C   UNL     1       7.807   5.553  18.545  0.00  0.00    +0.000 C 
ATOM     16  C   UNL     1       6.618   5.347  19.456  0.00  0.00    +0.000 C 
ENDBRANCH  14  15
ENDBRANCH   1  14
TORSDOF 7
ENDMDL
MODEL 3
REMARK VINA RESULT:      -5.9      2.726      3.061
REMARK  Name = 
REMARK  9 active torsions:
REMARK  status: ('A' for Active; 'I' for Inactive)
REMARK    1  A    between atoms: C_1  and  C_2
REMARK    2  A    between atoms: C_2  and  O_3
REMARK    3  A    between atoms: O_3  and  P_4
REMARK    4  A    between atoms: P_4  and  C_6
REMARK    5  A    between atoms: P_4  and  O_14
REMARK    6  A    between atoms: C_6  and  C_7
REMARK    7  A    between atoms: C_10  and  C_11
REMARK    8  A    between atoms: O_14  and  C_15
REMARK    9  A    between atoms: C_15  and  C_16
REMARK                            x       y       z     vdW  Elec       q    Type
REMARK                         _______ _______ _______ _____ _____    ______ ____
ROOT
ATOM      1  P   UNL     1       5.698   5.600  16.077  0.00  0.00    +0.000 P 
ATOM      2  O   UNL     1       7.166   5.683  15.630  0.00  0.00    +0.000 OA
ENDROOT
BRANCH   1   3
ATOM      3  O   UNL     1       6.019   6.725  17.352  0.00  0.00    +0.000 OA
BRANCH   3   5
ATOM      4  C   UNL     1       8.065   6.870  18.619  0.00  0.00    +0.000 C 
ATOM      5  C   UNL     1       7.375   7.168  17.308  0.00  0.00    +0.000 C 
ENDBRANCH   3   5
ENDBRANCH   1   3
BRANCH   1   6
ATOM      6  C   UNL     1       5.650   4.195  17.533  0.00  0.00    +0.000 C 
BRANCH   6   7
ATOM      7  C   UNL     1       4.250   4.041  18.047  0.00  0.00    +0.000 A 
ATOM      8  C   UNL     1       3.000   4.011  17.446  0.00  0.00    +0.000 A 
ATOM      9  C   UNL     1       2.052   3.737  18.459  0.00  0.00    +0.000 A 
ATOM     10  C   UNL     1       2.741   3.681  19.658  0.00  0.00    +0.000 A 
ATOM     11  O   UNL     1       4.061   3.953  19.416  0.00  0.00    +0.000 OA
BRANCH  10  12
ATOM     12  C   UNL     1       2.365   3.358  21.001  0.00  0.00    +0.000 C 
ATOM     13  N   UNL     1       2.063   3.124  22.097  0.00  0.00    +0.000 NA
ENDBRANCH  10  12
ENDBRANCH   6   7
ENDBRANCH   1   6
BRANCH   1  14
ATOM     14  O   UNL     1       5.377   4.475  14.803  0.00  0.00    +0.000 OA
BRANCH  14  15
ATOM     15  C   UNL     1       6.407   3.994  13.966  0.00  0.00    +0.000 C 
ATOM     16  C   UNL     1       5.972   3.538  12.592  0.00  0.00    +0.000 C 
ENDBRANCH  14  15
ENDBRANCH   1  14
TORSDOF 7
ENDMDL
MODEL 4
REMARK VINA RESULT:      -5.9      2.824      4.604
REMARK  Name = 
REMARK  9 active torsions:
REMARK  status: ('A' for Active; 'I' for Inactive)
REMARK    1  A    between atoms: C_1  and  C_2
REMARK    2  A    between atoms: C_2  and  O_3
REMARK    3  A    between atoms: O_3  and  P_4
REMARK    4  A    between atoms: P_4  and  C_6
REMARK    5  A    between atoms: P_4  and  O_14
REMARK    6  A    between atoms: C_6  and  C_7
REMARK    7  A    between atoms: C_10  and  C_11
REMARK    8  A    between atoms: O_14  and  C_15
REMARK    9  A    between atoms: C_15  and  C_16
REMARK                            x       y       z     vdW  Elec       q    Type
REMARK                         _______ _______ _______ _____ _____    ______ ____
ROOT
ATOM      1  P   UNL     1       6.393   4.416  15.907  0.00  0.00    +0.000 P 
ATOM      2  O   UNL     1       7.277   5.531  15.327  0.00  0.00    +0.000 OA
ENDROOT
BRANCH   1   3
ATOM      3  O   UNL     1       5.526   4.320  14.413  0.00  0.00    +0.000 OA
BRANCH   3   5
ATOM      4  C   UNL     1       5.650   3.288  12.237  0.00  0.00    +0.000 C 
ATOM      5  C   UNL     1       6.406   4.001  13.335  0.00  0.00    +0.000 C 
ENDBRANCH   3   5
ENDBRANCH   1   3
BRANCH   1   6
ATOM      6  C   UNL     1       4.747   5.344  16.630  0.00  0.00    +0.000 C 
BRANCH   6   7
ATOM      7  C   UNL     1       3.845   4.343  17.289  0.00  0.00    +0.000 A 
ATOM      8  C   UNL     1       2.889   3.453  16.824  0.00  0.00    +0.000 A 
ATOM      9  C   UNL     1       2.442   2.697  17.932  0.00  0.00    +0.000 A 
ATOM     10  C   UNL     1       3.083   3.197  19.052  0.00  0.00    +0.000 A 
ATOM     11  O   UNL     1       3.866   4.254  18.670  0.00  0.00    +0.000 OA
BRANCH  10  12
ATOM     12  C   UNL     1       3.119   2.807  20.428  0.00  0.00    +0.000 C 
ATOM     13  N   UNL     1       3.166   2.512  21.550  0.00  0.00    +0.000 NA
ENDBRANCH  10  12
ENDBRANCH   6   7
ENDBRANCH   1   6
BRANCH   1  14
ATOM     14  O   UNL     1       7.260   4.511  17.401  0.00  0.00    +0.000 OA
BRANCH  14  15
ATOM     15  C   UNL     1       7.579   5.752  17.991  0.00  0.00    +0.000 C 
ATOM     16  C   UNL     1       7.624   5.764  19.502  0.00  0.00    +0.000 C 
ENDBRANCH  14  15
ENDBRANCH   1  14
TORSDOF 7
ENDMDL
MODEL 5
REMARK VINA RESULT:      -5.9      3.135      5.279
REMARK  Name = 
REMARK  9 active torsions:
REMARK  status: ('A' for Active; 'I' for Inactive)
REMARK    1  A    between atoms: C_1  and  C_2
REMARK    2  A    between atoms: C_2  and  O_3
REMARK    3  A    between atoms: O_3  and  P_4
REMARK    4  A    between atoms: P_4  and  C_6
REMARK    5  A    between atoms: P_4  and  O_14
REMARK    6  A    between atoms: C_6  and  C_7
REMARK    7  A    between atoms: C_10  and  C_11
REMARK    8  A    between atoms: O_14  and  C_15
REMARK    9  A    between atoms: C_15  and  C_16
REMARK                            x       y       z     vdW  Elec       q    Type
REMARK                         _______ _______ _______ _____ _____    ______ ____
ROOT
ATOM      1  P   UNL     1       6.990   5.690  18.991  0.00  0.00    +0.000 P 
ATOM      2  O   UNL     1       7.802   5.250  20.219  0.00  0.00    +0.000 OA
ENDROOT
BRANCH   1   3
ATOM      3  O   UNL     1       5.818   4.462  19.321  0.00  0.00    +0.000 OA
BRANCH   3   5
ATOM      4  C   UNL     1       3.450   4.174  18.963  0.00  0.00    +0.000 C 
ATOM      5  C   UNL     1       4.535   5.037  19.567  0.00  0.00    +0.000 C 
ENDBRANCH   3   5
ENDBRANCH   1   3
BRANCH   1   6
ATOM      6  C   UNL     1       7.598   4.493  17.477  0.00  0.00    +0.000 C 
BRANCH   6   7
ATOM      7  C   UNL     1       6.714   4.694  16.282  0.00  0.00    +0.000 A 
ATOM      8  C   UNL     1       5.713   5.600  15.964  0.00  0.00    +0.000 A 
ATOM      9  C   UNL     1       5.315   5.338  14.633  0.00  0.00    +0.000 A 
ATOM     10  C   UNL     1       6.031   4.234  14.202  0.00  0.00    +0.000 A 
ATOM     11  O   UNL     1       6.814   3.793  15.235  0.00  0.00    +0.000 OA
BRANCH  10  12
ATOM     12  C   UNL     1       6.139   3.552  12.949  0.00  0.00    +0.000 C 
ATOM     13  N   UNL     1       6.211   3.020  11.919  0.00  0.00    +0.000 NA
ENDBRANCH  10  12
ENDBRANCH   6   7
ENDBRANCH   1   6
BRANCH   1  14
ATOM     14  O   UNL     1       8.162   6.919  18.661  0.00  0.00    +0.000 OA
BRANCH  14  15
ATOM     15  C   UNL     1       7.872   8.006  17.809  0.00  0.00    +0.000 C 
ATOM     16  C   UNL     1       8.538   9.314  18.170  0.00  0.00    +0.000 C 
ENDBRANCH  14  15
ENDBRANCH   1  14
TORSDOF 7
ENDMDL
MODEL 6
REMARK VINA RESULT:      -5.9      2.289      3.989
REMARK  Name = 
REMARK  9 active torsions:
REMARK  status: ('A' for Active; 'I' for Inactive)
REMARK    1  A    between atoms: C_1  and  C_2
REMARK    2  A    between atoms: C_2  and  O_3
REMARK    3  A    between atoms: O_3  and  P_4
REMARK    4  A    between atoms: P_4  and  C_6
REMARK    5  A    between atoms: P_4  and  O_14
REMARK    6  A    between atoms: C_6  and  C_7
REMARK    7  A    between atoms: C_10  and  C_11
REMARK    8  A    between atoms: O_14  and  C_15
REMARK    9  A    between atoms: C_15  and  C_16
REMARK                            x       y       z     vdW  Elec       q    Type
REMARK                         _______ _______ _______ _____ _____    ______ ____
ROOT
ATOM      1  P   UNL     1       6.423   5.121  16.881  0.00  0.00    +0.000 P 
ATOM      2  O   UNL     1       7.431   5.841  15.972  0.00  0.00    +0.000 OA
ENDROOT
BRANCH   1   3
ATOM      3  O   UNL     1       5.989   4.072  15.576  0.00  0.00    +0.000 OA
BRANCH   3   5
ATOM      4  C   UNL     1       6.142   3.706  13.197  0.00  0.00    +0.000 C 
ATOM      5  C   UNL     1       6.755   4.371  14.409  0.00  0.00    +0.000 C 
ENDBRANCH   3   5
ENDBRANCH   1   3
BRANCH   1   6
ATOM      6  C   UNL     1       4.644   6.026  16.546  0.00  0.00    +0.000 C 
BRANCH   6   7
ATOM      7  C   UNL     1       3.674   5.660  17.630  0.00  0.00    +0.000 A 
ATOM      8  C   UNL     1       3.255   6.279  18.799  0.00  0.00    +0.000 A 
ATOM      9  C   UNL     1       2.236   5.476  19.360  0.00  0.00    +0.000 A 
ATOM     10  C   UNL     1       2.114   4.354  18.558  0.00  0.00    +0.000 A 
ATOM     11  O   UNL     1       3.048   4.427  17.560  0.00  0.00    +0.000 OA
BRANCH  10  12
ATOM     12  C   UNL     1       1.217   3.238  18.548  0.00  0.00    +0.000 C 
ATOM     13  N   UNL     1       0.512   2.316  18.537  0.00  0.00    +0.000 NA
ENDBRANCH  10  12
ENDBRANCH   6   7
ENDBRANCH   1   6
BRANCH   1  14
ATOM     14  O   UNL     1       6.856   6.170  18.186  0.00  0.00    +0.000 OA
BRANCH  14  15
ATOM     15  C   UNL     1       7.955   7.050  18.092  0.00  0.00    +0.000 C 
ATOM     16  C   UNL     1       7.619   8.477  17.726  0.00  0.00    +0.000 C 
ENDBRANCH  14  15
ENDBRANCH   1  14
TORSDOF 7
ENDMDL
MODEL 7
REMARK VINA RESULT:      -5.9      3.093      3.599
REMARK  Name = 
REMARK  9 active torsions:
REMARK  status: ('A' for Active; 'I' for Inactive)
REMARK    1  A    between atoms: C_1  and  C_2
REMARK    2  A    between atoms: C_2  and  O_3
REMARK    3  A    between atoms: O_3  and  P_4
REMARK    4  A    between atoms: P_4  and  C_6
REMARK    5  A    between atoms: P_4  and  O_14
REMARK    6  A    between atoms: C_6  and  C_7
REMARK    7  A    between atoms: C_10  and  C_11
REMARK    8  A    between atoms: O_14  and  C_15
REMARK    9  A    between atoms: C_15  and  C_16
REMARK                            x       y       z     vdW  Elec       q    Type
REMARK                         _______ _______ _______ _____ _____    ______ ____
ROOT
ATOM      1  P   UNL     1       5.288   4.843  17.653  0.00  0.00    +0.000 P 
ATOM      2  O   UNL     1       5.122   3.462  18.306  0.00  0.00    +0.000 OA
ENDROOT
BRANCH   1   3
ATOM      3  O   UNL     1       5.685   5.528  19.191  0.00  0.00    +0.000 OA
BRANCH   3   5
ATOM      4  C   UNL     1       7.725   6.542  18.401  0.00  0.00    +0.000 C 
ATOM      5  C   UNL     1       7.099   5.571  19.377  0.00  0.00    +0.000 C 
ENDBRANCH   3   5
ENDBRANCH   1   3
BRANCH   1   6
ATOM      6  C   UNL     1       3.501   5.768  17.871  0.00  0.00    +0.000 C 
BRANCH   6   7
ATOM      7  C   UNL     1       2.477   4.788  18.361  0.00  0.00    +0.000 A 
ATOM      8  C   UNL     1       1.477   4.049  17.746  0.00  0.00    +0.000 A 
ATOM      9  C   UNL     1       0.898   3.219  18.733  0.00  0.00    +0.000 A 
ATOM     10  C   UNL     1       1.511   3.527  19.936  0.00  0.00    +0.000 A 
ATOM     11  O   UNL     1       2.405   4.541  19.722  0.00  0.00    +0.000 OA
BRANCH  10  12
ATOM     12  C   UNL     1       1.429   2.982  21.257  0.00  0.00    +0.000 C 
ATOM     13  N   UNL     1       1.362   2.513  22.317  0.00  0.00    +0.000 NA
ENDBRANCH  10  12
ENDBRANCH   6   7
ENDBRANCH   1   6
BRANCH   1  14
ATOM     14  O   UNL     1       4.891   4.158  16.114  0.00  0.00    +0.000 OA
BRANCH  14  15
ATOM     15  C   UNL     1       5.885   3.866  15.158  0.00  0.00    +0.000 C 
ATOM     16  C   UNL     1       7.046   4.833  15.106  0.00  0.00    +0.000 C 
ENDBRANCH  14  15
ENDBRANCH   1  14
TORSDOF 7
ENDMDL
MODEL 8
REMARK VINA RESULT:      -5.8      2.685      3.183
REMARK  Name = 
REMARK  9 active torsions:
REMARK  status: ('A' for Active; 'I' for Inactive)
REMARK    1  A    between atoms: C_1  and  C_2
REMARK    2  A    between atoms: C_2  and  O_3
REMARK    3  A    between atoms: O_3  and  P_4
REMARK    4  A    between atoms: P_4  and  C_6
REMARK    5  A    between atoms: P_4  and  O_14
REMARK    6  A    between atoms: C_6  and  C_7
REMARK    7  A    between atoms: C_10  and  C_11
REMARK    8  A    between atoms: O_14  and  C_15
REMARK    9  A    between atoms: C_15  and  C_16
REMARK                            x       y       z     vdW  Elec       q    Type
REMARK                         _______ _______ _______ _____ _____    ______ ____
ROOT
ATOM      1  P   UNL     1       6.011   4.994  17.593  0.00  0.00    +0.000 P 
ATOM      2  O   UNL     1       5.943   3.959  18.726  0.00  0.00    +0.000 OA
ENDROOT
BRANCH   1   3
ATOM      3  O   UNL     1       6.518   6.203  18.722  0.00  0.00    +0.000 OA
BRANCH   3   5
ATOM      4  C   UNL     1       7.807   7.976  17.716  0.00  0.00    +0.000 C 
ATOM      5  C   UNL     1       7.844   6.644  18.431  0.00  0.00    +0.000 C 
ENDBRANCH   3   5
ENDBRANCH   1   3
BRANCH   1   6
ATOM      6  C   UNL     1       4.223   5.942  17.611  0.00  0.00    +0.000 C 
BRANCH   6   7
ATOM      7  C   UNL     1       3.164   5.022  18.142  0.00  0.00    +0.000 A 
ATOM      8  C   UNL     1       2.140   4.290  17.557  0.00  0.00    +0.000 A 
ATOM      9  C   UNL     1       1.531   3.527  18.579  0.00  0.00    +0.000 A 
ATOM     10  C   UNL     1       2.151   3.868  19.769  0.00  0.00    +0.000 A 
ATOM     11  O   UNL     1       3.081   4.840  19.512  0.00  0.00    +0.000 OA
BRANCH  10  12
ATOM     12  C   UNL     1       2.047   3.387  21.113  0.00  0.00    +0.000 C 
ATOM     13  N   UNL     1       1.982   2.977  22.196  0.00  0.00    +0.000 NA
ENDBRANCH  10  12
ENDBRANCH   6   7
ENDBRANCH   1   6
BRANCH   1  14
ATOM     14  O   UNL     1       5.504   3.786  16.463  0.00  0.00    +0.000 OA
BRANCH  14  15
ATOM     15  C   UNL     1       6.155   3.615  15.224  0.00  0.00    +0.000 C 
ATOM     16  C   UNL     1       5.531   4.340  14.053  0.00  0.00    +0.000 C 
ENDBRANCH  14  15
ENDBRANCH   1  14
TORSDOF 7
ENDMDL
MODEL 9
REMARK VINA RESULT:      -5.7      2.647      4.430
REMARK  Name = 
REMARK  9 active torsions:
REMARK  status: ('A' for Active; 'I' for Inactive)
REMARK    1  A    between atoms: C_1  and  C_2
REMARK    2  A    between atoms: C_2  and  O_3
REMARK    3  A    between atoms: O_3  and  P_4
REMARK    4  A    between atoms: P_4  and  C_6
REMARK    5  A    between atoms: P_4  and  O_14
REMARK    6  A    between atoms: C_6  and  C_7
REMARK    7  A    between atoms: C_10  and  C_11
REMARK    8  A    between atoms: O_14  and  C_15
REMARK    9  A    between atoms: C_15  and  C_16
REMARK                            x       y       z     vdW  Elec       q    Type
REMARK                         _______ _______ _______ _____ _____    ______ ____
ROOT
ATOM      1  P   UNL     1       5.790   4.524  16.985  0.00  0.00    +0.000 P 
ATOM      2  O   UNL     1       6.865   5.483  16.452  0.00  0.00    +0.000 OA
ENDROOT
BRANCH   1   3
ATOM      3  O   UNL     1       5.195   4.292  15.377  0.00  0.00    +0.000 OA
BRANCH   3   5
ATOM      4  C   UNL     1       5.932   3.673  13.166  0.00  0.00    +0.000 C 
ATOM      5  C   UNL     1       6.241   4.458  14.421  0.00  0.00    +0.000 C 
ENDBRANCH   3   5
ENDBRANCH   1   3
BRANCH   1   6
ATOM      6  C   UNL     1       4.139   5.659  17.270  0.00  0.00    +0.000 C 
BRANCH   6   7
ATOM      7  C   UNL     1       3.077   4.850  17.955  0.00  0.00    +0.000 A 
ATOM      8  C   UNL     1       1.943   4.181  17.520  0.00  0.00    +0.000 A 
ATOM      9  C   UNL     1       1.392   3.513  18.637  0.00  0.00    +0.000 A 
ATOM     10  C   UNL     1       2.163   3.853  19.736  0.00  0.00    +0.000 A 
ATOM     11  O   UNL     1       3.130   4.734  19.334  0.00  0.00    +0.000 OA
BRANCH  10  12
ATOM     12  C   UNL     1       2.169   3.439  21.106  0.00  0.00    +0.000 C 
ATOM     13  N   UNL     1       2.153   3.084  22.211  0.00  0.00    +0.000 NA
ENDBRANCH  10  12
ENDBRANCH   6   7
ENDBRANCH   1   6
BRANCH   1  14
ATOM     14  O   UNL     1       6.384   4.756  18.593  0.00  0.00    +0.000 OA
BRANCH  14  15
ATOM     15  C   UNL     1       7.386   5.708  18.879  0.00  0.00    +0.000 C 
ATOM     16  C   UNL     1       8.223   5.426  20.106  0.00  0.00    +0.000 C 
ENDBRANCH  14  15
ENDBRANCH   1  14
TORSDOF 7
ENDMDL
