MODEL 1
REMARK VINA RESULT:      -8.2      0.000      0.000
REMARK  Name = 
REMARK  7 active torsions:
REMARK  status: ('A' for Active; 'I' for Inactive)
REMARK    1  A    between atoms: C_2  and  C_3
REMARK    2  A    between atoms: C_3  and  O_4
REMARK    3  A    between atoms: O_4  and  C_5
REMARK    4  A    between atoms: C_5  and  C_7
REMARK    5  A    between atoms: C_7  and  N_8
REMARK    6  A    between atoms: C_9  and  C_11
REMARK    7  A    between atoms: N_17  and  C_18
REMARK                            x       y       z     vdW  Elec       q    Type
REMARK                         _______ _______ _______ _____ _____    ______ ____
ROOT
ATOM      1  C   UNL     1       2.387   3.549  21.548  0.00  0.00    +0.000 C 
ENDROOT
BRANCH   1   3
ATOM      2  O   UNL     1       0.718   4.449  20.083  0.00  0.00    +0.000 OA
ATOM      3  C   UNL     1       1.751   4.656  20.714  0.00  0.00    +0.000 C 
ATOM      4  N   UNL     1       2.493   5.835  20.707  0.00  0.00    +0.000 N 
ATOM      5  H   UNL     1       3.431   5.777  21.083  0.00  0.00    +0.000 HD
BRANCH   4   6
ATOM      6  C   UNL     1       2.082   7.071  20.165  0.00  0.00    +0.000 A 
ATOM      7  C   UNL     1       2.335   7.438  18.842  0.00  0.00    +0.000 A 
ATOM      8  C   UNL     1       1.876   8.660  18.333  0.00  0.00    +0.000 A 
ATOM      9  C   UNL     1       1.162   9.524  19.153  0.00  0.00    +0.000 A 
ATOM     10  C   UNL     1       0.886   9.160  20.476  0.00  0.00    +0.000 A 
ATOM     11  C   UNL     1       1.347   7.941  20.980  0.00  0.00    +0.000 A 
ATOM     12  O   UNL     1       0.172   9.962  21.331  0.00  0.00    +0.000 OA
ATOM     13  C   UNL     1      -0.550  10.974  20.618  0.00  0.00    +0.000 C 
ATOM     14  C   UNL     1       0.326  11.641  19.572  0.00  0.00    +0.000 C 
ATOM     15  O   UNL     1       0.752  10.700  18.584  0.00  0.00    +0.000 OA
ENDBRANCH   4   6
ENDBRANCH   1   3
BRANCH   1  16
ATOM     16  O   UNL     1       2.670   2.383  20.771  0.00  0.00    +0.000 OA
BRANCH  16  17
ATOM     17  C   UNL     1       3.985   2.209  20.455  0.00  0.00    +0.000 C 
ATOM     18  O   UNL     1       4.873   1.942  21.252  0.00  0.00    +0.000 OA
BRANCH  17  19
ATOM     19  C   UNL     1       4.189   2.308  18.955  0.00  0.00    +0.000 C 
BRANCH  19  20
ATOM     20  N   UNL     1       4.931   3.504  18.616  0.00  0.00    +0.000 N 
ATOM     21  C   UNL     1       4.339   4.555  17.946  0.00  0.00    +0.000 C 
ATOM     22  O   UNL     1       3.166   4.527  17.591  0.00  0.00    +0.000 OA
ATOM     23  H   UNL     1       5.934   3.493  18.750  0.00  0.00    +0.000 HD
BRANCH  21  24
ATOM     24  C   UNL     1       5.287   5.730  17.664  0.00  0.00    +0.000 C 
ATOM     25  C   UNL     1       6.771   5.374  17.852  0.00  0.00    +0.000 C 
ATOM     26  C   UNL     1       7.346   4.483  16.745  0.00  0.00    +0.000 C 
ATOM     27  C   UNL     1       6.955   4.910  15.330  0.00  0.00    +0.000 C 
ATOM     28  C   UNL     1       5.478   5.265  15.202  0.00  0.00    +0.000 C 
ATOM     29  C   UNL     1       5.085   6.297  16.254  0.00  0.00    +0.000 C 
ENDBRANCH  21  24
ENDBRANCH  19  20
ENDBRANCH  17  19
ENDBRANCH  16  17
ENDBRANCH   1  16
TORSDOF 7
ENDMDL
MODEL 2
REMARK VINA RESULT:      -7.8      1.972      4.265
REMARK  Name = 
REMARK  7 active torsions:
REMARK  status: ('A' for Active; 'I' for Inactive)
REMARK    1  A    between atoms: C_2  and  C_3
REMARK    2  A    between atoms: C_3  and  O_4
REMARK    3  A    between atoms: O_4  and  C_5
REMARK    4  A    between atoms: C_5  and  C_7
REMARK    5  A    between atoms: C_7  and  N_8
REMARK    6  A    between atoms: C_9  and  C_11
REMARK    7  A    between atoms: N_17  and  C_18
REMARK                            x       y       z     vdW  Elec       q    Type
REMARK                         _______ _______ _______ _____ _____    ______ ____
ROOT
ATOM      1  C   UNL     1       5.215   6.020  15.968  0.00  0.00    +0.000 C 
ENDROOT
BRANCH   1   3
ATOM      2  O   UNL     1       5.546   7.763  17.579  0.00  0.00    +0.000 OA
ATOM      3  C   UNL     1       4.742   7.031  17.008  0.00  0.00    +0.000 C 
ATOM      4  N   UNL     1       3.374   6.964  17.259  0.00  0.00    +0.000 N 
ATOM      5  H   UNL     1       2.887   6.159  16.883  0.00  0.00    +0.000 HD
BRANCH   4   6
ATOM      6  C   UNL     1       2.627   7.871  18.040  0.00  0.00    +0.000 A 
ATOM      7  C   UNL     1       2.204   9.112  17.559  0.00  0.00    +0.000 A 
ATOM      8  C   UNL     1       1.431   9.966  18.355  0.00  0.00    +0.000 A 
ATOM      9  C   UNL     1       1.081   9.581  19.642  0.00  0.00    +0.000 A 
ATOM     10  C   UNL     1       1.482   8.332  20.129  0.00  0.00    +0.000 A 
ATOM     11  C   UNL     1       2.255   7.483  19.332  0.00  0.00    +0.000 A 
ATOM     12  O   UNL     1       1.155   7.886  21.386  0.00  0.00    +0.000 OA
ATOM     13  C   UNL     1       0.080   8.650  21.947  0.00  0.00    +0.000 C 
ATOM     14  C   UNL     1       0.300  10.140  21.749  0.00  0.00    +0.000 C 
ATOM     15  O   UNL     1       0.328  10.473  20.359  0.00  0.00    +0.000 OA
ENDBRANCH   4   6
ENDBRANCH   1   3
BRANCH   1  16
ATOM     16  O   UNL     1       5.457   4.732  16.538  0.00  0.00    +0.000 OA
BRANCH  16  17
ATOM     17  C   UNL     1       6.687   4.577  17.104  0.00  0.00    +0.000 C 
ATOM     18  O   UNL     1       7.744   4.529  16.490  0.00  0.00    +0.000 OA
BRANCH  17  19
ATOM     19  C   UNL     1       6.579   4.555  18.617  0.00  0.00    +0.000 C 
BRANCH  19  20
ATOM     20  N   UNL     1       5.684   3.504  19.052  0.00  0.00    +0.000 N 
ATOM     21  C   UNL     1       4.430   3.787  19.556  0.00  0.00    +0.000 C 
ATOM     22  O   UNL     1       4.016   4.935  19.675  0.00  0.00    +0.000 OA
ATOM     23  H   UNL     1       6.052   2.565  19.118  0.00  0.00    +0.000 HD
BRANCH  21  24
ATOM     24  C   UNL     1       3.631   2.544  19.977  0.00  0.00    +0.000 C 
ATOM     25  C   UNL     1       2.390   2.876  20.822  0.00  0.00    +0.000 C 
ATOM     26  C   UNL     1       1.238   3.498  20.024  0.00  0.00    +0.000 C 
ATOM     27  C   UNL     1       0.952   2.804  18.692  0.00  0.00    +0.000 C 
ATOM     28  C   UNL     1       2.216   2.486  17.902  0.00  0.00    +0.000 C 
ATOM     29  C   UNL     1       3.202   1.708  18.767  0.00  0.00    +0.000 C 
ENDBRANCH  21  24
ENDBRANCH  19  20
ENDBRANCH  17  19
ENDBRANCH  16  17
ENDBRANCH   1  16
TORSDOF 7
ENDMDL
MODEL 3
REMARK VINA RESULT:      -7.7      1.005      1.258
REMARK  Name = 
REMARK  7 active torsions:
REMARK  status: ('A' for Active; 'I' for Inactive)
REMARK    1  A    between atoms: C_2  and  C_3
REMARK    2  A    between atoms: C_3  and  O_4
REMARK    3  A    between atoms: O_4  and  C_5
REMARK    4  A    between atoms: C_5  and  C_7
REMARK    5  A    between atoms: C_7  and  N_8
REMARK    6  A    between atoms: C_9  and  C_11
REMARK    7  A    between atoms: N_17  and  C_18
REMARK                            x       y       z     vdW  Elec       q    Type
REMARK                         _______ _______ _______ _____ _____    ______ ____
ROOT
ATOM      1  C   UNL     1       2.317   3.412  21.493  0.00  0.00    +0.000 C 
ENDROOT
BRANCH   1   3
ATOM      2  O   UNL     1       0.508   4.501  20.360  0.00  0.00    +0.000 OA
ATOM      3  C   UNL     1       1.685   4.556  20.707  0.00  0.00    +0.000 C 
ATOM      4  N   UNL     1       2.585   5.572  20.393  0.00  0.00    +0.000 N 
ATOM      5  H   UNL     1       3.565   5.367  20.546  0.00  0.00    +0.000 HD
BRANCH   4   6
ATOM      6  C   UNL     1       2.261   6.821  19.823  0.00  0.00    +0.000 A 
ATOM      7  C   UNL     1       2.503   7.125  18.482  0.00  0.00    +0.000 A 
ATOM      8  C   UNL     1       2.132   8.364  17.946  0.00  0.00    +0.000 A 
ATOM      9  C   UNL     1       1.517   9.309  18.756  0.00  0.00    +0.000 A 
ATOM     10  C   UNL     1       1.252   9.011  20.097  0.00  0.00    +0.000 A 
ATOM     11  C   UNL     1       1.626   7.773  20.628  0.00  0.00    +0.000 A 
ATOM     12  O   UNL     1       0.633   9.895  20.945  0.00  0.00    +0.000 OA
ATOM     13  C   UNL     1      -0.024  10.942  20.220  0.00  0.00    +0.000 C 
ATOM     14  C   UNL     1       0.872  11.502  19.128  0.00  0.00    +0.000 C 
ATOM     15  O   UNL     1       1.189  10.498  18.160  0.00  0.00    +0.000 OA
ENDBRANCH   4   6
ENDBRANCH   1   3
BRANCH   1  16
ATOM     16  O   UNL     1       3.344   2.751  20.751  0.00  0.00    +0.000 OA
BRANCH  16  17
ATOM     17  C   UNL     1       2.905   2.014  19.693  0.00  0.00    +0.000 C 
ATOM     18  O   UNL     1       1.758   1.620  19.535  0.00  0.00    +0.000 OA
BRANCH  17  19
ATOM     19  C   UNL     1       4.020   1.816  18.682  0.00  0.00    +0.000 C 
BRANCH  19  20
ATOM     20  N   UNL     1       4.039   2.899  17.722  0.00  0.00    +0.000 N 
ATOM     21  C   UNL     1       4.882   3.982  17.872  0.00  0.00    +0.000 C 
ATOM     22  O   UNL     1       5.644   4.091  18.827  0.00  0.00    +0.000 OA
ATOM     23  H   UNL     1       3.315   2.919  17.016  0.00  0.00    +0.000 HD
BRANCH  21  24
ATOM     24  C   UNL     1       4.750   5.035  16.762  0.00  0.00    +0.000 C 
ATOM     25  C   UNL     1       5.779   6.173  16.876  0.00  0.00    +0.000 C 
ATOM     26  C   UNL     1       7.206   5.765  16.491  0.00  0.00    +0.000 C 
ATOM     27  C   UNL     1       7.297   4.933  15.212  0.00  0.00    +0.000 C 
ATOM     28  C   UNL     1       6.247   3.830  15.144  0.00  0.00    +0.000 C 
ATOM     29  C   UNL     1       4.853   4.407  15.368  0.00  0.00    +0.000 C 
ENDBRANCH  21  24
ENDBRANCH  19  20
ENDBRANCH  17  19
ENDBRANCH  16  17
ENDBRANCH   1  16
TORSDOF 7
ENDMDL
MODEL 4
REMARK VINA RESULT:      -7.7      1.353      1.628
REMARK  Name = 
REMARK  7 active torsions:
REMARK  status: ('A' for Active; 'I' for Inactive)
REMARK    1  A    between atoms: C_2  and  C_3
REMARK    2  A    between atoms: C_3  and  O_4
REMARK    3  A    between atoms: O_4  and  C_5
REMARK    4  A    between atoms: C_5  and  C_7
REMARK    5  A    between atoms: C_7  and  N_8
REMARK    6  A    between atoms: C_9  and  C_11
REMARK    7  A    between atoms: N_17  and  C_18
REMARK                            x       y       z     vdW  Elec       q    Type
REMARK                         _______ _______ _______ _____ _____    ______ ____
ROOT
ATOM      1  C   UNL     1       2.228   3.726  19.360  0.00  0.00    +0.000 C 
ENDROOT
BRANCH   1   3
ATOM      2  O   UNL     1       1.265   5.136  17.679  0.00  0.00    +0.000 OA
ATOM      3  C   UNL     1       1.875   5.075  18.742  0.00  0.00    +0.000 C 
ATOM      4  N   UNL     1       2.373   6.158  19.464  0.00  0.00    +0.000 N 
ATOM      5  H   UNL     1       3.049   5.943  20.187  0.00  0.00    +0.000 HD
BRANCH   4   6
ATOM      6  C   UNL     1       2.074   7.517  19.233  0.00  0.00    +0.000 A 
ATOM      7  C   UNL     1       2.367   8.162  18.030  0.00  0.00    +0.000 A 
ATOM      8  C   UNL     1       2.018   9.503  17.828  0.00  0.00    +0.000 A 
ATOM      9  C   UNL     1       1.377  10.208  18.837  0.00  0.00    +0.000 A 
ATOM     10  C   UNL     1       1.061   9.569  20.041  0.00  0.00    +0.000 A 
ATOM     11  C   UNL     1       1.412   8.230  20.239  0.00  0.00    +0.000 A 
ATOM     12  O   UNL     1       0.413  10.205  21.071  0.00  0.00    +0.000 OA
ATOM     13  C   UNL     1      -0.213  11.414  20.626  0.00  0.00    +0.000 C 
ATOM     14  C   UNL     1       0.724  12.232  19.753  0.00  0.00    +0.000 C 
ATOM     15  O   UNL     1       1.074  11.516  18.566  0.00  0.00    +0.000 OA
ENDBRANCH   4   6
ENDBRANCH   1   3
BRANCH   1  16
ATOM     16  O   UNL     1       2.770   2.817  18.400  0.00  0.00    +0.000 OA
BRANCH  16  17
ATOM     17  C   UNL     1       3.780   2.028  18.862  0.00  0.00    +0.000 C 
ATOM     18  O   UNL     1       3.924   0.842  18.601  0.00  0.00    +0.000 OA
BRANCH  17  19
ATOM     19  C   UNL     1       4.761   2.843  19.683  0.00  0.00    +0.000 C 
BRANCH  19  20
ATOM     20  N   UNL     1       5.685   3.552  18.823  0.00  0.00    +0.000 N 
ATOM     21  C   UNL     1       5.838   4.922  18.900  0.00  0.00    +0.000 C 
ATOM     22  O   UNL     1       5.194   5.608  19.686  0.00  0.00    +0.000 OA
ATOM     23  H   UNL     1       6.109   3.041  18.060  0.00  0.00    +0.000 HD
BRANCH  21  24
ATOM     24  C   UNL     1       6.852   5.495  17.899  0.00  0.00    +0.000 C 
ATOM     25  C   UNL     1       7.254   4.497  16.800  0.00  0.00    +0.000 C 
ATOM     26  C   UNL     1       6.166   4.255  15.748  0.00  0.00    +0.000 C 
ATOM     27  C   UNL     1       5.480   5.527  15.251  0.00  0.00    +0.000 C 
ATOM     28  C   UNL     1       5.116   6.486  16.378  0.00  0.00    +0.000 C 
ATOM     29  C   UNL     1       6.338   6.780  17.242  0.00  0.00    +0.000 C 
ENDBRANCH  21  24
ENDBRANCH  19  20
ENDBRANCH  17  19
ENDBRANCH  16  17
ENDBRANCH   1  16
TORSDOF 7
ENDMDL
MODEL 5
REMARK VINA RESULT:      -7.6      5.823      7.386
REMARK  Name = 
REMARK  7 active torsions:
REMARK  status: ('A' for Active; 'I' for Inactive)
REMARK    1  A    between atoms: C_2  and  C_3
REMARK    2  A    between atoms: C_3  and  O_4
REMARK    3  A    between atoms: O_4  and  C_5
REMARK    4  A    between atoms: C_5  and  C_7
REMARK    5  A    between atoms: C_7  and  N_8
REMARK    6  A    between atoms: C_9  and  C_11
REMARK    7  A    between atoms: N_17  and  C_18
REMARK                            x       y       z     vdW  Elec       q    Type
REMARK                         _______ _______ _______ _____ _____    ______ ____
ROOT
ATOM      1  C   UNL     1       7.984   7.103  18.280  0.00  0.00    +0.000 C 
ENDROOT
BRANCH   1   3
ATOM      2  O   UNL     1       7.434   9.267  17.411  0.00  0.00    +0.000 OA
ATOM      3  C   UNL     1       8.133   8.617  18.184  0.00  0.00    +0.000 C 
ATOM      4  N   UNL     1       9.155   9.121  18.984  0.00  0.00    +0.000 N 
ATOM      5  H   UNL     1       9.790   8.441  19.384  0.00  0.00    +0.000 HD
BRANCH   4   6
ATOM      6  C   UNL     1       9.423  10.485  19.229  0.00  0.00    +0.000 A 
ATOM      7  C   UNL     1       9.727  11.390  18.210  0.00  0.00    +0.000 A 
ATOM      8  C   UNL     1       9.949  12.743  18.492  0.00  0.00    +0.000 A 
ATOM      9  C   UNL     1       9.870  13.197  19.802  0.00  0.00    +0.000 A 
ATOM     10  C   UNL     1       9.548  12.304  20.830  0.00  0.00    +0.000 A 
ATOM     11  C   UNL     1       9.329  10.954  20.544  0.00  0.00    +0.000 A 
ATOM     12  O   UNL     1       9.438  12.693  22.142  0.00  0.00    +0.000 OA
ATOM     13  C   UNL     1       9.311  14.115  22.257  0.00  0.00    +0.000 C 
ATOM     14  C   UNL     1      10.323  14.831  21.378  0.00  0.00    +0.000 C 
ATOM     15  O   UNL     1      10.104  14.532  19.997  0.00  0.00    +0.000 OA
ENDBRANCH   4   6
ENDBRANCH   1   3
BRANCH   1  16
ATOM     16  O   UNL     1       7.667   6.510  17.019  0.00  0.00    +0.000 OA
BRANCH  16  17
ATOM     17  C   UNL     1       7.271   5.207  17.080  0.00  0.00    +0.000 C 
ATOM     18  O   UNL     1       8.016   4.250  17.237  0.00  0.00    +0.000 OA
BRANCH  17  19
ATOM     19  C   UNL     1       5.759   5.106  17.011  0.00  0.00    +0.000 C 
BRANCH  19  20
ATOM     20  N   UNL     1       5.293   3.919  17.697  0.00  0.00    +0.000 N 
ATOM     21  C   UNL     1       4.524   4.002  18.841  0.00  0.00    +0.000 C 
ATOM     22  O   UNL     1       4.209   5.076  19.341  0.00  0.00    +0.000 OA
ATOM     23  H   UNL     1       5.667   3.026  17.406  0.00  0.00    +0.000 HD
BRANCH  21  24
ATOM     24  C   UNL     1       4.137   2.639  19.434  0.00  0.00    +0.000 C 
ATOM     25  C   UNL     1       3.140   2.743  20.600  0.00  0.00    +0.000 C 
ATOM     26  C   UNL     1       1.712   3.100  20.171  0.00  0.00    +0.000 C 
ATOM     27  C   UNL     1       1.210   2.324  18.954  0.00  0.00    +0.000 C 
ATOM     28  C   UNL     1       2.241   2.240  17.834  0.00  0.00    +0.000 C 
ATOM     29  C   UNL     1       3.563   1.698  18.368  0.00  0.00    +0.000 C 
ENDBRANCH  21  24
ENDBRANCH  19  20
ENDBRANCH  17  19
ENDBRANCH  16  17
ENDBRANCH   1  16
TORSDOF 7
ENDMDL
MODEL 6
REMARK VINA RESULT:      -7.6      5.694      7.752
REMARK  Name = 
REMARK  7 active torsions:
REMARK  status: ('A' for Active; 'I' for Inactive)
REMARK    1  A    between atoms: C_2  and  C_3
REMARK    2  A    between atoms: C_3  and  O_4
REMARK    3  A    between atoms: O_4  and  C_5
REMARK    4  A    between atoms: C_5  and  C_7
REMARK    5  A    between atoms: C_7  and  N_8
REMARK    6  A    between atoms: C_9  and  C_11
REMARK    7  A    between atoms: N_17  and  C_18
REMARK                            x       y       z     vdW  Elec       q    Type
REMARK                         _______ _______ _______ _____ _____    ______ ____
ROOT
ATOM      1  C   UNL     1       6.993   7.210  17.150  0.00  0.00    +0.000 C 
ENDROOT
BRANCH   1   3
ATOM      2  O   UNL     1       8.625   7.323  18.901  0.00  0.00    +0.000 OA
ATOM      3  C   UNL     1       7.969   7.940  18.067  0.00  0.00    +0.000 C 
ATOM      4  N   UNL     1       7.959   9.322  17.891  0.00  0.00    +0.000 N 
ATOM      5  H   UNL     1       7.202   9.699  17.333  0.00  0.00    +0.000 HD
BRANCH   4   6
ATOM      6  C   UNL     1       8.859  10.240  18.473  0.00  0.00    +0.000 A 
ATOM      7  C   UNL     1       9.100  10.294  19.847  0.00  0.00    +0.000 A 
ATOM      8  C   UNL     1      10.031  11.195  20.379  0.00  0.00    +0.000 A 
ATOM      9  C   UNL     1      10.724  12.051  19.534  0.00  0.00    +0.000 A 
ATOM     10  C   UNL     1      10.505  11.994  18.153  0.00  0.00    +0.000 A 
ATOM     11  C   UNL     1       9.574  11.094  17.626  0.00  0.00    +0.000 A 
ATOM     12  O   UNL     1      11.169  12.801  17.263  0.00  0.00    +0.000 OA
ATOM     13  C   UNL     1      12.332  13.390  17.859  0.00  0.00    +0.000 C 
ATOM     14  C   UNL     1      12.021  13.945  19.239  0.00  0.00    +0.000 C 
ATOM     15  O   UNL     1      11.613  12.905  20.131  0.00  0.00    +0.000 OA
ENDBRANCH   4   6
ENDBRANCH   1   3
BRANCH   1  16
ATOM     16  O   UNL     1       6.057   6.415  17.881  0.00  0.00    +0.000 OA
BRANCH  16  17
ATOM     17  C   UNL     1       6.274   5.071  17.820  0.00  0.00    +0.000 C 
ATOM     18  O   UNL     1       6.979   4.435  18.591  0.00  0.00    +0.000 OA
BRANCH  17  19
ATOM     19  C   UNL     1       5.450   4.447  16.710  0.00  0.00    +0.000 C 
BRANCH  19  20
ATOM     20  N   UNL     1       4.035   4.544  17.005  0.00  0.00    +0.000 N 
ATOM     21  C   UNL     1       3.347   3.498  17.588  0.00  0.00    +0.000 C 
ATOM     22  O   UNL     1       3.889   2.436  17.871  0.00  0.00    +0.000 OA
ATOM     23  H   UNL     1       3.528   5.338  16.640  0.00  0.00    +0.000 HD
BRANCH  21  24
ATOM     24  C   UNL     1       1.854   3.781  17.812  0.00  0.00    +0.000 C 
ATOM     25  C   UNL     1       1.131   2.663  18.581  0.00  0.00    +0.000 C 
ATOM     26  C   UNL     1       1.472   2.609  20.074  0.00  0.00    +0.000 C 
ATOM     27  C   UNL     1       1.479   3.973  20.765  0.00  0.00    +0.000 C 
ATOM     28  C   UNL     1       2.196   5.047  19.956  0.00  0.00    +0.000 C 
ATOM     29  C   UNL     1       1.632   5.112  18.540  0.00  0.00    +0.000 C 
ENDBRANCH  21  24
ENDBRANCH  19  20
ENDBRANCH  17  19
ENDBRANCH  16  17
ENDBRANCH   1  16
TORSDOF 7
ENDMDL
MODEL 7
REMARK VINA RESULT:      -7.6      5.390      7.085
REMARK  Name = 
REMARK  7 active torsions:
REMARK  status: ('A' for Active; 'I' for Inactive)
REMARK    1  A    between atoms: C_2  and  C_3
REMARK    2  A    between atoms: C_3  and  O_4
REMARK    3  A    between atoms: O_4  and  C_5
REMARK    4  A    between atoms: C_5  and  C_7
REMARK    5  A    between atoms: C_7  and  N_8
REMARK    6  A    between atoms: C_9  and  C_11
REMARK    7  A    between atoms: N_17  and  C_18
REMARK                            x       y       z     vdW  Elec       q    Type
REMARK                         _______ _______ _______ _____ _____    ______ ____
ROOT
ATOM      1  C   UNL     1       7.591   6.268  18.492  0.00  0.00    +0.000 C 
ENDROOT
BRANCH   1   3
ATOM      2  O   UNL     1       7.351   8.168  17.053  0.00  0.00    +0.000 OA
ATOM      3  C   UNL     1       7.838   7.717  18.086  0.00  0.00    +0.000 C 
ATOM      4  N   UNL     1       8.695   8.392  18.952  0.00  0.00    +0.000 N 
ATOM      5  H   UNL     1       9.195   7.823  19.624  0.00  0.00    +0.000 HD
BRANCH   4   6
ATOM      6  C   UNL     1       8.978   9.775  18.929  0.00  0.00    +0.000 A 
ATOM      7  C   UNL     1       8.762  10.572  17.804  0.00  0.00    +0.000 A 
ATOM      8  C   UNL     1       9.020  11.948  17.836  0.00  0.00    +0.000 A 
ATOM      9  C   UNL     1       9.501  12.532  19.000  0.00  0.00    +0.000 A 
ATOM     10  C   UNL     1       9.704  11.748  20.141  0.00  0.00    +0.000 A 
ATOM     11  C   UNL     1       9.446  10.375  20.103  0.00  0.00    +0.000 A 
ATOM     12  O   UNL     1      10.162  12.267  21.326  0.00  0.00    +0.000 OA
ATOM     13  C   UNL     1      10.030  13.694  21.356  0.00  0.00    +0.000 C 
ATOM     14  C   UNL     1      10.520  14.320  20.061  0.00  0.00    +0.000 C 
ATOM     15  O   UNL     1       9.733  13.881  18.950  0.00  0.00    +0.000 OA
ENDBRANCH   4   6
ENDBRANCH   1   3
BRANCH   1  16
ATOM     16  O   UNL     1       6.529   5.671  17.746  0.00  0.00    +0.000 OA
BRANCH  16  17
ATOM     17  C   UNL     1       6.910   4.667  16.906  0.00  0.00    +0.000 C 
ATOM     18  O   UNL     1       8.065   4.400  16.605  0.00  0.00    +0.000 OA
BRANCH  17  19
ATOM     19  C   UNL     1       5.705   3.863  16.455  0.00  0.00    +0.000 C 
BRANCH  19  20
ATOM     20  N   UNL     1       4.476   4.512  16.860  0.00  0.00    +0.000 N 
ATOM     21  C   UNL     1       3.433   3.799  17.418  0.00  0.00    +0.000 C 
ATOM     22  O   UNL     1       3.487   2.586  17.587  0.00  0.00    +0.000 OA
ATOM     23  H   UNL     1       4.337   5.476  16.588  0.00  0.00    +0.000 HD
BRANCH  21  24
ATOM     24  C   UNL     1       2.208   4.656  17.769  0.00  0.00    +0.000 C 
ATOM     25  C   UNL     1       1.067   3.852  18.414  0.00  0.00    +0.000 C 
ATOM     26  C   UNL     1       1.340   3.429  19.861  0.00  0.00    +0.000 C 
ATOM     27  C   UNL     1       1.931   4.534  20.737  0.00  0.00    +0.000 C 
ATOM     28  C   UNL     1       3.048   5.307  20.046  0.00  0.00    +0.000 C 
ATOM     29  C   UNL     1       2.578   5.824  18.691  0.00  0.00    +0.000 C 
ENDBRANCH  21  24
ENDBRANCH  19  20
ENDBRANCH  17  19
ENDBRANCH  16  17
ENDBRANCH   1  16
TORSDOF 7
ENDMDL
MODEL 8
REMARK VINA RESULT:      -7.5      1.436      2.118
REMARK  Name = 
REMARK  7 active torsions:
REMARK  status: ('A' for Active; 'I' for Inactive)
REMARK    1  A    between atoms: C_2  and  C_3
REMARK    2  A    between atoms: C_3  and  O_4
REMARK    3  A    between atoms: O_4  and  C_5
REMARK    4  A    between atoms: C_5  and  C_7
REMARK    5  A    between atoms: C_7  and  N_8
REMARK    6  A    between atoms: C_9  and  C_11
REMARK    7  A    between atoms: N_17  and  C_18
REMARK                            x       y       z     vdW  Elec       q    Type
REMARK                         _______ _______ _______ _____ _____    ______ ____
ROOT
ATOM      1  C   UNL     1       3.340   4.074  20.081  0.00  0.00    +0.000 C 
ENDROOT
BRANCH   1   3
ATOM      2  O   UNL     1       1.147   4.861  20.640  0.00  0.00    +0.000 OA
ATOM      3  C   UNL     1       2.271   5.150  20.240  0.00  0.00    +0.000 C 
ATOM      4  N   UNL     1       2.694   6.411  19.825  0.00  0.00    +0.000 N 
ATOM      5  H   UNL     1       3.564   6.445  19.307  0.00  0.00    +0.000 HD
BRANCH   4   6
ATOM      6  C   UNL     1       1.992   7.622  20.002  0.00  0.00    +0.000 A 
ATOM      7  C   UNL     1       1.736   8.507  18.953  0.00  0.00    +0.000 A 
ATOM      8  C   UNL     1       1.002   9.681  19.164  0.00  0.00    +0.000 A 
ATOM      9  C   UNL     1       0.523   9.976  20.433  0.00  0.00    +0.000 A 
ATOM     10  C   UNL     1       0.757   9.088  21.489  0.00  0.00    +0.000 A 
ATOM     11  C   UNL     1       1.491   7.919  21.274  0.00  0.00    +0.000 A 
ATOM     12  O   UNL     1       0.297   9.314  22.763  0.00  0.00    +0.000 OA
ATOM     13  C   UNL     1      -0.730  10.314  22.777  0.00  0.00    +0.000 C 
ATOM     14  C   UNL     1      -0.342  11.514  21.931  0.00  0.00    +0.000 C 
ATOM     15  O   UNL     1      -0.181  11.144  20.559  0.00  0.00    +0.000 OA
ENDBRANCH   4   6
ENDBRANCH   1   3
BRANCH   1  16
ATOM     16  O   UNL     1       2.788   2.821  19.672  0.00  0.00    +0.000 OA
BRANCH  16  17
ATOM     17  C   UNL     1       3.387   2.256  18.585  0.00  0.00    +0.000 C 
ATOM     18  O   UNL     1       3.762   1.095  18.512  0.00  0.00    +0.000 OA
BRANCH  17  19
ATOM     19  C   UNL     1       3.451   3.246  17.438  0.00  0.00    +0.000 C 
BRANCH  19  20
ATOM     20  N   UNL     1       4.826   3.548  17.098  0.00  0.00    +0.000 N 
ATOM     21  C   UNL     1       5.273   4.849  16.984  0.00  0.00    +0.000 C 
ATOM     22  O   UNL     1       4.532   5.812  17.150  0.00  0.00    +0.000 OA
ATOM     23  H   UNL     1       5.419   2.785  16.798  0.00  0.00    +0.000 HD
BRANCH  21  24
ATOM     24  C   UNL     1       6.756   4.970  16.603  0.00  0.00    +0.000 C 
ATOM     25  C   UNL     1       7.167   6.396  16.199  0.00  0.00    +0.000 C 
ATOM     26  C   UNL     1       7.261   7.376  17.373  0.00  0.00    +0.000 C 
ATOM     27  C   UNL     1       7.979   6.817  18.601  0.00  0.00    +0.000 C 
ATOM     28  C   UNL     1       7.545   5.398  18.950  0.00  0.00    +0.000 C 
ATOM     29  C   UNL     1       7.673   4.488  17.733  0.00  0.00    +0.000 C 
ENDBRANCH  21  24
ENDBRANCH  19  20
ENDBRANCH  17  19
ENDBRANCH  16  17
ENDBRANCH   1  16
TORSDOF 7
ENDMDL
MODEL 9
REMARK VINA RESULT:      -7.4      1.566      2.224
REMARK  Name = 
REMARK  7 active torsions:
REMARK  status: ('A' for Active; 'I' for Inactive)
REMARK    1  A    between atoms: C_2  and  C_3
REMARK    2  A    between atoms: C_3  and  O_4
REMARK    3  A    between atoms: O_4  and  C_5
REMARK    4  A    between atoms: C_5  and  C_7
REMARK    5  A    between atoms: C_7  and  N_8
REMARK    6  A    between atoms: C_9  and  C_11
REMARK    7  A    between atoms: N_17  and  C_18
REMARK                            x       y       z     vdW  Elec       q    Type
REMARK                         _______ _______ _______ _____ _____    ______ ____
ROOT
ATOM      1  C   UNL     1       2.931   3.314  17.295  0.00  0.00    +0.000 C 
ENDROOT
BRANCH   1   3
ATOM      2  O   UNL     1       0.890   4.567  17.349  0.00  0.00    +0.000 OA
ATOM      3  C   UNL     1       2.099   4.565  17.560  0.00  0.00    +0.000 C 
ATOM      4  N   UNL     1       2.861   5.654  17.977  0.00  0.00    +0.000 N 
ATOM      5  H   UNL     1       3.865   5.563  17.882  0.00  0.00    +0.000 HD
BRANCH   4   6
ATOM      6  C   UNL     1       2.359   6.885  18.450  0.00  0.00    +0.000 A 
ATOM      7  C   UNL     1       2.091   7.966  17.607  0.00  0.00    +0.000 A 
ATOM      8  C   UNL     1       1.557   9.158  18.112  0.00  0.00    +0.000 A 
ATOM      9  C   UNL     1       1.293   9.274  19.470  0.00  0.00    +0.000 A 
ATOM     10  C   UNL     1       1.540   8.193  20.323  0.00  0.00    +0.000 A 
ATOM     11  C   UNL     1       2.074   7.005  19.814  0.00  0.00    +0.000 A 
ATOM     12  O   UNL     1       1.286   8.238  21.671  0.00  0.00    +0.000 OA
ATOM     13  C   UNL     1       0.415   9.328  22.001  0.00  0.00    +0.000 C 
ATOM     14  C   UNL     1       0.849  10.609  21.309  0.00  0.00    +0.000 C 
ATOM     15  O   UNL     1       0.777  10.472  19.887  0.00  0.00    +0.000 OA
ENDBRANCH   4   6
ENDBRANCH   1   3
BRANCH   1  16
ATOM     16  O   UNL     1       2.976   2.445  18.429  0.00  0.00    +0.000 OA
BRANCH  16  17
ATOM     17  C   UNL     1       3.221   3.063  19.618  0.00  0.00    +0.000 C 
ATOM     18  O   UNL     1       2.393   3.671  20.281  0.00  0.00    +0.000 OA
BRANCH  17  19
ATOM     19  C   UNL     1       4.653   2.823  20.058  0.00  0.00    +0.000 C 
BRANCH  19  20
ATOM     20  N   UNL     1       5.583   3.262  19.038  0.00  0.00    +0.000 N 
ATOM     21  C   UNL     1       5.963   4.584  18.929  0.00  0.00    +0.000 C 
ATOM     22  O   UNL     1       5.526   5.454  19.675  0.00  0.00    +0.000 OA
ATOM     23  H   UNL     1       5.835   2.605  18.312  0.00  0.00    +0.000 HD
BRANCH  21  24
ATOM     24  C   UNL     1       6.944   4.860  17.780  0.00  0.00    +0.000 C 
ATOM     25  C   UNL     1       6.516   4.223  16.448  0.00  0.00    +0.000 C 
ATOM     26  C   UNL     1       5.334   4.925  15.771  0.00  0.00    +0.000 C 
ATOM     27  C   UNL     1       5.433   6.450  15.759  0.00  0.00    +0.000 C 
ATOM     28  C   UNL     1       5.873   7.028  17.099  0.00  0.00    +0.000 C 
ATOM     29  C   UNL     1       7.162   6.362  17.568  0.00  0.00    +0.000 C 
ENDBRANCH  21  24
ENDBRANCH  19  20
ENDBRANCH  17  19
ENDBRANCH  16  17
ENDBRANCH   1  16
TORSDOF 7
ENDMDL
