MODEL 1
REMARK VINA RESULT:      -8.3      0.000      0.000
REMARK  Name = 
REMARK  5 active torsions:
REMARK  status: ('A' for Active; 'I' for Inactive)
REMARK    1  A    between atoms: C_1  and  N_2
REMARK    2  A    between atoms: N_2  and  C_3
REMARK    3  A    between atoms: C_3  and  C_4
REMARK    4  A    between atoms: C_14  and  C_16
REMARK    5  A    between atoms: C_19  and  N_20
REMARK                            x       y       z     vdW  Elec       q    Type
REMARK                         _______ _______ _______ _____ _____    ______ ____
ROOT
ATOM      1  C   UNL     1       2.167   2.877  21.915  0.00  0.00    +0.000 C 
ATOM      2  N   UNL     1       2.572   3.320  20.582  0.00  0.00    +0.000 N 
ATOM      3  C   UNL     1       3.866   2.921  20.194  0.00  0.00    +0.000 C 
ATOM      4  O   UNL     1       4.583   2.241  20.932  0.00  0.00    +0.000 OA
ENDROOT
BRANCH   3   5
ATOM      5  C   UNL     1       4.473   3.344  18.901  0.00  0.00    +0.000 A 
ATOM      6  C   UNL     1       5.556   4.235  18.966  0.00  0.00    +0.000 A 
ATOM      7  C   UNL     1       6.226   4.642  17.808  0.00  0.00    +0.000 A 
ATOM      8  C   UNL     1       5.803   4.173  16.560  0.00  0.00    +0.000 A 
ATOM      9  C   UNL     1       4.739   3.265  16.488  0.00  0.00    +0.000 A 
ATOM     10  C   UNL     1       4.106   2.826  17.657  0.00  0.00    +0.000 A 
BRANCH   8  11
ATOM     11  N   UNL     1       6.460   4.569  15.369  0.00  0.00    +0.000 N 
ATOM     12  C   UNL     1       6.184   4.242  14.067  0.00  0.00    +0.000 A 
ATOM     13  N   UNL     1       7.064   4.813  13.280  0.00  0.00    +0.000 NA
ATOM     14  N   UNL     1       7.902   5.516  14.104  0.00  0.00    +0.000 NA
ATOM     15  N   UNL     1       7.543   5.381  15.372  0.00  0.00    +0.000 NA
ENDBRANCH   8  11
ENDBRANCH   3   5
BRANCH   2  16
ATOM     16  C   UNL     1       1.768   4.332  19.865  0.00  0.00    +0.000 C 
BRANCH  16  17
ATOM     17  C   UNL     1       2.354   5.734  19.595  0.00  0.00    +0.000 C 
ATOM     18  C   UNL     1       2.248   6.035  18.093  0.00  0.00    +0.000 C 
ATOM     19  O   UNL     1       2.696   7.357  17.780  0.00  0.00    +0.000 OA
ATOM     20  C   UNL     1       2.093   8.274  18.600  0.00  0.00    +0.000 A 
ATOM     21  C   UNL     1       2.011   9.589  18.148  0.00  0.00    +0.000 A 
ATOM     22  C   UNL     1       1.388  10.559  18.939  0.00  0.00    +0.000 A 
ATOM     23  C   UNL     1       0.874  10.220  20.191  0.00  0.00    +0.000 A 
ATOM     24  C   UNL     1       0.969   8.908  20.646  0.00  0.00    +0.000 A 
ATOM     25  C   UNL     1       1.568   7.937  19.846  0.00  0.00    +0.000 A 
ATOM     26  O   UNL     1       1.563   6.670  20.342  0.00  0.00    +0.000 OA
ENDBRANCH  16  17
ENDBRANCH   2  16
TORSDOF 4
ENDMDL
MODEL 2
REMARK VINA RESULT:      -8.1      1.060      1.661
REMARK  Name = 
REMARK  5 active torsions:
REMARK  status: ('A' for Active; 'I' for Inactive)
REMARK    1  A    between atoms: C_1  and  N_2
REMARK    2  A    between atoms: N_2  and  C_3
REMARK    3  A    between atoms: C_3  and  C_4
REMARK    4  A    between atoms: C_14  and  C_16
REMARK    5  A    between atoms: C_19  and  N_20
REMARK                            x       y       z     vdW  Elec       q    Type
REMARK                         _______ _______ _______ _____ _____    ______ ____
ROOT
ATOM      1  C   UNL     1       2.462   3.845  20.986  0.00  0.00    +0.000 C 
ATOM      2  N   UNL     1       3.021   4.173  19.676  0.00  0.00    +0.000 N 
ATOM      3  C   UNL     1       4.277   3.593  19.406  0.00  0.00    +0.000 C 
ATOM      4  O   UNL     1       4.840   2.859  20.222  0.00  0.00    +0.000 OA
ENDROOT
BRANCH   3   5
ATOM      5  C   UNL     1       5.030   3.877  18.152  0.00  0.00    +0.000 A 
ATOM      6  C   UNL     1       4.411   3.524  16.942  0.00  0.00    +0.000 A 
ATOM      7  C   UNL     1       5.016   3.804  15.713  0.00  0.00    +0.000 A 
ATOM      8  C   UNL     1       6.267   4.428  15.682  0.00  0.00    +0.000 A 
ATOM      9  C   UNL     1       6.880   4.805  16.883  0.00  0.00    +0.000 A 
ATOM     10  C   UNL     1       6.244   4.565  18.107  0.00  0.00    +0.000 A 
BRANCH   8  11
ATOM     11  N   UNL     1       6.906   4.723  14.452  0.00  0.00    +0.000 N 
ATOM     12  C   UNL     1       6.661   4.227  13.198  0.00  0.00    +0.000 A 
ATOM     13  N   UNL     1       7.508   4.756  12.348  0.00  0.00    +0.000 NA
ATOM     14  N   UNL     1       8.293   5.604  13.084  0.00  0.00    +0.000 NA
ATOM     15  N   UNL     1       7.935   5.596  14.358  0.00  0.00    +0.000 NA
ENDBRANCH   8  11
ENDBRANCH   3   5
BRANCH   2  16
ATOM     16  C   UNL     1       2.415   5.248  18.863  0.00  0.00    +0.000 C 
BRANCH  16  17
ATOM     17  C   UNL     1       2.540   6.719  19.311  0.00  0.00    +0.000 C 
ATOM     18  C   UNL     1       2.099   7.629  18.155  0.00  0.00    +0.000 C 
ATOM     19  O   UNL     1       2.107   9.010  18.529  0.00  0.00    +0.000 OA
ATOM     20  C   UNL     1       1.428   9.193  19.705  0.00  0.00    +0.000 A 
ATOM     21  C   UNL     1       0.914  10.461  19.962  0.00  0.00    +0.000 A 
ATOM     22  C   UNL     1       0.196  10.695  21.139  0.00  0.00    +0.000 A 
ATOM     23  C   UNL     1       0.018   9.670  22.068  0.00  0.00    +0.000 A 
ATOM     24  C   UNL     1       0.544   8.407  21.814  0.00  0.00    +0.000 A 
ATOM     25  C   UNL     1       1.239   8.168  20.630  0.00  0.00    +0.000 A 
ATOM     26  O   UNL     1       1.665   6.891  20.435  0.00  0.00    +0.000 OA
ENDBRANCH  16  17
ENDBRANCH   2  16
TORSDOF 4
ENDMDL
MODEL 3
REMARK VINA RESULT:      -7.8      3.417      7.124
REMARK  Name = 
REMARK  5 active torsions:
REMARK  status: ('A' for Active; 'I' for Inactive)
REMARK    1  A    between atoms: C_1  and  N_2
REMARK    2  A    between atoms: N_2  and  C_3
REMARK    3  A    between atoms: C_3  and  C_4
REMARK    4  A    between atoms: C_14  and  C_16
REMARK    5  A    between atoms: C_19  and  N_20
REMARK                            x       y       z     vdW  Elec       q    Type
REMARK                         _______ _______ _______ _____ _____    ______ ____
ROOT
ATOM      1  C   UNL     1       3.770   1.783  18.005  0.00  0.00    +0.000 C 
ATOM      2  N   UNL     1       3.726   3.143  18.541  0.00  0.00    +0.000 N 
ATOM      3  C   UNL     1       2.430   3.665  18.722  0.00  0.00    +0.000 C 
ATOM      4  O   UNL     1       1.422   3.007  18.453  0.00  0.00    +0.000 OA
ENDROOT
BRANCH   3   5
ATOM      5  C   UNL     1       2.194   5.061  19.188  0.00  0.00    +0.000 A 
ATOM      6  C   UNL     1       2.262   6.076  18.220  0.00  0.00    +0.000 A 
ATOM      7  C   UNL     1       1.998   7.409  18.553  0.00  0.00    +0.000 A 
ATOM      8  C   UNL     1       1.680   7.745  19.873  0.00  0.00    +0.000 A 
ATOM      9  C   UNL     1       1.586   6.735  20.838  0.00  0.00    +0.000 A 
ATOM     10  C   UNL     1       1.804   5.398  20.485  0.00  0.00    +0.000 A 
BRANCH   8  11
ATOM     11  N   UNL     1       1.410   9.086  20.241  0.00  0.00    +0.000 N 
ATOM     12  C   UNL     1       1.224   9.631  21.484  0.00  0.00    +0.000 A 
ATOM     13  N   UNL     1       0.973  10.913  21.363  0.00  0.00    +0.000 NA
ATOM     14  N   UNL     1       1.010  11.175  20.019  0.00  0.00    +0.000 NA
ATOM     15  N   UNL     1       1.279  10.077  19.329  0.00  0.00    +0.000 NA
ENDBRANCH   8  11
ENDBRANCH   3   5
BRANCH   2  16
ATOM     16  C   UNL     1       4.960   3.953  18.601  0.00  0.00    +0.000 C 
BRANCH  16  17
ATOM     17  C   UNL     1       5.433   4.733  17.357  0.00  0.00    +0.000 C 
ATOM     18  C   UNL     1       6.966   4.825  17.381  0.00  0.00    +0.000 C 
ATOM     19  O   UNL     1       7.482   5.463  16.209  0.00  0.00    +0.000 OA
ATOM     20  C   UNL     1       6.952   4.895  15.081  0.00  0.00    +0.000 A 
ATOM     21  C   UNL     1       7.670   5.025  13.895  0.00  0.00    +0.000 A 
ATOM     22  C   UNL     1       7.182   4.447  12.719  0.00  0.00    +0.000 A 
ATOM     23  C   UNL     1       5.965   3.766  12.724  0.00  0.00    +0.000 A 
ATOM     24  C   UNL     1       5.243   3.648  13.909  0.00  0.00    +0.000 A 
ATOM     25  C   UNL     1       5.742   4.204  15.085  0.00  0.00    +0.000 A 
ATOM     26  O   UNL     1       5.002   3.989  16.207  0.00  0.00    +0.000 OA
ENDBRANCH  16  17
ENDBRANCH   2  16
TORSDOF 4
ENDMDL
MODEL 4
REMARK VINA RESULT:      -7.8      0.896      1.024
REMARK  Name = 
REMARK  5 active torsions:
REMARK  status: ('A' for Active; 'I' for Inactive)
REMARK    1  A    between atoms: C_1  and  N_2
REMARK    2  A    between atoms: N_2  and  C_3
REMARK    3  A    between atoms: C_3  and  C_4
REMARK    4  A    between atoms: C_14  and  C_16
REMARK    5  A    between atoms: C_19  and  N_20
REMARK                            x       y       z     vdW  Elec       q    Type
REMARK                         _______ _______ _______ _____ _____    ______ ____
ROOT
ATOM      1  C   UNL     1       2.510   3.633  21.192  0.00  0.00    +0.000 C 
ATOM      2  N   UNL     1       2.931   3.992  19.839  0.00  0.00    +0.000 N 
ATOM      3  C   UNL     1       4.200   3.505  19.466  0.00  0.00    +0.000 C 
ATOM      4  O   UNL     1       4.883   2.822  20.233  0.00  0.00    +0.000 OA
ENDROOT
BRANCH   3   5
ATOM      5  C   UNL     1       4.823   3.835  18.153  0.00  0.00    +0.000 A 
ATOM      6  C   UNL     1       5.913   4.720  18.169  0.00  0.00    +0.000 A 
ATOM      7  C   UNL     1       6.597   5.043  16.993  0.00  0.00    +0.000 A 
ATOM      8  C   UNL     1       6.181   4.495  15.775  0.00  0.00    +0.000 A 
ATOM      9  C   UNL     1       5.110   3.593  15.755  0.00  0.00    +0.000 A 
ATOM     10  C   UNL     1       4.463   3.238  16.944  0.00  0.00    +0.000 A 
BRANCH   8  11
ATOM     11  N   UNL     1       6.853   4.805  14.567  0.00  0.00    +0.000 N 
ATOM     12  C   UNL     1       6.581   4.399  13.286  0.00  0.00    +0.000 A 
ATOM     13  N   UNL     1       7.475   4.906  12.471  0.00  0.00    +0.000 NA
ATOM     14  N   UNL     1       8.318   5.647  13.256  0.00  0.00    +0.000 NA
ATOM     15  N   UNL     1       7.948   5.598  14.527  0.00  0.00    +0.000 NA
ENDBRANCH   8  11
ENDBRANCH   3   5
BRANCH   2  16
ATOM     16  C   UNL     1       2.180   5.013  19.079  0.00  0.00    +0.000 C 
BRANCH  16  17
ATOM     17  C   UNL     1       2.503   6.510  19.269  0.00  0.00    +0.000 C 
ATOM     18  C   UNL     1       2.252   7.243  17.943  0.00  0.00    +0.000 C 
ATOM     19  O   UNL     1       2.449   8.655  18.068  0.00  0.00    +0.000 OA
ATOM     20  C   UNL     1       1.754   9.143  19.143  0.00  0.00    +0.000 A 
ATOM     21  C   UNL     1       1.422  10.495  19.137  0.00  0.00    +0.000 A 
ATOM     22  C   UNL     1       0.696  11.039  20.201  0.00  0.00    +0.000 A 
ATOM     23  C   UNL     1       0.327  10.237  21.281  0.00  0.00    +0.000 A 
ATOM     24  C   UNL     1       0.671   8.887  21.290  0.00  0.00    +0.000 A 
ATOM     25  C   UNL     1       1.374   8.342  20.218  0.00  0.00    +0.000 A 
ATOM     26  O   UNL     1       1.614   7.004  20.282  0.00  0.00    +0.000 OA
ENDBRANCH  16  17
ENDBRANCH   2  16
TORSDOF 4
ENDMDL
MODEL 5
REMARK VINA RESULT:      -7.7      3.315      6.990
REMARK  Name = 
REMARK  5 active torsions:
REMARK  status: ('A' for Active; 'I' for Inactive)
REMARK    1  A    between atoms: C_1  and  N_2
REMARK    2  A    between atoms: N_2  and  C_3
REMARK    3  A    between atoms: C_3  and  C_4
REMARK    4  A    between atoms: C_14  and  C_16
REMARK    5  A    between atoms: C_19  and  N_20
REMARK                            x       y       z     vdW  Elec       q    Type
REMARK                         _______ _______ _______ _____ _____    ______ ____
ROOT
ATOM      1  C   UNL     1       3.801   1.494  18.388  0.00  0.00    +0.000 C 
ATOM      2  N   UNL     1       3.700   2.885  18.825  0.00  0.00    +0.000 N 
ATOM      3  C   UNL     1       2.392   3.407  18.838  0.00  0.00    +0.000 C 
ATOM      4  O   UNL     1       1.418   2.724  18.512  0.00  0.00    +0.000 OA
ENDROOT
BRANCH   3   5
ATOM      5  C   UNL     1       2.107   4.828  19.184  0.00  0.00    +0.000 A 
ATOM      6  C   UNL     1       1.751   5.102  20.514  0.00  0.00    +0.000 A 
ATOM      7  C   UNL     1       1.522   6.412  20.945  0.00  0.00    +0.000 A 
ATOM      8  C   UNL     1       1.629   7.471  20.037  0.00  0.00    +0.000 A 
ATOM      9  C   UNL     1       2.008   7.208  18.714  0.00  0.00    +0.000 A 
ATOM     10  C   UNL     1       2.282   5.898  18.304  0.00  0.00    +0.000 A 
BRANCH   8  11
ATOM     11  N   UNL     1       1.401   8.808  20.443  0.00  0.00    +0.000 N 
ATOM     12  C   UNL     1       1.325   9.338  21.704  0.00  0.00    +0.000 A 
ATOM     13  N   UNL     1       1.074  10.623  21.622  0.00  0.00    +0.000 NA
ATOM     14  N   UNL     1       0.998  10.903  20.283  0.00  0.00    +0.000 NA
ATOM     15  N   UNL     1       1.200   9.813  19.559  0.00  0.00    +0.000 NA
ENDBRANCH   8  11
ENDBRANCH   3   5
BRANCH   2  16
ATOM     16  C   UNL     1       4.921   3.708  18.956  0.00  0.00    +0.000 C 
BRANCH  16  17
ATOM     17  C   UNL     1       5.404   4.568  17.770  0.00  0.00    +0.000 C 
ATOM     18  C   UNL     1       6.936   4.656  17.813  0.00  0.00    +0.000 C 
ATOM     19  O   UNL     1       7.462   5.370  16.690  0.00  0.00    +0.000 OA
ATOM     20  C   UNL     1       6.940   4.879  15.522  0.00  0.00    +0.000 A 
ATOM     21  C   UNL     1       7.668   5.086  14.353  0.00  0.00    +0.000 A 
ATOM     22  C   UNL     1       7.188   4.587  13.137  0.00  0.00    +0.000 A 
ATOM     23  C   UNL     1       5.971   3.908  13.088  0.00  0.00    +0.000 A 
ATOM     24  C   UNL     1       5.239   3.714  14.257  0.00  0.00    +0.000 A 
ATOM     25  C   UNL     1       5.730   4.190  15.471  0.00  0.00    +0.000 A 
ATOM     26  O   UNL     1       4.981   3.902  16.571  0.00  0.00    +0.000 OA
ENDBRANCH  16  17
ENDBRANCH   2  16
TORSDOF 4
ENDMDL
MODEL 6
REMARK VINA RESULT:      -7.7      1.121      2.066
REMARK  Name = 
REMARK  5 active torsions:
REMARK  status: ('A' for Active; 'I' for Inactive)
REMARK    1  A    between atoms: C_1  and  N_2
REMARK    2  A    between atoms: N_2  and  C_3
REMARK    3  A    between atoms: C_3  and  C_4
REMARK    4  A    between atoms: C_14  and  C_16
REMARK    5  A    between atoms: C_19  and  N_20
REMARK                            x       y       z     vdW  Elec       q    Type
REMARK                         _______ _______ _______ _____ _____    ______ ____
ROOT
ATOM      1  C   UNL     1       2.307   4.162  21.235  0.00  0.00    +0.000 C 
ATOM      2  N   UNL     1       3.013   4.584  20.026  0.00  0.00    +0.000 N 
ATOM      3  C   UNL     1       3.764   3.572  19.396  0.00  0.00    +0.000 C 
ATOM      4  O   UNL     1       3.802   2.421  19.839  0.00  0.00    +0.000 OA
ENDROOT
BRANCH   3   5
ATOM      5  C   UNL     1       4.606   3.838  18.196  0.00  0.00    +0.000 A 
ATOM      6  C   UNL     1       3.981   3.736  16.943  0.00  0.00    +0.000 A 
ATOM      7  C   UNL     1       4.676   4.024  15.764  0.00  0.00    +0.000 A 
ATOM      8  C   UNL     1       6.022   4.401  15.826  0.00  0.00    +0.000 A 
ATOM      9  C   UNL     1       6.645   4.529  17.073  0.00  0.00    +0.000 A 
ATOM     10  C   UNL     1       5.927   4.286  18.250  0.00  0.00    +0.000 A 
BRANCH   8  11
ATOM     11  N   UNL     1       6.753   4.697  14.649  0.00  0.00    +0.000 N 
ATOM     12  C   UNL     1       6.596   4.211  13.377  0.00  0.00    +0.000 A 
ATOM     13  N   UNL     1       7.509   4.738  12.596  0.00  0.00    +0.000 NA
ATOM     14  N   UNL     1       8.245   5.574  13.393  0.00  0.00    +0.000 NA
ATOM     15  N   UNL     1       7.793   5.562  14.638  0.00  0.00    +0.000 NA
ENDBRANCH   8  11
ENDBRANCH   3   5
BRANCH   2  16
ATOM     16  C   UNL     1       3.124   6.021  19.700  0.00  0.00    +0.000 C 
BRANCH  16  17
ATOM     17  C   UNL     1       1.868   6.918  19.723  0.00  0.00    +0.000 C 
ATOM     18  C   UNL     1       1.606   7.366  21.168  0.00  0.00    +0.000 C 
ATOM     19  O   UNL     1       0.503   8.274  21.253  0.00  0.00    +0.000 OA
ATOM     20  C   UNL     1       0.646   9.290  20.345  0.00  0.00    +0.000 A 
ATOM     21  C   UNL     1      -0.023  10.484  20.603  0.00  0.00    +0.000 A 
ATOM     22  C   UNL     1       0.106  11.559  19.718  0.00  0.00    +0.000 A 
ATOM     23  C   UNL     1       0.880  11.430  18.564  0.00  0.00    +0.000 A 
ATOM     24  C   UNL     1       1.538  10.230  18.303  0.00  0.00    +0.000 A 
ATOM     25  C   UNL     1       1.428   9.168  19.198  0.00  0.00    +0.000 A 
ATOM     26  O   UNL     1       2.152   8.057  18.896  0.00  0.00    +0.000 OA
ENDBRANCH  16  17
ENDBRANCH   2  16
TORSDOF 4
ENDMDL
MODEL 7
REMARK VINA RESULT:      -7.7      3.576      6.952
REMARK  Name = 
REMARK  5 active torsions:
REMARK  status: ('A' for Active; 'I' for Inactive)
REMARK    1  A    between atoms: C_1  and  N_2
REMARK    2  A    between atoms: N_2  and  C_3
REMARK    3  A    between atoms: C_3  and  C_4
REMARK    4  A    between atoms: C_14  and  C_16
REMARK    5  A    between atoms: C_19  and  N_20
REMARK                            x       y       z     vdW  Elec       q    Type
REMARK                         _______ _______ _______ _____ _____    ______ ____
ROOT
ATOM      1  C   UNL     1       3.965   2.148  18.763  0.00  0.00    +0.000 C 
ATOM      2  N   UNL     1       3.919   3.598  18.948  0.00  0.00    +0.000 N 
ATOM      3  C   UNL     1       2.623   4.149  18.978  0.00  0.00    +0.000 C 
ATOM      4  O   UNL     1       1.616   3.445  18.867  0.00  0.00    +0.000 OA
ENDROOT
BRANCH   3   5
ATOM      5  C   UNL     1       2.386   5.617  19.084  0.00  0.00    +0.000 A 
ATOM      6  C   UNL     1       2.338   6.343  17.884  0.00  0.00    +0.000 A 
ATOM      7  C   UNL     1       2.064   7.714  17.880  0.00  0.00    +0.000 A 
ATOM      8  C   UNL     1       1.853   8.383  19.091  0.00  0.00    +0.000 A 
ATOM      9  C   UNL     1       1.875   7.661  20.291  0.00  0.00    +0.000 A 
ATOM     10  C   UNL     1       2.102   6.280  20.280  0.00  0.00    +0.000 A 
BRANCH   8  11
ATOM     11  N   UNL     1       1.575   9.772  19.120  0.00  0.00    +0.000 N 
ATOM     12  C   UNL     1       1.938  10.755  18.237  0.00  0.00    +0.000 A 
ATOM     13  N   UNL     1       1.487  11.910  18.663  0.00  0.00    +0.000 NA
ATOM     14  N   UNL     1       0.825  11.644  19.832  0.00  0.00    +0.000 NA
ATOM     15  N   UNL     1       0.866  10.351  20.116  0.00  0.00    +0.000 NA
ENDBRANCH   8  11
ENDBRANCH   3   5
BRANCH   2  16
ATOM     16  C   UNL     1       5.156   4.398  18.823  0.00  0.00    +0.000 C 
BRANCH  16  17
ATOM     17  C   UNL     1       5.508   5.069  17.479  0.00  0.00    +0.000 C 
ATOM     18  C   UNL     1       7.025   5.302  17.424  0.00  0.00    +0.000 C 
ATOM     19  O   UNL     1       7.436   5.845  16.166  0.00  0.00    +0.000 OA
ATOM     20  C   UNL     1       6.924   5.106  15.133  0.00  0.00    +0.000 A 
ATOM     21  C   UNL     1       7.584   5.164  13.908  0.00  0.00    +0.000 A 
ATOM     22  C   UNL     1       7.113   4.413  12.827  0.00  0.00    +0.000 A 
ATOM     23  C   UNL     1       5.967   3.629  12.964  0.00  0.00    +0.000 A 
ATOM     24  C   UNL     1       5.302   3.583  14.186  0.00  0.00    +0.000 A 
ATOM     25  C   UNL     1       5.786   4.313  15.269  0.00  0.00    +0.000 A 
ATOM     26  O   UNL     1       5.110   4.162  16.440  0.00  0.00    +0.000 OA
ENDBRANCH  16  17
ENDBRANCH   2  16
TORSDOF 4
ENDMDL
MODEL 8
REMARK VINA RESULT:      -7.6      3.823      7.178
REMARK  Name = 
REMARK  5 active torsions:
REMARK  status: ('A' for Active; 'I' for Inactive)
REMARK    1  A    between atoms: C_1  and  N_2
REMARK    2  A    between atoms: N_2  and  C_3
REMARK    3  A    between atoms: C_3  and  C_4
REMARK    4  A    between atoms: C_14  and  C_16
REMARK    5  A    between atoms: C_19  and  N_20
REMARK                            x       y       z     vdW  Elec       q    Type
REMARK                         _______ _______ _______ _____ _____    ______ ____
ROOT
ATOM      1  C   UNL     1       4.517   3.235  19.214  0.00  0.00    +0.000 C 
ATOM      2  N   UNL     1       4.227   4.668  19.196  0.00  0.00    +0.000 N 
ATOM      3  C   UNL     1       2.856   4.993  19.193  0.00  0.00    +0.000 C 
ATOM      4  O   UNL     1       1.983   4.121  19.217  0.00  0.00    +0.000 OA
ENDROOT
BRANCH   3   5
ATOM      5  C   UNL     1       2.373   6.399  19.101  0.00  0.00    +0.000 A 
ATOM      6  C   UNL     1       1.962   7.013  20.295  0.00  0.00    +0.000 A 
ATOM      7  C   UNL     1       1.548   8.349  20.315  0.00  0.00    +0.000 A 
ATOM      8  C   UNL     1       1.522   9.085  19.126  0.00  0.00    +0.000 A 
ATOM      9  C   UNL     1       1.954   8.488  17.935  0.00  0.00    +0.000 A 
ATOM     10  C   UNL     1       2.412   7.165  17.934  0.00  0.00    +0.000 A 
BRANCH   8  11
ATOM     11  N   UNL     1       1.106  10.439  19.114  0.00  0.00    +0.000 N 
ATOM     12  C   UNL     1       1.739  11.544  18.609  0.00  0.00    +0.000 A 
ATOM     13  N   UNL     1       1.005  12.608  18.835  0.00  0.00    +0.000 NA
ATOM     14  N   UNL     1      -0.112  12.157  19.489  0.00  0.00    +0.000 NA
ATOM     15  N   UNL     1      -0.065  10.845  19.658  0.00  0.00    +0.000 NA
ENDBRANCH   8  11
ENDBRANCH   3   5
BRANCH   2  16
ATOM     16  C   UNL     1       5.307   5.637  18.917  0.00  0.00    +0.000 C 
BRANCH  16  17
ATOM     17  C   UNL     1       5.685   5.973  17.459  0.00  0.00    +0.000 C 
ATOM     18  C   UNL     1       7.213   5.914  17.317  0.00  0.00    +0.000 C 
ATOM     19  O   UNL     1       7.633   6.132  15.967  0.00  0.00    +0.000 OA
ATOM     20  C   UNL     1       6.938   5.319  15.111  0.00  0.00    +0.000 A 
ATOM     21  C   UNL     1       7.521   5.028  13.881  0.00  0.00    +0.000 A 
ATOM     22  C   UNL     1       6.862   4.187  12.979  0.00  0.00    +0.000 A 
ATOM     23  C   UNL     1       5.609   3.661  13.297  0.00  0.00    +0.000 A 
ATOM     24  C   UNL     1       5.023   3.964  14.523  0.00  0.00    +0.000 A 
ATOM     25  C   UNL     1       5.692   4.783  15.430  0.00  0.00    +0.000 A 
ATOM     26  O   UNL     1       5.074   4.976  16.627  0.00  0.00    +0.000 OA
ENDBRANCH  16  17
ENDBRANCH   2  16
TORSDOF 4
ENDMDL
MODEL 9
REMARK VINA RESULT:      -7.5      1.388      2.120
REMARK  Name = 
REMARK  5 active torsions:
REMARK  status: ('A' for Active; 'I' for Inactive)
REMARK    1  A    between atoms: C_1  and  N_2
REMARK    2  A    between atoms: N_2  and  C_3
REMARK    3  A    between atoms: C_3  and  C_4
REMARK    4  A    between atoms: C_14  and  C_16
REMARK    5  A    between atoms: C_19  and  N_20
REMARK                            x       y       z     vdW  Elec       q    Type
REMARK                         _______ _______ _______ _____ _____    ______ ____
ROOT
ATOM      1  C   UNL     1       1.928   5.134  20.641  0.00  0.00    +0.000 C 
ATOM      2  N   UNL     1       2.599   5.317  19.355  0.00  0.00    +0.000 N 
ATOM      3  C   UNL     1       3.798   4.592  19.206  0.00  0.00    +0.000 C 
ATOM      4  O   UNL     1       4.226   3.856  20.099  0.00  0.00    +0.000 OA
ENDROOT
BRANCH   3   5
ATOM      5  C   UNL     1       4.655   4.714  17.993  0.00  0.00    +0.000 A 
ATOM      6  C   UNL     1       4.462   3.764  16.978  0.00  0.00    +0.000 A 
ATOM      7  C   UNL     1       5.179   3.832  15.779  0.00  0.00    +0.000 A 
ATOM      8  C   UNL     1       6.119   4.851  15.590  0.00  0.00    +0.000 A 
ATOM      9  C   UNL     1       6.299   5.817  16.588  0.00  0.00    +0.000 A 
ATOM     10  C   UNL     1       5.542   5.768  17.764  0.00  0.00    +0.000 A 
BRANCH   8  11
ATOM     11  N   UNL     1       6.862   4.946  14.387  0.00  0.00    +0.000 N 
ATOM     12  C   UNL     1       6.648   4.338  13.177  0.00  0.00    +0.000 A 
ATOM     13  N   UNL     1       7.597   4.688  12.342  0.00  0.00    +0.000 NA
ATOM     14  N   UNL     1       8.416   5.535  13.041  0.00  0.00    +0.000 NA
ATOM     15  N   UNL     1       7.977   5.703  14.280  0.00  0.00    +0.000 NA
ENDBRANCH   8  11
ENDBRANCH   3   5
BRANCH   2  16
ATOM     16  C   UNL     1       2.166   6.396  18.444  0.00  0.00    +0.000 C 
BRANCH  16  17
ATOM     17  C   UNL     1       2.320   7.872  18.866  0.00  0.00    +0.000 C 
ATOM     18  C   UNL     1       2.014   8.769  17.657  0.00  0.00    +0.000 C 
ATOM     19  O   UNL     1       2.053  10.157  17.998  0.00  0.00    +0.000 OA
ATOM     20  C   UNL     1       1.290  10.400  19.110  0.00  0.00    +0.000 A 
ATOM     21  C   UNL     1       0.813  11.695  19.295  0.00  0.00    +0.000 A 
ATOM     22  C   UNL     1       0.014  11.991  20.404  0.00  0.00    +0.000 A 
ATOM     23  C   UNL     1      -0.284  11.000  21.339  0.00  0.00    +0.000 A 
ATOM     24  C   UNL     1       0.205   9.708  21.158  0.00  0.00    +0.000 A 
ATOM     25  C   UNL     1       0.982   9.410  20.040  0.00  0.00    +0.000 A 
ATOM     26  O   UNL     1       1.365   8.110  19.911  0.00  0.00    +0.000 OA
ENDBRANCH  16  17
ENDBRANCH   2  16
TORSDOF 4
ENDMDL
