MODEL 1
REMARK VINA RESULT:      -7.3      0.000      0.000
REMARK  Name = 
REMARK  1 active torsions:
REMARK  status: ('A' for Active; 'I' for Inactive)
REMARK    1  A    between atoms: C_1  and  N_2
REMARK                            x       y       z     vdW  Elec       q    Type
REMARK                         _______ _______ _______ _____ _____    ______ ____
ROOT
ATOM      1  C   UNL     1       1.699   6.048  20.833  0.00  0.00    +0.000 C 
ATOM      2  N   UNL     1       2.335   4.948  20.119  0.00  0.00    +0.000 N 
ATOM      3  C   UNL     1       2.478   3.752  20.824  0.00  0.00    +0.000 C 
ATOM      4  O   UNL     1       2.158   3.609  22.001  0.00  0.00    +0.000 OA
ATOM      5  C   UNL     1       2.882   2.557  19.987  0.00  0.00    +0.000 C 
ATOM      6  C   UNL     1       3.906   2.850  18.910  0.00  0.00    +0.000 C 
ATOM      7  C   UNL     1       3.509   4.079  18.078  0.00  0.00    +0.000 C 
ATOM      8  C   UNL     1       4.505   4.412  16.969  0.00  0.00    +0.000 A 
ATOM      9  C   UNL     1       5.122   3.393  16.218  0.00  0.00    +0.000 A 
ATOM     10  C   UNL     1       6.050   3.691  15.216  0.00  0.00    +0.000 A 
ATOM     11  C   UNL     1       6.357   5.015  14.933  0.00  0.00    +0.000 A 
ATOM     12 CL   UNL     1       7.517   5.385  13.718  0.00  0.00    +0.000 Cl
ATOM     13  C   UNL     1       5.727   6.041  15.627  0.00  0.00    +0.000 A 
ATOM     14  C   UNL     1       4.787   5.753  16.633  0.00  0.00    +0.000 A 
ATOM     15  C   UNL     1       4.155   6.911  17.361  0.00  0.00    +0.000 C 
ATOM     16  C   UNL     1       2.973   6.520  18.241  0.00  0.00    +0.000 C 
ATOM     17  C   UNL     1       3.310   5.265  19.058  0.00  0.00    +0.000 C 
ENDROOT
TORSDOF 0
ENDMDL
MODEL 2
REMARK VINA RESULT:      -7.3      3.450      5.458
REMARK  Name = 
REMARK  1 active torsions:
REMARK  status: ('A' for Active; 'I' for Inactive)
REMARK    1  A    between atoms: C_1  and  N_2
REMARK                            x       y       z     vdW  Elec       q    Type
REMARK                         _______ _______ _______ _____ _____    ______ ____
ROOT
ATOM      1  C   UNL     1       4.330   3.658  17.393  0.00  0.00    +0.000 C 
ATOM      2  N   UNL     1       3.569   4.110  18.551  0.00  0.00    +0.000 N 
ATOM      3  C   UNL     1       2.976   3.116  19.330  0.00  0.00    +0.000 C 
ATOM      4  O   UNL     1       3.013   1.919  19.055  0.00  0.00    +0.000 OA
ATOM      5  C   UNL     1       2.433   3.582  20.664  0.00  0.00    +0.000 C 
ATOM      6  C   UNL     1       1.753   4.935  20.637  0.00  0.00    +0.000 C 
ATOM      7  C   UNL     1       2.620   5.984  19.925  0.00  0.00    +0.000 C 
ATOM      8  C   UNL     1       1.984   7.372  19.880  0.00  0.00    +0.000 A 
ATOM      9  C   UNL     1       1.271   7.880  20.983  0.00  0.00    +0.000 A 
ATOM     10  C   UNL     1       0.669   9.140  20.940  0.00  0.00    +0.000 A 
ATOM     11  C   UNL     1       0.791   9.924  19.802  0.00  0.00    +0.000 A 
ATOM     12 CL   UNL     1       0.031  11.465  19.735  0.00  0.00    +0.000 Cl
ATOM     13  C   UNL     1       1.529   9.466  18.715  0.00  0.00    +0.000 A 
ATOM     14  C   UNL     1       2.144   8.202  18.750  0.00  0.00    +0.000 A 
ATOM     15  C   UNL     1       2.914   7.758  17.533  0.00  0.00    +0.000 C 
ATOM     16  C   UNL     1       3.753   6.505  17.753  0.00  0.00    +0.000 C 
ATOM     17  C   UNL     1       2.940   5.444  18.506  0.00  0.00    +0.000 C 
ENDROOT
TORSDOF 0
ENDMDL
MODEL 3
REMARK VINA RESULT:      -7.0      3.763      5.877
REMARK  Name = 
REMARK  1 active torsions:
REMARK  status: ('A' for Active; 'I' for Inactive)
REMARK    1  A    between atoms: C_1  and  N_2
REMARK                            x       y       z     vdW  Elec       q    Type
REMARK                         _______ _______ _______ _____ _____    ______ ____
ROOT
ATOM      1  C   UNL     1       4.473   3.348  19.321  0.00  0.00    +0.000 C 
ATOM      2  N   UNL     1       4.341   4.569  18.535  0.00  0.00    +0.000 N 
ATOM      3  C   UNL     1       5.367   4.835  17.627  0.00  0.00    +0.000 C 
ATOM      4  O   UNL     1       6.374   4.140  17.510  0.00  0.00    +0.000 OA
ATOM      5  C   UNL     1       5.079   5.944  16.638  0.00  0.00    +0.000 C 
ATOM      6  C   UNL     1       4.341   7.135  17.214  0.00  0.00    +0.000 C 
ATOM      7  C   UNL     1       3.110   6.695  18.022  0.00  0.00    +0.000 C 
ATOM      8  C   UNL     1       2.323   7.861  18.616  0.00  0.00    +0.000 A 
ATOM      9  C   UNL     1       2.128   9.051  17.889  0.00  0.00    +0.000 A 
ATOM     10  C   UNL     1       1.427  10.129  18.436  0.00  0.00    +0.000 A 
ATOM     11  C   UNL     1       0.886  10.024  19.710  0.00  0.00    +0.000 A 
ATOM     12 CL   UNL     1       0.043  11.357  20.397  0.00  0.00    +0.000 Cl
ATOM     13  C   UNL     1       1.023   8.843  20.431  0.00  0.00    +0.000 A 
ATOM     14  C   UNL     1       1.722   7.750  19.888  0.00  0.00    +0.000 A 
ATOM     15  C   UNL     1       1.851   6.507  20.729  0.00  0.00    +0.000 C 
ATOM     16  C   UNL     1       2.390   5.298  19.972  0.00  0.00    +0.000 C 
ATOM     17  C   UNL     1       3.595   5.703  19.112  0.00  0.00    +0.000 C 
ENDROOT
TORSDOF 0
ENDMDL
MODEL 4
REMARK VINA RESULT:      -7.0      3.833      6.068
REMARK  Name = 
REMARK  1 active torsions:
REMARK  status: ('A' for Active; 'I' for Inactive)
REMARK    1  A    between atoms: C_1  and  N_2
REMARK                            x       y       z     vdW  Elec       q    Type
REMARK                         _______ _______ _______ _____ _____    ______ ____
ROOT
ATOM      1  C   UNL     1       6.021   3.852  14.690  0.00  0.00    +0.000 C 
ATOM      2  N   UNL     1       5.678   4.651  15.860  0.00  0.00    +0.000 N 
ATOM      3  C   UNL     1       6.556   5.686  16.183  0.00  0.00    +0.000 C 
ATOM      4  O   UNL     1       7.604   5.907  15.581  0.00  0.00    +0.000 OA
ATOM      5  C   UNL     1       6.044   6.663  17.220  0.00  0.00    +0.000 C 
ATOM      6  C   UNL     1       5.269   6.034  18.359  0.00  0.00    +0.000 C 
ATOM      7  C   UNL     1       4.193   5.068  17.840  0.00  0.00    +0.000 C 
ATOM      8  C   UNL     1       3.373   4.415  18.950  0.00  0.00    +0.000 A 
ATOM      9  C   UNL     1       2.977   5.146  20.087  0.00  0.00    +0.000 A 
ATOM     10  C   UNL     1       2.246   4.547  21.116  0.00  0.00    +0.000 A 
ATOM     11  C   UNL     1       1.875   3.214  21.014  0.00  0.00    +0.000 A 
ATOM     12 CL   UNL     1       0.996   2.467  22.289  0.00  0.00    +0.000 Cl
ATOM     13  C   UNL     1       2.213   2.482  19.881  0.00  0.00    +0.000 A 
ATOM     14  C   UNL     1       2.944   3.075  18.836  0.00  0.00    +0.000 A 
ATOM     15  C   UNL     1       3.293   2.222  17.645  0.00  0.00    +0.000 C 
ATOM     16  C   UNL     1       3.852   3.005  16.463  0.00  0.00    +0.000 C 
ATOM     17  C   UNL     1       4.899   4.018  16.943  0.00  0.00    +0.000 C 
ENDROOT
TORSDOF 0
ENDMDL
MODEL 5
REMARK VINA RESULT:      -6.8      4.314      6.005
REMARK  Name = 
REMARK  1 active torsions:
REMARK  status: ('A' for Active; 'I' for Inactive)
REMARK    1  A    between atoms: C_1  and  N_2
REMARK                            x       y       z     vdW  Elec       q    Type
REMARK                         _______ _______ _______ _____ _____    ______ ____
ROOT
ATOM      1  C   UNL     1      -0.750  12.280  20.275  0.00  0.00    +0.000 C 
ATOM      2  N   UNL     1      -0.265  11.026  20.842  0.00  0.00    +0.000 N 
ATOM      3  C   UNL     1      -0.248  10.942  22.234  0.00  0.00    +0.000 C 
ATOM      4  O   UNL     1      -0.553  11.870  22.980  0.00  0.00    +0.000 OA
ATOM      5  C   UNL     1      -0.008   9.555  22.792  0.00  0.00    +0.000 C 
ATOM      6  C   UNL     1       1.017   8.735  22.037  0.00  0.00    +0.000 C 
ATOM      7  C   UNL     1       0.748   8.752  20.524  0.00  0.00    +0.000 C 
ATOM      8  C   UNL     1       1.748   7.929  19.717  0.00  0.00    +0.000 A 
ATOM      9  C   UNL     1       2.223   6.692  20.194  0.00  0.00    +0.000 A 
ATOM     10  C   UNL     1       3.155   5.944  19.469  0.00  0.00    +0.000 A 
ATOM     11  C   UNL     1       3.609   6.410  18.243  0.00  0.00    +0.000 A 
ATOM     12 CL   UNL     1       4.774   5.505  17.359  0.00  0.00    +0.000 Cl
ATOM     13  C   UNL     1       3.121   7.605  17.727  0.00  0.00    +0.000 A 
ATOM     14  C   UNL     1       2.179   8.363  18.445  0.00  0.00    +0.000 A 
ATOM     15  C   UNL     1       1.705   9.658  17.839  0.00  0.00    +0.000 C 
ATOM     16  C   UNL     1       0.508  10.276  18.552  0.00  0.00    +0.000 C 
ATOM     17  C   UNL     1       0.714  10.236  20.072  0.00  0.00    +0.000 C 
ENDROOT
TORSDOF 0
ENDMDL
MODEL 6
REMARK VINA RESULT:      -6.7      1.235      2.710
REMARK  Name = 
REMARK  1 active torsions:
REMARK  status: ('A' for Active; 'I' for Inactive)
REMARK    1  A    between atoms: C_1  and  N_2
REMARK                            x       y       z     vdW  Elec       q    Type
REMARK                         _______ _______ _______ _____ _____    ______ ____
ROOT
ATOM      1  C   UNL     1       2.072   4.073  21.215  0.00  0.00    +0.000 C 
ATOM      2  N   UNL     1       2.515   5.075  20.253  0.00  0.00    +0.000 N 
ATOM      3  C   UNL     1       1.833   6.293  20.269  0.00  0.00    +0.000 C 
ATOM      4  O   UNL     1       0.868   6.527  20.992  0.00  0.00    +0.000 OA
ATOM      5  C   UNL     1       2.480   7.402  19.466  0.00  0.00    +0.000 C 
ATOM      6  C   UNL     1       3.081   6.965  18.147  0.00  0.00    +0.000 C 
ATOM      7  C   UNL     1       3.977   5.728  18.320  0.00  0.00    +0.000 C 
ATOM      8  C   UNL     1       4.618   5.253  17.019  0.00  0.00    +0.000 A 
ATOM      9  C   UNL     1       5.101   6.173  16.068  0.00  0.00    +0.000 A 
ATOM     10  C   UNL     1       5.669   5.744  14.866  0.00  0.00    +0.000 A 
ATOM     11  C   UNL     1       5.788   4.386  14.606  0.00  0.00    +0.000 A 
ATOM     12 CL   UNL     1       6.465   3.854  13.117  0.00  0.00    +0.000 Cl
ATOM     13  C   UNL     1       5.362   3.456  15.547  0.00  0.00    +0.000 A 
ATOM     14  C   UNL     1       4.794   3.876  16.763  0.00  0.00    +0.000 A 
ATOM     15  C   UNL     1       4.336   2.817  17.732  0.00  0.00    +0.000 C 
ATOM     16  C   UNL     1       3.977   3.353  19.113  0.00  0.00    +0.000 C 
ATOM     17  C   UNL     1       3.120   4.620  18.987  0.00  0.00    +0.000 C 
ENDROOT
TORSDOF 0
ENDMDL
MODEL 7
REMARK VINA RESULT:      -6.6      3.303      5.179
REMARK  Name = 
REMARK  1 active torsions:
REMARK  status: ('A' for Active; 'I' for Inactive)
REMARK    1  A    between atoms: C_1  and  N_2
REMARK                            x       y       z     vdW  Elec       q    Type
REMARK                         _______ _______ _______ _____ _____    ______ ____
ROOT
ATOM      1  C   UNL     1       2.930   2.988  21.080  0.00  0.00    +0.000 C 
ATOM      2  N   UNL     1       3.237   3.888  19.974  0.00  0.00    +0.000 N 
ATOM      3  C   UNL     1       4.379   3.589  19.231  0.00  0.00    +0.000 C 
ATOM      4  O   UNL     1       5.148   2.669  19.498  0.00  0.00    +0.000 OA
ATOM      5  C   UNL     1       4.524   4.360  17.936  0.00  0.00    +0.000 C 
ATOM      6  C   UNL     1       4.110   5.815  18.012  0.00  0.00    +0.000 C 
ATOM      7  C   UNL     1       2.732   5.973  18.672  0.00  0.00    +0.000 C 
ATOM      8  C   UNL     1       2.262   7.423  18.762  0.00  0.00    +0.000 A 
ATOM      9  C   UNL     1       2.493   8.329  17.709  0.00  0.00    +0.000 A 
ATOM     10  C   UNL     1       2.084   9.662  17.796  0.00  0.00    +0.000 A 
ATOM     11  C   UNL     1       1.415  10.106  18.927  0.00  0.00    +0.000 A 
ATOM     12 CL   UNL     1       0.931  11.752  19.049  0.00  0.00    +0.000 Cl
ATOM     13  C   UNL     1       1.132   9.221  19.962  0.00  0.00    +0.000 A 
ATOM     14  C   UNL     1       1.533   7.875  19.883  0.00  0.00    +0.000 A 
ATOM     15  C   UNL     1       1.212   6.974  21.046  0.00  0.00    +0.000 C 
ATOM     16  C   UNL     1       1.449   5.494  20.768  0.00  0.00    +0.000 C 
ATOM     17  C   UNL     1       2.798   5.294  20.065  0.00  0.00    +0.000 C 
ENDROOT
TORSDOF 0
ENDMDL
MODEL 8
REMARK VINA RESULT:      -6.6      4.086      5.808
REMARK  Name = 
REMARK  1 active torsions:
REMARK  status: ('A' for Active; 'I' for Inactive)
REMARK    1  A    between atoms: C_1  and  N_2
REMARK                            x       y       z     vdW  Elec       q    Type
REMARK                         _______ _______ _______ _____ _____    ______ ____
ROOT
ATOM      1  C   UNL     1       0.152  12.016  19.323  0.00  0.00    +0.000 C 
ATOM      2  N   UNL     1       0.366  10.834  20.150  0.00  0.00    +0.000 N 
ATOM      3  C   UNL     1       0.260  11.017  21.529  0.00  0.00    +0.000 C 
ATOM      4  O   UNL     1       0.063  12.107  22.062  0.00  0.00    +0.000 OA
ATOM      5  C   UNL     1       0.210   9.743  22.345  0.00  0.00    +0.000 C 
ATOM      6  C   UNL     1       1.132   8.642  21.863  0.00  0.00    +0.000 C 
ATOM      7  C   UNL     1       0.988   8.411  20.351  0.00  0.00    +0.000 C 
ATOM      8  C   UNL     1       1.890   7.302  19.815  0.00  0.00    +0.000 A 
ATOM      9  C   UNL     1       2.103   6.120  20.551  0.00  0.00    +0.000 A 
ATOM     10  C   UNL     1       2.944   5.111  20.075  0.00  0.00    +0.000 A 
ATOM     11  C   UNL     1       3.566   5.255  18.843  0.00  0.00    +0.000 A 
ATOM     12 CL   UNL     1       4.621   4.027  18.265  0.00  0.00    +0.000 Cl
ATOM     13  C   UNL     1       3.336   6.391  18.075  0.00  0.00    +0.000 A 
ATOM     14  C   UNL     1       2.487   7.411  18.541  0.00  0.00    +0.000 A 
ATOM     15  C   UNL     1       2.295   8.624  17.668  0.00  0.00    +0.000 C 
ATOM     16  C   UNL     1       1.172   9.547  18.126  0.00  0.00    +0.000 C 
ATOM     17  C   UNL     1       1.249   9.767  19.643  0.00  0.00    +0.000 C 
ENDROOT
TORSDOF 0
ENDMDL
MODEL 9
REMARK VINA RESULT:      -6.5      3.355      5.009
REMARK  Name = 
REMARK  1 active torsions:
REMARK  status: ('A' for Active; 'I' for Inactive)
REMARK    1  A    between atoms: C_1  and  N_2
REMARK                            x       y       z     vdW  Elec       q    Type
REMARK                         _______ _______ _______ _____ _____    ______ ____
ROOT
ATOM      1  C   UNL     1       0.330   9.517  21.178  0.00  0.00    +0.000 C 
ATOM      2  N   UNL     1       1.127   9.131  20.019  0.00  0.00    +0.000 N 
ATOM      3  C   UNL     1       1.079   9.991  18.922  0.00  0.00    +0.000 C 
ATOM      4  O   UNL     1       0.369  10.993  18.867  0.00  0.00    +0.000 OA
ATOM      5  C   UNL     1       2.114   9.724  17.850  0.00  0.00    +0.000 C 
ATOM      6  C   UNL     1       2.375   8.259  17.569  0.00  0.00    +0.000 C 
ATOM      7  C   UNL     1       2.615   7.472  18.866  0.00  0.00    +0.000 C 
ATOM      8  C   UNL     1       2.895   5.989  18.637  0.00  0.00    +0.000 A 
ATOM      9  C   UNL     1       3.690   5.558  17.558  0.00  0.00    +0.000 A 
ATOM     10  C   UNL     1       3.932   4.200  17.331  0.00  0.00    +0.000 A 
ATOM     11  C   UNL     1       3.403   3.252  18.195  0.00  0.00    +0.000 A 
ATOM     12 CL   UNL     1       3.677   1.579  17.906  0.00  0.00    +0.000 Cl
ATOM     13  C   UNL     1       2.653   3.652  19.295  0.00  0.00    +0.000 A 
ATOM     14  C   UNL     1       2.408   5.016  19.537  0.00  0.00    +0.000 A 
ATOM     15  C   UNL     1       1.572   5.382  20.736  0.00  0.00    +0.000 C 
ATOM     16  C   UNL     1       1.576   6.870  21.064  0.00  0.00    +0.000 C 
ATOM     17  C   UNL     1       1.386   7.698  19.786  0.00  0.00    +0.000 C 
ENDROOT
TORSDOF 0
ENDMDL
