MODEL 1
REMARK VINA RESULT:      -6.8      0.000      0.000
REMARK  Name = 
REMARK  15 active torsions:
REMARK  status: ('A' for Active; 'I' for Inactive)
REMARK    1  A    between atoms: C_1  and  C_2
REMARK    2  A    between atoms: C_2  and  O_3
REMARK    3  A    between atoms: C_2  and  C_4
REMARK    4  A    between atoms: C_4  and  C_5
REMARK    5  A    between atoms: C_5  and  C_6
REMARK    6  A    between atoms: C_6  and  C_7
REMARK    7  A    between atoms: C_7  and  O_8
REMARK    8  A    between atoms: O_8  and  C_9
REMARK    9  A    between atoms: N_11  and  C_12
REMARK   10  A    between atoms: C_12  and  C_13
REMARK   11  A    between atoms: C_13  and  C_14
REMARK   12  A    between atoms: C_14  and  C_15
REMARK   13  A    between atoms: C_15  and  C_16
REMARK   14  A    between atoms: C_16  and  C_17
REMARK   15  A    between atoms: C_16  and  O_18
REMARK                            x       y       z     vdW  Elec       q    Type
REMARK                         _______ _______ _______ _____ _____    ______ ____
ROOT
ATOM      1  C   UNL     1       3.490   5.558  19.825  0.00  0.00    +0.000 A 
ATOM      2  N   UNL     1       4.466   4.892  19.278  0.00  0.00    +0.000 NA
ATOM      3  N   UNL     1       4.988   5.379  18.097  0.00  0.00    +0.000 N 
ATOM      4  C   UNL     1       4.606   6.574  17.501  0.00  0.00    +0.000 A 
ATOM      5  O   UNL     1       5.130   7.038  16.488  0.00  0.00    +0.000 OA
ATOM      6  C   UNL     1       3.478   7.285  18.122  0.00  0.00    +0.000 A 
ATOM      7  C   UNL     1       2.971   8.446  17.535  0.00  0.00    +0.000 A 
ATOM      8  C   UNL     1       1.866   9.080  18.102  0.00  0.00    +0.000 A 
ATOM      9  C   UNL     1       1.292   8.575  19.271  0.00  0.00    +0.000 A 
ATOM     10  C   UNL     1       1.813   7.430  19.871  0.00  0.00    +0.000 A 
ATOM     11  C   UNL     1       2.899   6.772  19.277  0.00  0.00    +0.000 A 
ENDROOT
BRANCH   1  12
ATOM     12  O   UNL     1       2.896   5.186  20.980  0.00  0.00    +0.000 OA
BRANCH  12  13
ATOM     13  C   UNL     1       2.333   3.867  21.002  0.00  0.00    +0.000 C 
BRANCH  13  14
ATOM     14  C   UNL     1       0.903   3.941  20.476  0.00  0.00    +0.000 C 
BRANCH  14  15
ATOM     15  C   UNL     1       0.690   2.923  19.358  0.00  0.00    +0.000 C 
BRANCH  15  16
ATOM     16  C   UNL     1       1.763   1.832  19.363  0.00  0.00    +0.000 C 
BRANCH  16  18
ATOM     17  C   UNL     1       2.297   3.090  17.240  0.00  0.00    +0.000 C 
ATOM     18  C   UNL     1       2.601   1.858  18.080  0.00  0.00    +0.000 C 
BRANCH  18  19
ATOM     19  O   UNL     1       3.990   1.856  18.400  0.00  0.00    +0.000 OA
ATOM     20  H   UNL     1       4.490   1.846  17.566  0.00  0.00    +0.000 HD
ENDBRANCH  18  19
ENDBRANCH  16  18
ENDBRANCH  15  16
ENDBRANCH  14  15
ENDBRANCH  13  14
ENDBRANCH  12  13
ENDBRANCH   1  12
BRANCH   3  21
ATOM     21  C   UNL     1       5.995   4.561  17.437  0.00  0.00    +0.000 C 
BRANCH  21  22
ATOM     22  C   UNL     1       5.453   3.794  16.232  0.00  0.00    +0.000 C 
BRANCH  22  23
ATOM     23  C   UNL     1       6.451   3.820  15.079  0.00  0.00    +0.000 C 
BRANCH  23  24
ATOM     24  C   UNL     1       5.786   4.322  13.797  0.00  0.00    +0.000 C 
BRANCH  24  25
ATOM     25  C   UNL     1       6.141   3.444  12.599  0.00  0.00    +0.000 C 
ATOM     26  C   UNL     1       4.933   3.171  11.710  0.00  0.00    +0.000 C 
BRANCH  25  27
ATOM     27  O   UNL     1       7.142   4.092  11.816  0.00  0.00    +0.000 OA
ATOM     28  H   UNL     1       7.211   3.611  10.973  0.00  0.00    +0.000 HD
ENDBRANCH  25  27
ENDBRANCH  24  25
ENDBRANCH  23  24
ENDBRANCH  22  23
ENDBRANCH  21  22
ENDBRANCH   3  21
TORSDOF 13
ENDMDL
MODEL 2
REMARK VINA RESULT:      -6.8      1.514      1.936
REMARK  Name = 
REMARK  15 active torsions:
REMARK  status: ('A' for Active; 'I' for Inactive)
REMARK    1  A    between atoms: C_1  and  C_2
REMARK    2  A    between atoms: C_2  and  O_3
REMARK    3  A    between atoms: C_2  and  C_4
REMARK    4  A    between atoms: C_4  and  C_5
REMARK    5  A    between atoms: C_5  and  C_6
REMARK    6  A    between atoms: C_6  and  C_7
REMARK    7  A    between atoms: C_7  and  O_8
REMARK    8  A    between atoms: O_8  and  C_9
REMARK    9  A    between atoms: N_11  and  C_12
REMARK   10  A    between atoms: C_12  and  C_13
REMARK   11  A    between atoms: C_13  and  C_14
REMARK   12  A    between atoms: C_14  and  C_15
REMARK   13  A    between atoms: C_15  and  C_16
REMARK   14  A    between atoms: C_16  and  C_17
REMARK   15  A    between atoms: C_16  and  O_18
REMARK                            x       y       z     vdW  Elec       q    Type
REMARK                         _______ _______ _______ _____ _____    ______ ____
ROOT
ATOM      1  C   UNL     1       4.780   4.924  18.860  0.00  0.00    +0.000 A 
ATOM      2  N   UNL     1       5.709   4.558  18.024  0.00  0.00    +0.000 NA
ATOM      3  N   UNL     1       5.891   5.330  16.895  0.00  0.00    +0.000 N 
ATOM      4  C   UNL     1       5.216   6.514  16.633  0.00  0.00    +0.000 A 
ATOM      5  O   UNL     1       5.439   7.235  15.660  0.00  0.00    +0.000 OA
ATOM      6  C   UNL     1       4.149   6.882  17.575  0.00  0.00    +0.000 A 
ATOM      7  C   UNL     1       3.359   8.009  17.337  0.00  0.00    +0.000 A 
ATOM      8  C   UNL     1       2.314   8.316  18.208  0.00  0.00    +0.000 A 
ATOM      9  C   UNL     1       2.082   7.520  19.331  0.00  0.00    +0.000 A 
ATOM     10  C   UNL     1       2.885   6.409  19.583  0.00  0.00    +0.000 A 
ATOM     11  C   UNL     1       3.909   6.080  18.685  0.00  0.00    +0.000 A 
ENDROOT
BRANCH   1  12
ATOM     12  O   UNL     1       4.505   4.255  20.001  0.00  0.00    +0.000 OA
BRANCH  12  13
ATOM     13  C   UNL     1       4.849   2.863  20.013  0.00  0.00    +0.000 C 
BRANCH  13  14
ATOM     14  C   UNL     1       3.575   2.046  19.827  0.00  0.00    +0.000 C 
BRANCH  14  15
ATOM     15  C   UNL     1       3.536   1.422  18.434  0.00  0.00    +0.000 C 
BRANCH  15  16
ATOM     16  C   UNL     1       2.643   2.212  17.476  0.00  0.00    +0.000 C 
BRANCH  16  18
ATOM     17  C   UNL     1       1.170   4.262  17.510  0.00  0.00    +0.000 C 
ATOM     18  C   UNL     1       1.543   2.972  18.226  0.00  0.00    +0.000 C 
BRANCH  18  19
ATOM     19  O   UNL     1       0.377   2.161  18.343  0.00  0.00    +0.000 OA
ATOM     20  H   UNL     1       0.434   1.674  19.184  0.00  0.00    +0.000 HD
ENDBRANCH  18  19
ENDBRANCH  16  18
ENDBRANCH  15  16
ENDBRANCH  14  15
ENDBRANCH  13  14
ENDBRANCH  12  13
ENDBRANCH   1  12
BRANCH   3  21
ATOM     21  C   UNL     1       6.850   4.842  15.914  0.00  0.00    +0.000 C 
BRANCH  21  22
ATOM     22  C   UNL     1       6.330   3.659  15.100  0.00  0.00    +0.000 C 
BRANCH  22  23
ATOM     23  C   UNL     1       5.531   4.140  13.893  0.00  0.00    +0.000 C 
BRANCH  23  24
ATOM     24  C   UNL     1       6.098   3.557  12.598  0.00  0.00    +0.000 C 
BRANCH  24  25
ATOM     25  C   UNL     1       5.139   2.550  11.968  0.00  0.00    +0.000 C 
ATOM     26  C   UNL     1       4.177   3.212  10.988  0.00  0.00    +0.000 C 
BRANCH  25  27
ATOM     27  O   UNL     1       5.886   1.558  11.267  0.00  0.00    +0.000 OA
ATOM     28  H   UNL     1       6.781   1.541  11.650  0.00  0.00    +0.000 HD
ENDBRANCH  25  27
ENDBRANCH  24  25
ENDBRANCH  23  24
ENDBRANCH  22  23
ENDBRANCH  21  22
ENDBRANCH   3  21
TORSDOF 13
ENDMDL
MODEL 3
REMARK VINA RESULT:      -6.7      2.605      5.182
REMARK  Name = 
REMARK  15 active torsions:
REMARK  status: ('A' for Active; 'I' for Inactive)
REMARK    1  A    between atoms: C_1  and  C_2
REMARK    2  A    between atoms: C_2  and  O_3
REMARK    3  A    between atoms: C_2  and  C_4
REMARK    4  A    between atoms: C_4  and  C_5
REMARK    5  A    between atoms: C_5  and  C_6
REMARK    6  A    between atoms: C_6  and  C_7
REMARK    7  A    between atoms: C_7  and  O_8
REMARK    8  A    between atoms: O_8  and  C_9
REMARK    9  A    between atoms: N_11  and  C_12
REMARK   10  A    between atoms: C_12  and  C_13
REMARK   11  A    between atoms: C_13  and  C_14
REMARK   12  A    between atoms: C_14  and  C_15
REMARK   13  A    between atoms: C_15  and  C_16
REMARK   14  A    between atoms: C_16  and  C_17
REMARK   15  A    between atoms: C_16  and  O_18
REMARK                            x       y       z     vdW  Elec       q    Type
REMARK                         _______ _______ _______ _____ _____    ______ ____
ROOT
ATOM      1  C   UNL     1       3.088   6.218  18.688  0.00  0.00    +0.000 A 
ATOM      2  N   UNL     1       4.087   6.302  17.857  0.00  0.00    +0.000 NA
ATOM      3  N   UNL     1       4.635   5.122  17.397  0.00  0.00    +0.000 N 
ATOM      4  C   UNL     1       4.141   3.858  17.688  0.00  0.00    +0.000 A 
ATOM      5  O   UNL     1       4.590   2.815  17.212  0.00  0.00    +0.000 OA
ATOM      6  C   UNL     1       3.036   3.793  18.656  0.00  0.00    +0.000 A 
ATOM      7  C   UNL     1       2.540   2.556  19.074  0.00  0.00    +0.000 A 
ATOM      8  C   UNL     1       1.531   2.507  20.035  0.00  0.00    +0.000 A 
ATOM      9  C   UNL     1       0.994   3.689  20.549  0.00  0.00    +0.000 A 
ATOM     10  C   UNL     1       1.472   4.924  20.114  0.00  0.00    +0.000 A 
ATOM     11  C   UNL     1       2.514   4.971  19.179  0.00  0.00    +0.000 A 
ENDROOT
BRANCH   1  12
ATOM     12  O   UNL     1       2.463   7.297  19.208  0.00  0.00    +0.000 OA
BRANCH  12  13
ATOM     13  C   UNL     1       2.287   8.410  18.320  0.00  0.00    +0.000 C 
BRANCH  13  14
ATOM     14  C   UNL     1       1.278   9.371  18.941  0.00  0.00    +0.000 C 
BRANCH  14  15
ATOM     15  C   UNL     1       0.324   9.908  17.876  0.00  0.00    +0.000 C 
BRANCH  15  16
ATOM     16  C   UNL     1      -1.001  10.377  18.478  0.00  0.00    +0.000 C 
BRANCH  16  18
ATOM     17  C   UNL     1      -3.275   9.768  17.562  0.00  0.00    +0.000 C 
ATOM     18  C   UNL     1      -2.049  10.653  17.392  0.00  0.00    +0.000 C 
BRANCH  18  19
ATOM     19  O   UNL     1      -2.460  12.017  17.441  0.00  0.00    +0.000 OA
ATOM     20  H   UNL     1      -1.777  12.518  17.920  0.00  0.00    +0.000 HD
ENDBRANCH  18  19
ENDBRANCH  16  18
ENDBRANCH  15  16
ENDBRANCH  14  15
ENDBRANCH  13  14
ENDBRANCH  12  13
ENDBRANCH   1  12
BRANCH   3  21
ATOM     21  C   UNL     1       5.825   5.232  16.565  0.00  0.00    +0.000 C 
BRANCH  21  22
ATOM     22  C   UNL     1       5.529   5.111  15.071  0.00  0.00    +0.000 C 
BRANCH  22  23
ATOM     23  C   UNL     1       6.221   3.888  14.478  0.00  0.00    +0.000 C 
BRANCH  23  24
ATOM     24  C   UNL     1       6.277   3.982  12.953  0.00  0.00    +0.000 C 
BRANCH  24  25
ATOM     25  C   UNL     1       5.592   2.788  12.291  0.00  0.00    +0.000 C 
ATOM     26  C   UNL     1       4.435   3.215  11.396  0.00  0.00    +0.000 C 
BRANCH  25  27
ATOM     27  O   UNL     1       6.540   2.078  11.497  0.00  0.00    +0.000 OA
ATOM     28  H   UNL     1       7.370   2.585  11.510  0.00  0.00    +0.000 HD
ENDBRANCH  25  27
ENDBRANCH  24  25
ENDBRANCH  23  24
ENDBRANCH  22  23
ENDBRANCH  21  22
ENDBRANCH   3  21
TORSDOF 13
ENDMDL
MODEL 4
REMARK VINA RESULT:      -6.6      1.650      4.604
REMARK  Name = 
REMARK  15 active torsions:
REMARK  status: ('A' for Active; 'I' for Inactive)
REMARK    1  A    between atoms: C_1  and  C_2
REMARK    2  A    between atoms: C_2  and  O_3
REMARK    3  A    between atoms: C_2  and  C_4
REMARK    4  A    between atoms: C_4  and  C_5
REMARK    5  A    between atoms: C_5  and  C_6
REMARK    6  A    between atoms: C_6  and  C_7
REMARK    7  A    between atoms: C_7  and  O_8
REMARK    8  A    between atoms: O_8  and  C_9
REMARK    9  A    between atoms: N_11  and  C_12
REMARK   10  A    between atoms: C_12  and  C_13
REMARK   11  A    between atoms: C_13  and  C_14
REMARK   12  A    between atoms: C_14  and  C_15
REMARK   13  A    between atoms: C_15  and  C_16
REMARK   14  A    between atoms: C_16  and  C_17
REMARK   15  A    between atoms: C_16  and  O_18
REMARK                            x       y       z     vdW  Elec       q    Type
REMARK                         _______ _______ _______ _____ _____    ______ ____
ROOT
ATOM      1  C   UNL     1       2.814   6.001  18.148  0.00  0.00    +0.000 A 
ATOM      2  N   UNL     1       3.801   6.020  17.299  0.00  0.00    +0.000 NA
ATOM      3  N   UNL     1       4.494   4.843  17.100  0.00  0.00    +0.000 N 
ATOM      4  C   UNL     1       4.157   3.624  17.673  0.00  0.00    +0.000 A 
ATOM      5  O   UNL     1       4.735   2.564  17.431  0.00  0.00    +0.000 OA
ATOM      6  C   UNL     1       3.062   3.641  18.654  0.00  0.00    +0.000 A 
ATOM      7  C   UNL     1       2.719   2.477  19.345  0.00  0.00    +0.000 A 
ATOM      8  C   UNL     1       1.717   2.519  20.313  0.00  0.00    +0.000 A 
ATOM      9  C   UNL     1       1.035   3.712  20.565  0.00  0.00    +0.000 A 
ATOM     10  C   UNL     1       1.360   4.869  19.858  0.00  0.00    +0.000 A 
ATOM     11  C   UNL     1       2.395   4.834  18.914  0.00  0.00    +0.000 A 
ENDROOT
BRANCH   1  12
ATOM     12  O   UNL     1       2.058   7.085  18.429  0.00  0.00    +0.000 OA
BRANCH  12  13
ATOM     13  C   UNL     1       2.635   8.356  18.100  0.00  0.00    +0.000 C 
BRANCH  13  14
ATOM     14  C   UNL     1       1.506   9.342  17.815  0.00  0.00    +0.000 C 
BRANCH  14  15
ATOM     15  C   UNL     1       0.557   9.431  19.007  0.00  0.00    +0.000 C 
BRANCH  15  16
ATOM     16  C   UNL     1       1.256   9.967  20.258  0.00  0.00    +0.000 C 
BRANCH  16  18
ATOM     17  C   UNL     1      -0.371   8.539  21.557  0.00  0.00    +0.000 C 
ATOM     18  C   UNL     1       1.065   9.032  21.457  0.00  0.00    +0.000 C 
BRANCH  18  19
ATOM     19  O   UNL     1       1.928   7.904  21.343  0.00  0.00    +0.000 OA
ATOM     20  H   UNL     1       1.468   7.226  20.819  0.00  0.00    +0.000 HD
ENDBRANCH  18  19
ENDBRANCH  16  18
ENDBRANCH  15  16
ENDBRANCH  14  15
ENDBRANCH  13  14
ENDBRANCH  12  13
ENDBRANCH   1  12
BRANCH   3  21
ATOM     21  C   UNL     1       5.667   4.909  16.240  0.00  0.00    +0.000 C 
BRANCH  21  22
ATOM     22  C   UNL     1       5.339   4.737  14.759  0.00  0.00    +0.000 C 
BRANCH  22  23
ATOM     23  C   UNL     1       6.370   3.845  14.075  0.00  0.00    +0.000 C 
BRANCH  23  24
ATOM     24  C   UNL     1       6.159   3.833  12.561  0.00  0.00    +0.000 C 
BRANCH  24  25
ATOM     25  C   UNL     1       5.184   2.735  12.138  0.00  0.00    +0.000 C 
ATOM     26  C   UNL     1       4.131   3.249  11.163  0.00  0.00    +0.000 C 
BRANCH  25  27
ATOM     27  O   UNL     1       5.904   1.677  11.510  0.00  0.00    +0.000 OA
ATOM     28  H   UNL     1       5.692   0.856  11.987  0.00  0.00    +0.000 HD
ENDBRANCH  25  27
ENDBRANCH  24  25
ENDBRANCH  23  24
ENDBRANCH  22  23
ENDBRANCH  21  22
ENDBRANCH   3  21
TORSDOF 13
ENDMDL
MODEL 5
REMARK VINA RESULT:      -6.6      2.550      6.686
REMARK  Name = 
REMARK  15 active torsions:
REMARK  status: ('A' for Active; 'I' for Inactive)
REMARK    1  A    between atoms: C_1  and  C_2
REMARK    2  A    between atoms: C_2  and  O_3
REMARK    3  A    between atoms: C_2  and  C_4
REMARK    4  A    between atoms: C_4  and  C_5
REMARK    5  A    between atoms: C_5  and  C_6
REMARK    6  A    between atoms: C_6  and  C_7
REMARK    7  A    between atoms: C_7  and  O_8
REMARK    8  A    between atoms: O_8  and  C_9
REMARK    9  A    between atoms: N_11  and  C_12
REMARK   10  A    between atoms: C_12  and  C_13
REMARK   11  A    between atoms: C_13  and  C_14
REMARK   12  A    between atoms: C_14  and  C_15
REMARK   13  A    between atoms: C_15  and  C_16
REMARK   14  A    between atoms: C_16  and  C_17
REMARK   15  A    between atoms: C_16  and  O_18
REMARK                            x       y       z     vdW  Elec       q    Type
REMARK                         _______ _______ _______ _____ _____    ______ ____
ROOT
ATOM      1  C   UNL     1       3.604   6.688  18.121  0.00  0.00    +0.000 A 
ATOM      2  N   UNL     1       3.104   6.247  19.239  0.00  0.00    +0.000 NA
ATOM      3  N   UNL     1       3.606   5.062  19.739  0.00  0.00    +0.000 N 
ATOM      4  C   UNL     1       4.665   4.358  19.182  0.00  0.00    +0.000 A 
ATOM      5  O   UNL     1       5.156   3.344  19.677  0.00  0.00    +0.000 OA
ATOM      6  C   UNL     1       5.185   4.862  17.902  0.00  0.00    +0.000 A 
ATOM      7  C   UNL     1       6.187   4.162  17.227  0.00  0.00    +0.000 A 
ATOM      8  C   UNL     1       6.632   4.618  15.987  0.00  0.00    +0.000 A 
ATOM      9  C   UNL     1       6.103   5.788  15.440  0.00  0.00    +0.000 A 
ATOM     10  C   UNL     1       5.119   6.501  16.124  0.00  0.00    +0.000 A 
ATOM     11  C   UNL     1       4.645   6.019  17.351  0.00  0.00    +0.000 A 
ENDROOT
BRANCH   1  12
ATOM     12  O   UNL     1       3.200   7.834  17.530  0.00  0.00    +0.000 OA
BRANCH  12  13
ATOM     13  C   UNL     1       1.821   8.184  17.714  0.00  0.00    +0.000 C 
BRANCH  13  14
ATOM     14  C   UNL     1       1.741   9.661  18.086  0.00  0.00    +0.000 C 
BRANCH  14  15
ATOM     15  C   UNL     1       0.288  10.089  18.274  0.00  0.00    +0.000 C 
BRANCH  15  16
ATOM     16  C   UNL     1       0.175  11.450  18.962  0.00  0.00    +0.000 C 
BRANCH  16  18
ATOM     17  C   UNL     1      -1.598  13.030  19.824  0.00  0.00    +0.000 C 
ATOM     18  C   UNL     1      -1.178  12.115  18.682  0.00  0.00    +0.000 C 
BRANCH  18  19
ATOM     19  O   UNL     1      -1.110  12.883  17.483  0.00  0.00    +0.000 OA
ATOM     20  H   UNL     1      -1.717  13.637  17.576  0.00  0.00    +0.000 HD
ENDBRANCH  18  19
ENDBRANCH  16  18
ENDBRANCH  15  16
ENDBRANCH  14  15
ENDBRANCH  13  14
ENDBRANCH  12  13
ENDBRANCH   1  12
BRANCH   3  21
ATOM     21  C   UNL     1       2.955   4.522  20.924  0.00  0.00    +0.000 C 
BRANCH  21  22
ATOM     22  C   UNL     1       1.468   4.243  20.720  0.00  0.00    +0.000 C 
BRANCH  22  23
ATOM     23  C   UNL     1       1.233   2.773  20.384  0.00  0.00    +0.000 C 
BRANCH  23  24
ATOM     24  C   UNL     1       0.730   2.619  18.949  0.00  0.00    +0.000 C 
BRANCH  24  25
ATOM     25  C   UNL     1       1.793   1.998  18.044  0.00  0.00    +0.000 C 
ATOM     26  C   UNL     1       2.402   3.020  17.092  0.00  0.00    +0.000 C 
BRANCH  25  27
ATOM     27  O   UNL     1       2.836   1.449  18.847  0.00  0.00    +0.000 OA
ATOM     28  H   UNL     1       3.340   0.831  18.289  0.00  0.00    +0.000 HD
ENDBRANCH  25  27
ENDBRANCH  24  25
ENDBRANCH  23  24
ENDBRANCH  22  23
ENDBRANCH  21  22
ENDBRANCH   3  21
TORSDOF 13
ENDMDL
MODEL 6
REMARK VINA RESULT:      -6.6      1.978      7.164
REMARK  Name = 
REMARK  15 active torsions:
REMARK  status: ('A' for Active; 'I' for Inactive)
REMARK    1  A    between atoms: C_1  and  C_2
REMARK    2  A    between atoms: C_2  and  O_3
REMARK    3  A    between atoms: C_2  and  C_4
REMARK    4  A    between atoms: C_4  and  C_5
REMARK    5  A    between atoms: C_5  and  C_6
REMARK    6  A    between atoms: C_6  and  C_7
REMARK    7  A    between atoms: C_7  and  O_8
REMARK    8  A    between atoms: O_8  and  C_9
REMARK    9  A    between atoms: N_11  and  C_12
REMARK   10  A    between atoms: C_12  and  C_13
REMARK   11  A    between atoms: C_13  and  C_14
REMARK   12  A    between atoms: C_14  and  C_15
REMARK   13  A    between atoms: C_15  and  C_16
REMARK   14  A    between atoms: C_16  and  C_17
REMARK   15  A    between atoms: C_16  and  O_18
REMARK                            x       y       z     vdW  Elec       q    Type
REMARK                         _______ _______ _______ _____ _____    ______ ____
ROOT
ATOM      1  C   UNL     1       3.375   4.732  17.577  0.00  0.00    +0.000 A 
ATOM      2  N   UNL     1       3.495   6.016  17.395  0.00  0.00    +0.000 NA
ATOM      3  N   UNL     1       2.925   6.850  18.336  0.00  0.00    +0.000 N 
ATOM      4  C   UNL     1       2.312   6.417  19.504  0.00  0.00    +0.000 A 
ATOM      5  O   UNL     1       1.874   7.170  20.374  0.00  0.00    +0.000 OA
ATOM      6  C   UNL     1       2.161   4.963  19.665  0.00  0.00    +0.000 A 
ATOM      7  C   UNL     1       1.476   4.446  20.766  0.00  0.00    +0.000 A 
ATOM      8  C   UNL     1       1.289   3.068  20.878  0.00  0.00    +0.000 A 
ATOM      9  C   UNL     1       1.816   2.209  19.912  0.00  0.00    +0.000 A 
ATOM     10  C   UNL     1       2.521   2.723  18.824  0.00  0.00    +0.000 A 
ATOM     11  C   UNL     1       2.673   4.110  18.693  0.00  0.00    +0.000 A 
ENDROOT
BRANCH   1  12
ATOM     12  O   UNL     1       3.889   3.813  16.732  0.00  0.00    +0.000 OA
BRANCH  12  13
ATOM     13  C   UNL     1       5.210   4.079  16.241  0.00  0.00    +0.000 C 
BRANCH  13  14
ATOM     14  C   UNL     1       5.138   4.264  14.728  0.00  0.00    +0.000 C 
BRANCH  14  15
ATOM     15  C   UNL     1       6.523   4.120  14.104  0.00  0.00    +0.000 C 
BRANCH  15  16
ATOM     16  C   UNL     1       6.450   3.878  12.595  0.00  0.00    +0.000 C 
BRANCH  16  18
ATOM     17  C   UNL     1       4.327   3.350  11.335  0.00  0.00    +0.000 C 
ATOM     18  C   UNL     1       5.416   2.802  12.245  0.00  0.00    +0.000 C 
BRANCH  18  19
ATOM     19  O   UNL     1       6.051   1.706  11.589  0.00  0.00    +0.000 OA
ATOM     20  H   UNL     1       5.827   1.753  10.643  0.00  0.00    +0.000 HD
ENDBRANCH  18  19
ENDBRANCH  16  18
ENDBRANCH  15  16
ENDBRANCH  14  15
ENDBRANCH  13  14
ENDBRANCH  12  13
ENDBRANCH   1  12
BRANCH   3  21
ATOM     21  C   UNL     1       2.963   8.278  18.056  0.00  0.00    +0.000 C 
BRANCH  21  22
ATOM     22  C   UNL     1       1.584   8.877  17.787  0.00  0.00    +0.000 C 
BRANCH  22  23
ATOM     23  C   UNL     1       1.411  10.196  18.534  0.00  0.00    +0.000 C 
BRANCH  23  24
ATOM     24  C   UNL     1       0.242  10.113  19.516  0.00  0.00    +0.000 C 
BRANCH  24  25
ATOM     25  C   UNL     1       0.556  10.837  20.825  0.00  0.00    +0.000 C 
ATOM     26  C   UNL     1      -0.707  11.292  21.545  0.00  0.00    +0.000 C 
BRANCH  25  27
ATOM     27  O   UNL     1       1.279   9.961  21.689  0.00  0.00    +0.000 OA
ATOM     28  H   UNL     1       1.319  10.383  22.564  0.00  0.00    +0.000 HD
ENDBRANCH  25  27
ENDBRANCH  24  25
ENDBRANCH  23  24
ENDBRANCH  22  23
ENDBRANCH  21  22
ENDBRANCH   3  21
TORSDOF 13
ENDMDL
MODEL 7
REMARK VINA RESULT:      -6.6      2.462      3.372
REMARK  Name = 
REMARK  15 active torsions:
REMARK  status: ('A' for Active; 'I' for Inactive)
REMARK    1  A    between atoms: C_1  and  C_2
REMARK    2  A    between atoms: C_2  and  O_3
REMARK    3  A    between atoms: C_2  and  C_4
REMARK    4  A    between atoms: C_4  and  C_5
REMARK    5  A    between atoms: C_5  and  C_6
REMARK    6  A    between atoms: C_6  and  C_7
REMARK    7  A    between atoms: C_7  and  O_8
REMARK    8  A    between atoms: O_8  and  C_9
REMARK    9  A    between atoms: N_11  and  C_12
REMARK   10  A    between atoms: C_12  and  C_13
REMARK   11  A    between atoms: C_13  and  C_14
REMARK   12  A    between atoms: C_14  and  C_15
REMARK   13  A    between atoms: C_15  and  C_16
REMARK   14  A    between atoms: C_16  and  C_17
REMARK   15  A    between atoms: C_16  and  O_18
REMARK                            x       y       z     vdW  Elec       q    Type
REMARK                         _______ _______ _______ _____ _____    ______ ____
ROOT
ATOM      1  C   UNL     1       2.033   6.751  20.113  0.00  0.00    +0.000 A 
ATOM      2  N   UNL     1       2.770   6.542  19.060  0.00  0.00    +0.000 NA
ATOM      3  N   UNL     1       2.842   7.551  18.121  0.00  0.00    +0.000 N 
ATOM      4  C   UNL     1       2.258   8.803  18.264  0.00  0.00    +0.000 A 
ATOM      5  O   UNL     1       2.390   9.722  17.456  0.00  0.00    +0.000 OA
ATOM      6  C   UNL     1       1.404   8.997  19.445  0.00  0.00    +0.000 A 
ATOM      7  C   UNL     1       0.706  10.193  19.618  0.00  0.00    +0.000 A 
ATOM      8  C   UNL     1      -0.145  10.344  20.713  0.00  0.00    +0.000 A 
ATOM      9  C   UNL     1      -0.269   9.316  21.650  0.00  0.00    +0.000 A 
ATOM     10  C   UNL     1       0.446   8.130  21.490  0.00  0.00    +0.000 A 
ATOM     11  C   UNL     1       1.269   7.966  20.369  0.00  0.00    +0.000 A 
ENDROOT
BRANCH   1  12
ATOM     12  O   UNL     1       1.883   5.845  21.103  0.00  0.00    +0.000 OA
BRANCH  12  13
ATOM     13  C   UNL     1       1.356   4.568  20.713  0.00  0.00    +0.000 C 
BRANCH  13  14
ATOM     14  C   UNL     1       2.199   3.476  21.364  0.00  0.00    +0.000 C 
BRANCH  14  15
ATOM     15  C   UNL     1       3.059   2.768  20.320  0.00  0.00    +0.000 C 
BRANCH  15  16
ATOM     16  C   UNL     1       2.210   2.020  19.291  0.00  0.00    +0.000 C 
BRANCH  16  18
ATOM     17  C   UNL     1       2.562   3.457  17.244  0.00  0.00    +0.000 C 
ATOM     18  C   UNL     1       2.822   2.103  17.887  0.00  0.00    +0.000 C 
BRANCH  18  19
ATOM     19  O   UNL     1       4.230   1.892  17.952  0.00  0.00    +0.000 OA
ATOM     20  H   UNL     1       4.480   1.819  18.889  0.00  0.00    +0.000 HD
ENDBRANCH  18  19
ENDBRANCH  16  18
ENDBRANCH  15  16
ENDBRANCH  14  15
ENDBRANCH  13  14
ENDBRANCH  12  13
ENDBRANCH   1  12
BRANCH   3  21
ATOM     21  C   UNL     1       3.570   7.257  16.895  0.00  0.00    +0.000 C 
BRANCH  21  22
ATOM     22  C   UNL     1       5.058   6.999  17.126  0.00  0.00    +0.000 C 
BRANCH  22  23
ATOM     23  C   UNL     1       5.473   5.655  16.535  0.00  0.00    +0.000 C 
BRANCH  23  24
ATOM     24  C   UNL     1       6.988   5.471  16.617  0.00  0.00    +0.000 C 
BRANCH  24  25
ATOM     25  C   UNL     1       7.397   4.739  17.895  0.00  0.00    +0.000 C 
ATOM     26  C   UNL     1       7.784   5.704  19.008  0.00  0.00    +0.000 C 
BRANCH  25  27
ATOM     27  O   UNL     1       6.309   3.936  18.350  0.00  0.00    +0.000 OA
ATOM     28  H   UNL     1       6.353   3.088  17.875  0.00  0.00    +0.000 HD
ENDBRANCH  25  27
ENDBRANCH  24  25
ENDBRANCH  23  24
ENDBRANCH  22  23
ENDBRANCH  21  22
ENDBRANCH   3  21
TORSDOF 13
ENDMDL
MODEL 8
REMARK VINA RESULT:      -6.6      2.404      5.840
REMARK  Name = 
REMARK  15 active torsions:
REMARK  status: ('A' for Active; 'I' for Inactive)
REMARK    1  A    between atoms: C_1  and  C_2
REMARK    2  A    between atoms: C_2  and  O_3
REMARK    3  A    between atoms: C_2  and  C_4
REMARK    4  A    between atoms: C_4  and  C_5
REMARK    5  A    between atoms: C_5  and  C_6
REMARK    6  A    between atoms: C_6  and  C_7
REMARK    7  A    between atoms: C_7  and  O_8
REMARK    8  A    between atoms: O_8  and  C_9
REMARK    9  A    between atoms: N_11  and  C_12
REMARK   10  A    between atoms: C_12  and  C_13
REMARK   11  A    between atoms: C_13  and  C_14
REMARK   12  A    between atoms: C_14  and  C_15
REMARK   13  A    between atoms: C_15  and  C_16
REMARK   14  A    between atoms: C_16  and  C_17
REMARK   15  A    between atoms: C_16  and  O_18
REMARK                            x       y       z     vdW  Elec       q    Type
REMARK                         _______ _______ _______ _____ _____    ______ ____
ROOT
ATOM      1  C   UNL     1       3.186   5.759  18.275  0.00  0.00    +0.000 A 
ATOM      2  N   UNL     1       4.033   5.472  17.328  0.00  0.00    +0.000 NA
ATOM      3  N   UNL     1       4.283   4.138  17.079  0.00  0.00    +0.000 N 
ATOM      4  C   UNL     1       3.631   3.084  17.705  0.00  0.00    +0.000 A 
ATOM      5  O   UNL     1       3.807   1.898  17.422  0.00  0.00    +0.000 OA
ATOM      6  C   UNL     1       2.708   3.438  18.793  0.00  0.00    +0.000 A 
ATOM      7  C   UNL     1       2.081   2.436  19.536  0.00  0.00    +0.000 A 
ATOM      8  C   UNL     1       1.251   2.783  20.602  0.00  0.00    +0.000 A 
ATOM      9  C   UNL     1       1.022   4.127  20.902  0.00  0.00    +0.000 A 
ATOM     10  C   UNL     1       1.629   5.129  20.146  0.00  0.00    +0.000 A 
ATOM     11  C   UNL     1       2.493   4.777  19.100  0.00  0.00    +0.000 A 
ENDROOT
BRANCH   1  12
ATOM     12  O   UNL     1       2.855   7.024  18.614  0.00  0.00    +0.000 OA
BRANCH  12  13
ATOM     13  C   UNL     1       2.362   7.852  17.551  0.00  0.00    +0.000 C 
BRANCH  13  14
ATOM     14  C   UNL     1       2.152   9.263  18.092  0.00  0.00    +0.000 C 
BRANCH  14  15
ATOM     15  C   UNL     1       0.671   9.631  18.068  0.00  0.00    +0.000 C 
BRANCH  15  16
ATOM     16  C   UNL     1       0.171  10.086  19.440  0.00  0.00    +0.000 C 
BRANCH  16  18
ATOM     17  C   UNL     1       1.087  12.240  20.389  0.00  0.00    +0.000 C 
ATOM     18  C   UNL     1       0.017  11.611  19.508  0.00  0.00    +0.000 C 
BRANCH  18  19
ATOM     19  O   UNL     1       0.112  12.173  18.202  0.00  0.00    +0.000 OA
ATOM     20  H   UNL     1      -0.789  12.259  17.847  0.00  0.00    +0.000 HD
ENDBRANCH  18  19
ENDBRANCH  16  18
ENDBRANCH  15  16
ENDBRANCH  14  15
ENDBRANCH  13  14
ENDBRANCH  12  13
ENDBRANCH   1  12
BRANCH   3  21
ATOM     21  C   UNL     1       5.319   3.836  16.101  0.00  0.00    +0.000 C 
BRANCH  21  22
ATOM     22  C   UNL     1       5.896   5.081  15.431  0.00  0.00    +0.000 C 
BRANCH  22  23
ATOM     23  C   UNL     1       7.231   5.465  16.062  0.00  0.00    +0.000 C 
BRANCH  23  24
ATOM     24  C   UNL     1       7.549   4.562  17.254  0.00  0.00    +0.000 C 
BRANCH  24  25
ATOM     25  C   UNL     1       7.661   5.361  18.551  0.00  0.00    +0.000 C 
ATOM     26  C   UNL     1       7.802   6.856  18.291  0.00  0.00    +0.000 C 
BRANCH  25  27
ATOM     27  O   UNL     1       6.494   5.147  19.342  0.00  0.00    +0.000 OA
ATOM     28  H   UNL     1       6.570   5.707  20.134  0.00  0.00    +0.000 HD
ENDBRANCH  25  27
ENDBRANCH  24  25
ENDBRANCH  23  24
ENDBRANCH  22  23
ENDBRANCH  21  22
ENDBRANCH   3  21
TORSDOF 13
ENDMDL
MODEL 9
REMARK VINA RESULT:      -6.5      2.351      5.293
REMARK  Name = 
REMARK  15 active torsions:
REMARK  status: ('A' for Active; 'I' for Inactive)
REMARK    1  A    between atoms: C_1  and  C_2
REMARK    2  A    between atoms: C_2  and  O_3
REMARK    3  A    between atoms: C_2  and  C_4
REMARK    4  A    between atoms: C_4  and  C_5
REMARK    5  A    between atoms: C_5  and  C_6
REMARK    6  A    between atoms: C_6  and  C_7
REMARK    7  A    between atoms: C_7  and  O_8
REMARK    8  A    between atoms: O_8  and  C_9
REMARK    9  A    between atoms: N_11  and  C_12
REMARK   10  A    between atoms: C_12  and  C_13
REMARK   11  A    between atoms: C_13  and  C_14
REMARK   12  A    between atoms: C_14  and  C_15
REMARK   13  A    between atoms: C_15  and  C_16
REMARK   14  A    between atoms: C_16  and  C_17
REMARK   15  A    between atoms: C_16  and  O_18
REMARK                            x       y       z     vdW  Elec       q    Type
REMARK                         _______ _______ _______ _____ _____    ______ ____
ROOT
ATOM      1  C   UNL     1       3.077   6.242  19.455  0.00  0.00    +0.000 A 
ATOM      2  N   UNL     1       4.328   6.441  19.153  0.00  0.00    +0.000 NA
ATOM      3  N   UNL     1       5.167   5.345  19.152  0.00  0.00    +0.000 N 
ATOM      4  C   UNL     1       4.752   4.037  19.362  0.00  0.00    +0.000 A 
ATOM      5  O   UNL     1       5.494   3.057  19.284  0.00  0.00    +0.000 OA
ATOM      6  C   UNL     1       3.343   3.847  19.736  0.00  0.00    +0.000 A 
ATOM      7  C   UNL     1       2.866   2.574  20.054  0.00  0.00    +0.000 A 
ATOM      8  C   UNL     1       1.542   2.415  20.462  0.00  0.00    +0.000 A 
ATOM      9  C   UNL     1       0.689   3.519  20.517  0.00  0.00    +0.000 A 
ATOM     10  C   UNL     1       1.158   4.787  20.176  0.00  0.00    +0.000 A 
ATOM     11  C   UNL     1       2.499   4.950  19.805  0.00  0.00    +0.000 A 
ENDROOT
BRANCH   1  12
ATOM     12  O   UNL     1       2.157   7.230  19.490  0.00  0.00    +0.000 OA
BRANCH  12  13
ATOM     13  C   UNL     1       2.040   8.023  18.300  0.00  0.00    +0.000 C 
BRANCH  13  14
ATOM     14  C   UNL     1       1.286   9.304  18.643  0.00  0.00    +0.000 C 
BRANCH  14  15
ATOM     15  C   UNL     1       1.220   9.499  20.156  0.00  0.00    +0.000 C 
BRANCH  15  16
ATOM     16  C   UNL     1      -0.221   9.592  20.659  0.00  0.00    +0.000 C 
BRANCH  16  18
ATOM     17  C   UNL     1      -0.788  10.227  23.037  0.00  0.00    +0.000 C 
ATOM     18  C   UNL     1      -0.398  10.741  21.659  0.00  0.00    +0.000 C 
BRANCH  18  19
ATOM     19  O   UNL     1       0.814  11.482  21.774  0.00  0.00    +0.000 OA
ATOM     20  H   UNL     1       1.090  11.461  22.707  0.00  0.00    +0.000 HD
ENDBRANCH  18  19
ENDBRANCH  16  18
ENDBRANCH  15  16
ENDBRANCH  14  15
ENDBRANCH  13  14
ENDBRANCH  12  13
ENDBRANCH   1  12
BRANCH   3  21
ATOM     21  C   UNL     1       6.582   5.602  18.930  0.00  0.00    +0.000 C 
BRANCH  21  22
ATOM     22  C   UNL     1       6.846   6.555  17.766  0.00  0.00    +0.000 C 
BRANCH  22  23
ATOM     23  C   UNL     1       7.030   5.782  16.463  0.00  0.00    +0.000 C 
BRANCH  23  24
ATOM     24  C   UNL     1       5.703   5.662  15.712  0.00  0.00    +0.000 C 
BRANCH  24  25
ATOM     25  C   UNL     1       5.451   4.231  15.241  0.00  0.00    +0.000 C 
ATOM     26  C   UNL     1       6.144   3.934  13.917  0.00  0.00    +0.000 C 
BRANCH  25  27
ATOM     27  O   UNL     1       5.938   3.317  16.222  0.00  0.00    +0.000 OA
ATOM     28  H   UNL     1       6.698   2.849  15.833  0.00  0.00    +0.000 HD
ENDBRANCH  25  27
ENDBRANCH  24  25
ENDBRANCH  23  24
ENDBRANCH  22  23
ENDBRANCH  21  22
ENDBRANCH   3  21
TORSDOF 13
ENDMDL
