MODEL 1
REMARK VINA RESULT:      -8.5      0.000      0.000
REMARK  Name = 
REMARK  5 active torsions:
REMARK  status: ('A' for Active; 'I' for Inactive)
REMARK    1  A    between atoms: C_8  and  C_9
REMARK    2  A    between atoms: C_9  and  O_10
REMARK    3  A    between atoms: N_19  and  C_20
REMARK    4  A    between atoms: C_20  and  C_21
REMARK    5  A    between atoms: C_26  and  C_27
REMARK                            x       y       z     vdW  Elec       q    Type
REMARK                         _______ _______ _______ _____ _____    ______ ____
ROOT
ATOM      1  C   UNL     1       0.248  10.799  18.888  0.00  0.00    +0.000 C 
ATOM      2  C   UNL     1      -1.134  10.630  18.296  0.00  0.00    +0.000 A 
ATOM      3  C   UNL     1      -1.584   9.926  17.188  0.00  0.00    +0.000 A 
ATOM      4  C   UNL     1      -2.943  10.017  16.844  0.00  0.00    +0.000 A 
ATOM      5  C   UNL     1      -3.835  10.803  17.599  0.00  0.00    +0.000 A 
ATOM      6  C   UNL     1      -3.382  11.517  18.704  0.00  0.00    +0.000 A 
ATOM      7  C   UNL     1      -2.038  11.416  19.015  0.00  0.00    +0.000 A 
ATOM      8  C   UNL     1      -1.322  12.069  20.105  0.00  0.00    +0.000 C 
ATOM      9  O   UNL     1      -1.837  12.822  20.911  0.00  0.00    +0.000 OA
ATOM     10  N   UNL     1      -0.016  11.632  20.051  0.00  0.00    +0.000 N 
ENDROOT
BRANCH   1  18
ATOM     11  O   UNL     1       4.649   5.347  17.032  0.00  0.00    +0.000 OA
ATOM     12  C   UNL     1       3.962   5.901  17.886  0.00  0.00    +0.000 C 
ATOM     13  C   UNL     1       3.842   5.392  19.321  0.00  0.00    +0.000 C 
ATOM     14  O   UNL     1       2.762   5.827  20.133  0.00  0.00    +0.000 OA
ATOM     15  C   UNL     1       2.267   7.057  19.801  0.00  0.00    +0.000 A 
ATOM     16  C   UNL     1       1.424   7.648  20.733  0.00  0.00    +0.000 A 
ATOM     17  C   UNL     1       0.824   8.875  20.447  0.00  0.00    +0.000 A 
ATOM     18  C   UNL     1       1.037   9.535  19.216  0.00  0.00    +0.000 A 
ATOM     19  C   UNL     1       1.896   8.920  18.286  0.00  0.00    +0.000 A 
ATOM     20  C   UNL     1       2.504   7.693  18.582  0.00  0.00    +0.000 A 
ATOM     21  N   UNL     1       3.312   7.077  17.628  0.00  0.00    +0.000 N 
ATOM     22  H   UNL     1       3.428   7.468  16.702  0.00  0.00    +0.000 HD
ENDBRANCH   1  18
BRANCH   1  23
ATOM     23  O   UNL     1       0.990  11.602  17.976  0.00  0.00    +0.000 OA
ATOM     24  H   UNL     1       0.372  12.269  17.635  0.00  0.00    +0.000 HD
ENDBRANCH   1  23
BRANCH  10  25
ATOM     25  C   UNL     1       0.981  12.015  21.035  0.00  0.00    +0.000 C 
BRANCH  25  26
ATOM     26  C   UNL     1       1.520  13.412  20.787  0.00  0.00    +0.000 A 
ATOM     27  C   UNL     1       1.053  14.497  21.529  0.00  0.00    +0.000 A 
ATOM     28  C   UNL     1       1.475  15.792  21.227  0.00  0.00    +0.000 A 
ATOM     29  C   UNL     1       2.382  16.029  20.186  0.00  0.00    +0.000 A 
ATOM     30 CL   UNL     1       2.774  17.679  19.873  0.00  0.00    +0.000 Cl
ATOM     31  C   UNL     1       2.909  14.961  19.458  0.00  0.00    +0.000 A 
ATOM     32  C   UNL     1       2.481  13.655  19.789  0.00  0.00    +0.000 A 
BRANCH  31  33
ATOM     33  C   UNL     1       3.892  15.096  18.322  0.00  0.00    +0.000 C 
ATOM     34  F   UNL     1       4.980  15.876  18.548  0.00  0.00    +0.000 F 
ATOM     35  F   UNL     1       4.388  13.887  17.927  0.00  0.00    +0.000 F 
ATOM     36  F   UNL     1       3.300  15.626  17.210  0.00  0.00    +0.000 F 
ENDBRANCH  31  33
ENDBRANCH  25  26
ENDBRANCH  10  25
TORSDOF 5
ENDMDL
MODEL 2
REMARK VINA RESULT:      -8.3      3.967      7.320
REMARK  Name = 
REMARK  5 active torsions:
REMARK  status: ('A' for Active; 'I' for Inactive)
REMARK    1  A    between atoms: C_8  and  C_9
REMARK    2  A    between atoms: C_9  and  O_10
REMARK    3  A    between atoms: N_19  and  C_20
REMARK    4  A    between atoms: C_20  and  C_21
REMARK    5  A    between atoms: C_26  and  C_27
REMARK                            x       y       z     vdW  Elec       q    Type
REMARK                         _______ _______ _______ _____ _____    ______ ____
ROOT
ATOM      1  C   UNL     1      -0.856  11.848  19.888  0.00  0.00    +0.000 C 
ATOM      2  C   UNL     1      -2.298  11.917  19.438  0.00  0.00    +0.000 A 
ATOM      3  C   UNL     1      -3.396  12.592  19.954  0.00  0.00    +0.000 A 
ATOM      4  C   UNL     1      -4.646  12.402  19.343  0.00  0.00    +0.000 A 
ATOM      5  C   UNL     1      -4.793  11.547  18.234  0.00  0.00    +0.000 A 
ATOM      6  C   UNL     1      -3.695  10.862  17.722  0.00  0.00    +0.000 A 
ATOM      7  C   UNL     1      -2.478  11.061  18.348  0.00  0.00    +0.000 A 
ATOM      8  C   UNL     1      -1.192  10.457  18.015  0.00  0.00    +0.000 C 
ATOM      9  O   UNL     1      -1.022   9.663  17.108  0.00  0.00    +0.000 OA
ATOM     10  N   UNL     1      -0.259  10.990  18.876  0.00  0.00    +0.000 N 
ENDROOT
BRANCH   1  18
ATOM     11  O   UNL     1       1.510  18.268  17.492  0.00  0.00    +0.000 OA
ATOM     12  C   UNL     1       1.460  17.433  18.392  0.00  0.00    +0.000 C 
ATOM     13  C   UNL     1       2.117  17.634  19.755  0.00  0.00    +0.000 C 
ATOM     14  O   UNL     1       2.358  16.514  20.593  0.00  0.00    +0.000 OA
ATOM     15  C   UNL     1       1.498  15.469  20.397  0.00  0.00    +0.000 A 
ATOM     16  C   UNL     1       1.501  14.484  21.376  0.00  0.00    +0.000 A 
ATOM     17  C   UNL     1       0.701  13.351  21.223  0.00  0.00    +0.000 A 
ATOM     18  C   UNL     1      -0.111  13.165  20.081  0.00  0.00    +0.000 A 
ATOM     19  C   UNL     1      -0.101  14.176  19.102  0.00  0.00    +0.000 A 
ATOM     20  C   UNL     1       0.698  15.316  19.265  0.00  0.00    +0.000 A 
ATOM     21  N   UNL     1       0.731  16.283  18.260  0.00  0.00    +0.000 N 
ATOM     22  H   UNL     1       0.234  16.155  17.388  0.00  0.00    +0.000 HD
ENDBRANCH   1  18
BRANCH   1  23
ATOM     23  O   UNL     1      -0.841  11.108  21.105  0.00  0.00    +0.000 OA
ATOM     24  H   UNL     1      -1.226  10.241  20.901  0.00  0.00    +0.000 HD
ENDBRANCH   1  23
BRANCH  10  25
ATOM     25  C   UNL     1       1.157  10.677  18.791  0.00  0.00    +0.000 C 
BRANCH  25  26
ATOM     26  C   UNL     1       1.449   9.243  19.189  0.00  0.00    +0.000 A 
ATOM     27  C   UNL     1       0.983   8.731  20.400  0.00  0.00    +0.000 A 
ATOM     28  C   UNL     1       1.342   7.446  20.808  0.00  0.00    +0.000 A 
ATOM     29  C   UNL     1       2.163   6.640  20.009  0.00  0.00    +0.000 A 
ATOM     30 CL   UNL     1       2.586   5.099  20.656  0.00  0.00    +0.000 Cl
ATOM     31  C   UNL     1       2.605   7.102  18.767  0.00  0.00    +0.000 A 
ATOM     32  C   UNL     1       2.218   8.401  18.366  0.00  0.00    +0.000 A 
BRANCH  31  33
ATOM     33  C   UNL     1       3.487   6.323  17.824  0.00  0.00    +0.000 C 
ATOM     34  F   UNL     1       3.881   6.962  16.693  0.00  0.00    +0.000 F 
ATOM     35  F   UNL     1       4.638   5.906  18.426  0.00  0.00    +0.000 F 
ATOM     36  F   UNL     1       2.871   5.183  17.391  0.00  0.00    +0.000 F 
ENDBRANCH  31  33
ENDBRANCH  25  26
ENDBRANCH  10  25
TORSDOF 5
ENDMDL
MODEL 3
REMARK VINA RESULT:      -8.3      1.296      1.660
REMARK  Name = 
REMARK  5 active torsions:
REMARK  status: ('A' for Active; 'I' for Inactive)
REMARK    1  A    between atoms: C_8  and  C_9
REMARK    2  A    between atoms: C_9  and  O_10
REMARK    3  A    between atoms: N_19  and  C_20
REMARK    4  A    between atoms: C_20  and  C_21
REMARK    5  A    between atoms: C_26  and  C_27
REMARK                            x       y       z     vdW  Elec       q    Type
REMARK                         _______ _______ _______ _____ _____    ______ ____
ROOT
ATOM      1  C   UNL     1       0.078  10.921  18.838  0.00  0.00    +0.000 C 
ATOM      2  C   UNL     1      -1.284  10.713  18.214  0.00  0.00    +0.000 A 
ATOM      3  C   UNL     1      -1.693   9.974  17.113  0.00  0.00    +0.000 A 
ATOM      4  C   UNL     1      -3.043  10.032  16.731  0.00  0.00    +0.000 A 
ATOM      5  C   UNL     1      -3.968  10.820  17.443  0.00  0.00    +0.000 A 
ATOM      6  C   UNL     1      -3.557  11.569  18.541  0.00  0.00    +0.000 A 
ATOM      7  C   UNL     1      -2.221  11.500  18.889  0.00  0.00    +0.000 A 
ATOM      8  C   UNL     1      -1.544  12.192  19.981  0.00  0.00    +0.000 C 
ATOM      9  O   UNL     1      -2.094  12.956  20.755  0.00  0.00    +0.000 OA
ATOM     10  N   UNL     1      -0.231  11.778  19.972  0.00  0.00    +0.000 N 
ENDROOT
BRANCH   1  18
ATOM     11  O   UNL     1       4.535   5.441  17.208  0.00  0.00    +0.000 OA
ATOM     12  C   UNL     1       3.842   6.023  18.038  0.00  0.00    +0.000 C 
ATOM     13  C   UNL     1       3.726   5.573  19.493  0.00  0.00    +0.000 C 
ATOM     14  O   UNL     1       2.642   6.030  20.286  0.00  0.00    +0.000 OA
ATOM     15  C   UNL     1       2.134   7.240  19.905  0.00  0.00    +0.000 A 
ATOM     16  C   UNL     1       1.285   7.860  20.811  0.00  0.00    +0.000 A 
ATOM     17  C   UNL     1       0.673   9.068  20.475  0.00  0.00    +0.000 A 
ATOM     18  C   UNL     1       0.880   9.680  19.217  0.00  0.00    +0.000 A 
ATOM     19  C   UNL     1       1.746   9.035  18.313  0.00  0.00    +0.000 A 
ATOM     20  C   UNL     1       2.365   7.828  18.660  0.00  0.00    +0.000 A 
ATOM     21  N   UNL     1       3.180   7.181  17.732  0.00  0.00    +0.000 N 
ATOM     22  H   UNL     1       3.292   7.534  16.790  0.00  0.00    +0.000 HD
ENDBRANCH   1  18
BRANCH   1  23
ATOM     23  O   UNL     1       0.831  11.714  17.925  0.00  0.00    +0.000 OA
ATOM     24  H   UNL     1       0.197  12.313  17.499  0.00  0.00    +0.000 HD
ENDBRANCH   1  23
BRANCH  10  25
ATOM     25  C   UNL     1       0.734  12.202  20.972  0.00  0.00    +0.000 C 
BRANCH  25  26
ATOM     26  C   UNL     1       1.524  13.417  20.523  0.00  0.00    +0.000 A 
ATOM     27  C   UNL     1       2.873  13.550  20.852  0.00  0.00    +0.000 A 
ATOM     28  C   UNL     1       3.566  14.716  20.527  0.00  0.00    +0.000 A 
ATOM     29  C   UNL     1       2.932  15.768  19.854  0.00  0.00    +0.000 A 
ATOM     30 CL   UNL     1       3.881  17.178  19.569  0.00  0.00    +0.000 Cl
ATOM     31  C   UNL     1       1.596  15.646  19.464  0.00  0.00    +0.000 A 
ATOM     32  C   UNL     1       0.915  14.451  19.790  0.00  0.00    +0.000 A 
BRANCH  31  33
ATOM     33  C   UNL     1       0.813  16.709  18.735  0.00  0.00    +0.000 C 
ATOM     34  F   UNL     1       1.385  17.227  17.618  0.00  0.00    +0.000 F 
ATOM     35  F   UNL     1      -0.414  16.261  18.340  0.00  0.00    +0.000 F 
ATOM     36  F   UNL     1       0.565  17.787  19.538  0.00  0.00    +0.000 F 
ENDBRANCH  31  33
ENDBRANCH  25  26
ENDBRANCH  10  25
TORSDOF 5
ENDMDL
MODEL 4
REMARK VINA RESULT:      -8.0      1.754      2.234
REMARK  Name = 
REMARK  5 active torsions:
REMARK  status: ('A' for Active; 'I' for Inactive)
REMARK    1  A    between atoms: C_8  and  C_9
REMARK    2  A    between atoms: C_9  and  O_10
REMARK    3  A    between atoms: N_19  and  C_20
REMARK    4  A    between atoms: C_20  and  C_21
REMARK    5  A    between atoms: C_26  and  C_27
REMARK                            x       y       z     vdW  Elec       q    Type
REMARK                         _______ _______ _______ _____ _____    ______ ____
ROOT
ATOM      1  C   UNL     1      -1.451  12.055  18.931  0.00  0.00    +0.000 C 
ATOM      2  C   UNL     1      -2.900  11.668  18.733  0.00  0.00    +0.000 A 
ATOM      3  C   UNL     1      -3.501  10.729  17.906  0.00  0.00    +0.000 A 
ATOM      4  C   UNL     1      -4.903  10.646  17.896  0.00  0.00    +0.000 A 
ATOM      5  C   UNL     1      -5.689  11.492  18.701  0.00  0.00    +0.000 A 
ATOM      6  C   UNL     1      -5.088  12.440  19.524  0.00  0.00    +0.000 A 
ATOM      7  C   UNL     1      -3.707  12.506  19.508  0.00  0.00    +0.000 A 
ATOM      8  C   UNL     1      -2.846  13.411  20.262  0.00  0.00    +0.000 C 
ATOM      9  O   UNL     1      -3.253  14.264  21.029  0.00  0.00    +0.000 OA
ATOM     10  N   UNL     1      -1.544  13.075  19.964  0.00  0.00    +0.000 N 
ENDROOT
BRANCH   1  18
ATOM     11  O   UNL     1       3.661   7.268  17.059  0.00  0.00    +0.000 OA
ATOM     12  C   UNL     1       2.934   7.747  17.926  0.00  0.00    +0.000 C 
ATOM     13  C   UNL     1       2.958   7.290  19.382  0.00  0.00    +0.000 C 
ATOM     14  O   UNL     1       1.860   7.589  20.231  0.00  0.00    +0.000 OA
ATOM     15  C   UNL     1       1.165   8.712  19.880  0.00  0.00    +0.000 A 
ATOM     16  C   UNL     1       0.282   9.207  20.830  0.00  0.00    +0.000 A 
ATOM     17  C   UNL     1      -0.514  10.313  20.530  0.00  0.00    +0.000 A 
ATOM     18  C   UNL     1      -0.461  10.943  19.265  0.00  0.00    +0.000 A 
ATOM     19  C   UNL     1       0.442  10.427  18.317  0.00  0.00    +0.000 A 
ATOM     20  C   UNL     1       1.246   9.322  18.627  0.00  0.00    +0.000 A 
ATOM     21  N   UNL     1       2.098   8.796  17.657  0.00  0.00    +0.000 N 
ATOM     22  H   UNL     1       2.111   9.159  16.712  0.00  0.00    +0.000 HD
ENDBRANCH   1  18
BRANCH   1  23
ATOM     23  O   UNL     1      -1.038  12.720  17.742  0.00  0.00    +0.000 OA
ATOM     24  H   UNL     1      -0.867  13.642  17.991  0.00  0.00    +0.000 HD
ENDBRANCH   1  23
BRANCH  10  25
ATOM     25  C   UNL     1      -0.403  13.717  20.593  0.00  0.00    +0.000 C 
BRANCH  25  26
ATOM     26  C   UNL     1       0.120  14.881  19.773  0.00  0.00    +0.000 A 
ATOM     27  C   UNL     1      -0.706  15.962  19.463  0.00  0.00    +0.000 A 
ATOM     28  C   UNL     1      -0.251  16.978  18.622  0.00  0.00    +0.000 A 
ATOM     29  C   UNL     1       1.041  16.944  18.084  0.00  0.00    +0.000 A 
ATOM     30 CL   UNL     1       1.458  18.226  17.009  0.00  0.00    +0.000 Cl
ATOM     31  C   UNL     1       1.912  15.903  18.416  0.00  0.00    +0.000 A 
ATOM     32  C   UNL     1       1.438  14.891  19.281  0.00  0.00    +0.000 A 
BRANCH  31  33
ATOM     33  C   UNL     1       3.322  15.765  17.902  0.00  0.00    +0.000 C 
ATOM     34  F   UNL     1       3.478  15.734  16.553  0.00  0.00    +0.000 F 
ATOM     35  F   UNL     1       4.128  16.777  18.337  0.00  0.00    +0.000 F 
ATOM     36  F   UNL     1       3.908  14.615  18.353  0.00  0.00    +0.000 F 
ENDBRANCH  31  33
ENDBRANCH  25  26
ENDBRANCH  10  25
TORSDOF 5
ENDMDL
MODEL 5
REMARK VINA RESULT:      -8.0      4.494      8.027
REMARK  Name = 
REMARK  5 active torsions:
REMARK  status: ('A' for Active; 'I' for Inactive)
REMARK    1  A    between atoms: C_8  and  C_9
REMARK    2  A    between atoms: C_9  and  O_10
REMARK    3  A    between atoms: N_19  and  C_20
REMARK    4  A    between atoms: C_20  and  C_21
REMARK    5  A    between atoms: C_26  and  C_27
REMARK                            x       y       z     vdW  Elec       q    Type
REMARK                         _______ _______ _______ _____ _____    ______ ____
ROOT
ATOM      1  C   UNL     1      -0.294  14.921  19.841  0.00  0.00    +0.000 C 
ATOM      2  C   UNL     1       0.878  15.829  20.139  0.00  0.00    +0.000 A 
ATOM      3  C   UNL     1       0.978  16.995  20.886  0.00  0.00    +0.000 A 
ATOM      4  C   UNL     1       2.213  17.663  20.922  0.00  0.00    +0.000 A 
ATOM      5  C   UNL     1       3.329  17.170  20.220  0.00  0.00    +0.000 A 
ATOM      6  C   UNL     1       3.228  16.006  19.464  0.00  0.00    +0.000 A 
ATOM      7  C   UNL     1       1.998  15.373  19.439  0.00  0.00    +0.000 A 
ATOM      8  C   UNL     1       1.633  14.158  18.719  0.00  0.00    +0.000 C 
ATOM      9  O   UNL     1       2.396  13.522  18.015  0.00  0.00    +0.000 OA
ATOM     10  N   UNL     1       0.321  13.880  19.033  0.00  0.00    +0.000 N 
ENDROOT
BRANCH   1  18
ATOM     11  O   UNL     1      -6.496  12.852  22.975  0.00  0.00    +0.000 OA
ATOM     12  C   UNL     1      -5.284  13.041  23.060  0.00  0.00    +0.000 C 
ATOM     13  C   UNL     1      -4.481  12.751  24.325  0.00  0.00    +0.000 C 
ATOM     14  O   UNL     1      -3.199  13.336  24.494  0.00  0.00    +0.000 OA
ATOM     15  C   UNL     1      -2.551  13.622  23.325  0.00  0.00    +0.000 A 
ATOM     16  C   UNL     1      -1.198  13.915  23.432  0.00  0.00    +0.000 A 
ATOM     17  C   UNL     1      -0.475  14.280  22.296  0.00  0.00    +0.000 A 
ATOM     18  C   UNL     1      -1.088  14.379  21.026  0.00  0.00    +0.000 A 
ATOM     19  C   UNL     1      -2.460  14.076  20.939  0.00  0.00    +0.000 A 
ATOM     20  C   UNL     1      -3.179  13.700  22.081  0.00  0.00    +0.000 A 
ATOM     21  N   UNL     1      -4.548  13.452  21.983  0.00  0.00    +0.000 N 
ATOM     22  H   UNL     1      -5.049  13.591  21.114  0.00  0.00    +0.000 HD
ENDBRANCH   1  18
BRANCH   1  23
ATOM     23  O   UNL     1      -1.163  15.645  18.976  0.00  0.00    +0.000 OA
ATOM     24  H   UNL     1      -0.747  16.510  18.834  0.00  0.00    +0.000 HD
ENDBRANCH   1  23
BRANCH  10  25
ATOM     25  C   UNL     1      -0.366  12.692  18.557  0.00  0.00    +0.000 C 
BRANCH  25  26
ATOM     26  C   UNL     1       0.157  11.428  19.213  0.00  0.00    +0.000 A 
ATOM     27  C   UNL     1       0.944  10.527  18.495  0.00  0.00    +0.000 A 
ATOM     28  C   UNL     1       1.334   9.318  19.071  0.00  0.00    +0.000 A 
ATOM     29  C   UNL     1       0.959   8.989  20.380  0.00  0.00    +0.000 A 
ATOM     30 CL   UNL     1       1.451   7.438  20.951  0.00  0.00    +0.000 Cl
ATOM     31  C   UNL     1       0.216   9.890  21.144  0.00  0.00    +0.000 A 
ATOM     32  C   UNL     1      -0.157  11.117  20.548  0.00  0.00    +0.000 A 
BRANCH  31  33
ATOM     33  C   UNL     1      -0.240   9.646  22.560  0.00  0.00    +0.000 C 
ATOM     34  F   UNL     1       0.732   9.482  23.493  0.00  0.00    +0.000 F 
ATOM     35  F   UNL     1      -1.025  10.660  23.028  0.00  0.00    +0.000 F 
ATOM     36  F   UNL     1      -1.011   8.520  22.650  0.00  0.00    +0.000 F 
ENDBRANCH  31  33
ENDBRANCH  25  26
ENDBRANCH  10  25
TORSDOF 5
ENDMDL
MODEL 6
REMARK VINA RESULT:      -8.0      1.191      1.529
REMARK  Name = 
REMARK  5 active torsions:
REMARK  status: ('A' for Active; 'I' for Inactive)
REMARK    1  A    between atoms: C_8  and  C_9
REMARK    2  A    between atoms: C_9  and  O_10
REMARK    3  A    between atoms: N_19  and  C_20
REMARK    4  A    between atoms: C_20  and  C_21
REMARK    5  A    between atoms: C_26  and  C_27
REMARK                            x       y       z     vdW  Elec       q    Type
REMARK                         _______ _______ _______ _____ _____    ______ ____
ROOT
ATOM      1  C   UNL     1       0.135  10.889  18.861  0.00  0.00    +0.000 C 
ATOM      2  C   UNL     1      -1.249  10.699  18.282  0.00  0.00    +0.000 A 
ATOM      3  C   UNL     1      -1.707   9.947  17.209  0.00  0.00    +0.000 A 
ATOM      4  C   UNL     1      -3.067  10.028  16.867  0.00  0.00    +0.000 A 
ATOM      5  C   UNL     1      -3.952  10.851  17.588  0.00  0.00    +0.000 A 
ATOM      6  C   UNL     1      -3.492  11.613  18.658  0.00  0.00    +0.000 A 
ATOM      7  C   UNL     1      -2.148  11.521  18.968  0.00  0.00    +0.000 A 
ATOM      8  C   UNL     1      -1.424  12.220  20.025  0.00  0.00    +0.000 C 
ATOM      9  O   UNL     1      -1.933  13.011  20.798  0.00  0.00    +0.000 OA
ATOM     10  N   UNL     1      -0.121  11.775  19.986  0.00  0.00    +0.000 N 
ENDROOT
BRANCH   1  18
ATOM     11  O   UNL     1       4.522   5.349  17.242  0.00  0.00    +0.000 OA
ATOM     12  C   UNL     1       3.836   5.941  18.071  0.00  0.00    +0.000 C 
ATOM     13  C   UNL     1       3.713   5.495  19.526  0.00  0.00    +0.000 C 
ATOM     14  O   UNL     1       2.634   5.967  20.318  0.00  0.00    +0.000 OA
ATOM     15  C   UNL     1       2.143   7.183  19.934  0.00  0.00    +0.000 A 
ATOM     16  C   UNL     1       1.301   7.815  20.839  0.00  0.00    +0.000 A 
ATOM     17  C   UNL     1       0.704   9.031  20.501  0.00  0.00    +0.000 A 
ATOM     18  C   UNL     1       0.920   9.638  19.243  0.00  0.00    +0.000 A 
ATOM     19  C   UNL     1       1.779   8.981  18.340  0.00  0.00    +0.000 A 
ATOM     20  C   UNL     1       2.382   7.766  18.689  0.00  0.00    +0.000 A 
ATOM     21  N   UNL     1       3.190   7.107  17.762  0.00  0.00    +0.000 N 
ATOM     22  H   UNL     1       3.307   7.458  16.820  0.00  0.00    +0.000 HD
ENDBRANCH   1  18
BRANCH   1  23
ATOM     23  O   UNL     1       0.877  11.646  17.910  0.00  0.00    +0.000 OA
ATOM     24  H   UNL     1       1.159  12.455  18.366  0.00  0.00    +0.000 HD
ENDBRANCH   1  23
BRANCH  10  25
ATOM     25  C   UNL     1       0.882  12.198  20.947  0.00  0.00    +0.000 C 
BRANCH  25  26
ATOM     26  C   UNL     1       1.651  13.416  20.471  0.00  0.00    +0.000 A 
ATOM     27  C   UNL     1       1.091  14.294  19.543  0.00  0.00    +0.000 A 
ATOM     28  C   UNL     1       1.841  15.353  19.031  0.00  0.00    +0.000 A 
ATOM     29  C   UNL     1       3.162  15.566  19.445  0.00  0.00    +0.000 A 
ATOM     30 CL   UNL     1       4.001  16.869  18.689  0.00  0.00    +0.000 Cl
ATOM     31  C   UNL     1       3.737  14.737  20.411  0.00  0.00    +0.000 A 
ATOM     32  C   UNL     1       2.955  13.679  20.929  0.00  0.00    +0.000 A 
BRANCH  31  33
ATOM     33  C   UNL     1       5.145  14.873  20.934  0.00  0.00    +0.000 C 
ATOM     34  F   UNL     1       6.146  14.751  20.025  0.00  0.00    +0.000 F 
ATOM     35  F   UNL     1       5.351  16.076  21.543  0.00  0.00    +0.000 F 
ATOM     36  F   UNL     1       5.416  13.932  21.887  0.00  0.00    +0.000 F 
ENDBRANCH  31  33
ENDBRANCH  25  26
ENDBRANCH  10  25
TORSDOF 5
ENDMDL
MODEL 7
REMARK VINA RESULT:      -8.0      3.961      7.360
REMARK  Name = 
REMARK  5 active torsions:
REMARK  status: ('A' for Active; 'I' for Inactive)
REMARK    1  A    between atoms: C_8  and  C_9
REMARK    2  A    between atoms: C_9  and  O_10
REMARK    3  A    between atoms: N_19  and  C_20
REMARK    4  A    between atoms: C_20  and  C_21
REMARK    5  A    between atoms: C_26  and  C_27
REMARK                            x       y       z     vdW  Elec       q    Type
REMARK                         _______ _______ _______ _____ _____    ______ ____
ROOT
ATOM      1  C   UNL     1      -0.862  11.793  19.696  0.00  0.00    +0.000 C 
ATOM      2  C   UNL     1      -2.316  11.797  19.280  0.00  0.00    +0.000 A 
ATOM      3  C   UNL     1      -3.417  12.483  19.775  0.00  0.00    +0.000 A 
ATOM      4  C   UNL     1      -4.677  12.221  19.212  0.00  0.00    +0.000 A 
ATOM      5  C   UNL     1      -4.830  11.286  18.171  0.00  0.00    +0.000 A 
ATOM      6  C   UNL     1      -3.728  10.591  17.681  0.00  0.00    +0.000 A 
ATOM      7  C   UNL     1      -2.502  10.862  18.259  0.00  0.00    +0.000 A 
ATOM      8  C   UNL     1      -1.210  10.264  17.937  0.00  0.00    +0.000 C 
ATOM      9  O   UNL     1      -1.042   9.411  17.085  0.00  0.00    +0.000 OA
ATOM     10  N   UNL     1      -0.269  10.879  18.733  0.00  0.00    +0.000 N 
ENDROOT
BRANCH   1  18
ATOM     11  O   UNL     1       2.995  16.784  23.271  0.00  0.00    +0.000 OA
ATOM     12  C   UNL     1       2.411  16.439  22.246  0.00  0.00    +0.000 C 
ATOM     13  C   UNL     1       2.355  17.301  20.987  0.00  0.00    +0.000 C 
ATOM     14  O   UNL     1       1.369  17.040  19.999  0.00  0.00    +0.000 OA
ATOM     15  C   UNL     1       0.941  15.742  19.958  0.00  0.00    +0.000 A 
ATOM     16  C   UNL     1       0.210  15.375  18.836  0.00  0.00    +0.000 A 
ATOM     17  C   UNL     1      -0.318  14.087  18.743  0.00  0.00    +0.000 A 
ATOM     18  C   UNL     1      -0.145  13.138  19.776  0.00  0.00    +0.000 A 
ATOM     19  C   UNL     1       0.601  13.530  20.904  0.00  0.00    +0.000 A 
ATOM     20  C   UNL     1       1.137  14.821  20.988  0.00  0.00    +0.000 A 
ATOM     21  N   UNL     1       1.831  15.205  22.135  0.00  0.00    +0.000 N 
ATOM     22  H   UNL     1       1.909  14.591  22.935  0.00  0.00    +0.000 HD
ENDBRANCH   1  18
BRANCH   1  23
ATOM     23  O   UNL     1      -0.799  11.144  20.962  0.00  0.00    +0.000 OA
ATOM     24  H   UNL     1      -0.373  11.771  21.569  0.00  0.00    +0.000 HD
ENDBRANCH   1  23
BRANCH  10  25
ATOM     25  C   UNL     1       1.151  10.592  18.634  0.00  0.00    +0.000 C 
BRANCH  25  26
ATOM     26  C   UNL     1       1.479   9.175  19.063  0.00  0.00    +0.000 A 
ATOM     27  C   UNL     1       1.003   8.669  20.274  0.00  0.00    +0.000 A 
ATOM     28  C   UNL     1       1.393   7.404  20.711  0.00  0.00    +0.000 A 
ATOM     29  C   UNL     1       2.255   6.610  19.945  0.00  0.00    +0.000 A 
ATOM     30 CL   UNL     1       2.711   5.094  20.627  0.00  0.00    +0.000 Cl
ATOM     31  C   UNL     1       2.709   7.064  18.704  0.00  0.00    +0.000 A 
ATOM     32  C   UNL     1       2.291   8.343  18.272  0.00  0.00    +0.000 A 
BRANCH  31  33
ATOM     33  C   UNL     1       3.635   6.297  17.794  0.00  0.00    +0.000 C 
ATOM     34  F   UNL     1       4.803   5.868  18.336  0.00  0.00    +0.000 F 
ATOM     35  F   UNL     1       3.041   5.181  17.281  0.00  0.00    +0.000 F 
ATOM     36  F   UNL     1       4.001   7.044  16.709  0.00  0.00    +0.000 F 
ENDBRANCH  31  33
ENDBRANCH  25  26
ENDBRANCH  10  25
TORSDOF 5
ENDMDL
MODEL 8
REMARK VINA RESULT:      -7.9      4.283      7.892
REMARK  Name = 
REMARK  5 active torsions:
REMARK  status: ('A' for Active; 'I' for Inactive)
REMARK    1  A    between atoms: C_8  and  C_9
REMARK    2  A    between atoms: C_9  and  O_10
REMARK    3  A    between atoms: N_19  and  C_20
REMARK    4  A    between atoms: C_20  and  C_21
REMARK    5  A    between atoms: C_26  and  C_27
REMARK                            x       y       z     vdW  Elec       q    Type
REMARK                         _______ _______ _______ _____ _____    ______ ____
ROOT
ATOM      1  C   UNL     1      -0.867  12.445  19.082  0.00  0.00    +0.000 C 
ATOM      2  C   UNL     1      -0.375  13.736  19.697  0.00  0.00    +0.000 A 
ATOM      3  C   UNL     1      -0.634  15.064  19.388  0.00  0.00    +0.000 A 
ATOM      4  C   UNL     1       0.039  16.063  20.111  0.00  0.00    +0.000 A 
ATOM      5  C   UNL     1       0.958  15.734  21.126  0.00  0.00    +0.000 A 
ATOM      6  C   UNL     1       1.226  14.403  21.430  0.00  0.00    +0.000 A 
ATOM      7  C   UNL     1       0.556  13.440  20.696  0.00  0.00    +0.000 A 
ATOM      8  C   UNL     1       0.668  11.990  20.811  0.00  0.00    +0.000 C 
ATOM      9  O   UNL     1       1.402  11.419  21.598  0.00  0.00    +0.000 OA
ATOM     10  N   UNL     1      -0.224  11.442  19.917  0.00  0.00    +0.000 N 
ENDROOT
BRANCH   1  18
ATOM     11  O   UNL     1      -7.569  12.448  21.845  0.00  0.00    +0.000 OA
ATOM     12  C   UNL     1      -6.824  12.248  20.889  0.00  0.00    +0.000 C 
ATOM     13  C   UNL     1      -7.327  11.803  19.517  0.00  0.00    +0.000 C 
ATOM     14  O   UNL     1      -6.422  11.225  18.590  0.00  0.00    +0.000 OA
ATOM     15  C   UNL     1      -5.124  11.625  18.743  0.00  0.00    +0.000 A 
ATOM     16  C   UNL     1      -4.264  11.325  17.695  0.00  0.00    +0.000 A 
ATOM     17  C   UNL     1      -2.909  11.642  17.797  0.00  0.00    +0.000 A 
ATOM     18  C   UNL     1      -2.375  12.250  18.955  0.00  0.00    +0.000 A 
ATOM     19  C   UNL     1      -3.264  12.547  20.006  0.00  0.00    +0.000 A 
ATOM     20  C   UNL     1      -4.625  12.236  19.894  0.00  0.00    +0.000 A 
ATOM     21  N   UNL     1      -5.481  12.493  20.966  0.00  0.00    +0.000 N 
ATOM     22  H   UNL     1      -5.131  12.849  21.846  0.00  0.00    +0.000 HD
ENDBRANCH   1  18
BRANCH   1  23
ATOM     23  O   UNL     1      -0.264  12.347  17.795  0.00  0.00    +0.000 OA
ATOM     24  H   UNL     1      -0.411  13.203  17.360  0.00  0.00    +0.000 HD
ENDBRANCH   1  23
BRANCH  10  25
ATOM     25  C   UNL     1      -0.445  10.011  19.805  0.00  0.00    +0.000 C 
BRANCH  25  26
ATOM     26  C   UNL     1       0.762   9.290  19.234  0.00  0.00    +0.000 A 
ATOM     27  C   UNL     1       1.459   9.819  18.148  0.00  0.00    +0.000 A 
ATOM     28  C   UNL     1       2.502   9.101  17.562  0.00  0.00    +0.000 A 
ATOM     29  C   UNL     1       2.879   7.846  18.055  0.00  0.00    +0.000 A 
ATOM     30 CL   UNL     1       4.139   7.034  17.202  0.00  0.00    +0.000 Cl
ATOM     31  C   UNL     1       2.236   7.310  19.173  0.00  0.00    +0.000 A 
ATOM     32  C   UNL     1       1.192   8.059  19.761  0.00  0.00    +0.000 A 
BRANCH  31  33
ATOM     33  C   UNL     1       2.558   5.973  19.792  0.00  0.00    +0.000 C 
ATOM     34  F   UNL     1       3.868   5.719  20.044  0.00  0.00    +0.000 F 
ATOM     35  F   UNL     1       1.917   5.792  20.982  0.00  0.00    +0.000 F 
ATOM     36  F   UNL     1       2.145   4.941  18.996  0.00  0.00    +0.000 F 
ENDBRANCH  31  33
ENDBRANCH  25  26
ENDBRANCH  10  25
TORSDOF 5
ENDMDL
MODEL 9
REMARK VINA RESULT:      -7.9      4.087      7.278
REMARK  Name = 
REMARK  5 active torsions:
REMARK  status: ('A' for Active; 'I' for Inactive)
REMARK    1  A    between atoms: C_8  and  C_9
REMARK    2  A    between atoms: C_9  and  O_10
REMARK    3  A    between atoms: N_19  and  C_20
REMARK    4  A    between atoms: C_20  and  C_21
REMARK    5  A    between atoms: C_26  and  C_27
REMARK                            x       y       z     vdW  Elec       q    Type
REMARK                         _______ _______ _______ _____ _____    ______ ____
ROOT
ATOM      1  C   UNL     1       0.337  11.796  19.752  0.00  0.00    +0.000 C 
ATOM      2  C   UNL     1      -1.143  12.109  19.738  0.00  0.00    +0.000 A 
ATOM      3  C   UNL     1      -1.911  12.974  20.505  0.00  0.00    +0.000 A 
ATOM      4  C   UNL     1      -3.300  12.996  20.299  0.00  0.00    +0.000 A 
ATOM      5  C   UNL     1      -3.909  12.163  19.341  0.00  0.00    +0.000 A 
ATOM      6  C   UNL     1      -3.140  11.289  18.578  0.00  0.00    +0.000 A 
ATOM      7  C   UNL     1      -1.776  11.281  18.808  0.00  0.00    +0.000 A 
ATOM      8  C   UNL     1      -0.764  10.457  18.155  0.00  0.00    +0.000 C 
ATOM      9  O   UNL     1      -1.004   9.631  17.293  0.00  0.00    +0.000 OA
ATOM     10  N   UNL     1       0.457  10.832  18.669  0.00  0.00    +0.000 N 
ENDROOT
BRANCH   1  18
ATOM     11  O   UNL     1       5.817  15.839  22.236  0.00  0.00    +0.000 OA
ATOM     12  C   UNL     1       4.962  15.638  21.377  0.00  0.00    +0.000 C 
ATOM     13  C   UNL     1       4.801  16.514  20.137  0.00  0.00    +0.000 C 
ATOM     14  O   UNL     1       3.588  16.476  19.402  0.00  0.00    +0.000 OA
ATOM     15  C   UNL     1       2.910  15.293  19.493  0.00  0.00    +0.000 A 
ATOM     16  C   UNL     1       1.888  15.101  18.573  0.00  0.00    +0.000 A 
ATOM     17  C   UNL     1       1.104  13.948  18.636  0.00  0.00    +0.000 A 
ATOM     18  C   UNL     1       1.309  12.966  19.631  0.00  0.00    +0.000 A 
ATOM     19  C   UNL     1       2.351  13.179  20.554  0.00  0.00    +0.000 A 
ATOM     20  C   UNL     1       3.141  14.333  20.480  0.00  0.00    +0.000 A 
ATOM     21  N   UNL     1       4.136  14.549  21.433  0.00  0.00    +0.000 N 
ATOM     22  H   UNL     1       4.266  13.917  22.213  0.00  0.00    +0.000 HD
ENDBRANCH   1  18
BRANCH   1  23
ATOM     23  O   UNL     1       0.595  11.084  20.958  0.00  0.00    +0.000 OA
ATOM     24  H   UNL     1       1.427  11.438  21.311  0.00  0.00    +0.000 HD
ENDBRANCH   1  23
BRANCH  10  25
ATOM     25  C   UNL     1       1.712  10.274  18.197  0.00  0.00    +0.000 C 
BRANCH  25  26
ATOM     26  C   UNL     1       1.932   8.859  18.695  0.00  0.00    +0.000 A 
ATOM     27  C   UNL     1       1.434   8.455  19.934  0.00  0.00    +0.000 A 
ATOM     28  C   UNL     1       1.728   7.185  20.433  0.00  0.00    +0.000 A 
ATOM     29  C   UNL     1       2.513   6.288  19.699  0.00  0.00    +0.000 A 
ATOM     30 CL   UNL     1       2.857   4.776  20.454  0.00  0.00    +0.000 Cl
ATOM     31  C   UNL     1       2.984   6.640  18.433  0.00  0.00    +0.000 A 
ATOM     32  C   UNL     1       2.663   7.926  17.939  0.00  0.00    +0.000 A 
BRANCH  31  33
ATOM     33  C   UNL     1       3.833   5.757  17.554  0.00  0.00    +0.000 C 
ATOM     34  F   UNL     1       3.263   4.604  17.119  0.00  0.00    +0.000 F 
ATOM     35  F   UNL     1       4.250   6.404  16.427  0.00  0.00    +0.000 F 
ATOM     36  F   UNL     1       4.977   5.368  18.193  0.00  0.00    +0.000 F 
ENDBRANCH  31  33
ENDBRANCH  25  26
ENDBRANCH  10  25
TORSDOF 5
ENDMDL
