MODEL 1
REMARK VINA RESULT:      -7.5      0.000      0.000
REMARK  Name = 
REMARK  5 active torsions:
REMARK  status: ('A' for Active; 'I' for Inactive)
REMARK    1  A    between atoms: C_1  and  N_2
REMARK    2  A    between atoms: C_8  and  N_9
REMARK    3  A    between atoms: C_10  and  C_11
REMARK    4  A    between atoms: N_13  and  C_14
REMARK    5  A    between atoms: C_14  and  C_15
REMARK                            x       y       z     vdW  Elec       q    Type
REMARK                         _______ _______ _______ _____ _____    ______ ____
ROOT
ATOM      1  C   UNL     1       1.487   2.180  19.283  0.00  0.00    +0.000 C 
ATOM      2  N   UNL     1       2.274   2.517  20.491  0.00  0.00    +0.000 NA
ATOM      3  C   UNL     1       1.761   3.705  21.203  0.00  0.00    +0.000 C 
ATOM      4  C   UNL     1       1.707   4.946  20.290  0.00  0.00    +0.000 C 
ATOM      5  C   UNL     1       2.980   5.090  19.483  0.00  0.00    +0.000 A 
ATOM      6  C   UNL     1       3.913   4.050  19.484  0.00  0.00    +0.000 A 
ATOM      7  S   UNL     1       5.261   4.477  18.602  0.00  0.00    +0.000 S 
ATOM      8  C   UNL     1       4.677   5.987  18.156  0.00  0.00    +0.000 A 
ATOM      9  C   UNL     1       3.392   6.213  18.705  0.00  0.00    +0.000 A 
ATOM     10  C   UNL     1       3.699   2.716  20.148  0.00  0.00    +0.000 C 
ENDROOT
BRANCH   9  11
ATOM     11  C   UNL     1       2.619   7.492  18.509  0.00  0.00    +0.000 C 
ATOM     12  O   UNL     1       2.638   8.023  17.411  0.00  0.00    +0.000 OA
ATOM     13  N   UNL     1       1.883   8.069  19.509  0.00  0.00    +0.000 N 
ATOM     14  H   UNL     1       1.781   7.606  20.412  0.00  0.00    +0.000 HD
BRANCH  13  15
ATOM     15  C   UNL     1       1.177   9.328  19.368  0.00  0.00    +0.000 C 
BRANCH  15  16
ATOM     16  C   UNL     1       0.487   9.698  20.656  0.00  0.00    +0.000 A 
ATOM     17  C   UNL     1       0.637   8.903  21.807  0.00  0.00    +0.000 A 
ATOM     18  C   UNL     1       0.007   9.266  23.002  0.00  0.00    +0.000 A 
ATOM     19  C   UNL     1      -0.775  10.423  23.059  0.00  0.00    +0.000 A 
ATOM     20  C   UNL     1      -0.933  11.217  21.919  0.00  0.00    +0.000 A 
ATOM     21 CL   UNL     1      -1.911  12.671  21.992  0.00  0.00    +0.000 Cl
ATOM     22  C   UNL     1      -0.305  10.856  20.721  0.00  0.00    +0.000 A 
ENDBRANCH  15  16
ENDBRANCH  13  15
ENDBRANCH   9  11
BRANCH   8  23
ATOM     23  N   UNL     1       5.412   6.845  17.301  0.00  0.00    +0.000 N 
ATOM     24  H   UNL     1       5.746   7.750  17.662  0.00  0.00    +0.000 HD
ATOM     25  H   UNL     1       5.687   6.577  16.350  0.00  0.00    +0.000 HD
ENDBRANCH   8  23
TORSDOF 4
ENDMDL
MODEL 2
REMARK VINA RESULT:      -7.1      1.814      3.847
REMARK  Name = 
REMARK  5 active torsions:
REMARK  status: ('A' for Active; 'I' for Inactive)
REMARK    1  A    between atoms: C_1  and  N_2
REMARK    2  A    between atoms: C_8  and  N_9
REMARK    3  A    between atoms: C_10  and  C_11
REMARK    4  A    between atoms: N_13  and  C_14
REMARK    5  A    between atoms: C_14  and  C_15
REMARK                            x       y       z     vdW  Elec       q    Type
REMARK                         _______ _______ _______ _____ _____    ______ ____
ROOT
ATOM      1  C   UNL     1       6.953   5.688  17.557  0.00  0.00    +0.000 C 
ATOM      2  N   UNL     1       6.027   5.561  16.410  0.00  0.00    +0.000 NA
ATOM      3  C   UNL     1       4.948   6.570  16.422  0.00  0.00    +0.000 C 
ATOM      4  C   UNL     1       4.126   6.519  17.725  0.00  0.00    +0.000 C 
ATOM      5  C   UNL     1       3.777   5.094  18.098  0.00  0.00    +0.000 A 
ATOM      6  C   UNL     1       4.369   4.038  17.402  0.00  0.00    +0.000 A 
ATOM      7  S   UNL     1       3.763   2.579  17.931  0.00  0.00    +0.000 S 
ATOM      8  C   UNL     1       2.756   3.249  19.097  0.00  0.00    +0.000 A 
ATOM      9  C   UNL     1       2.855   4.660  19.097  0.00  0.00    +0.000 A 
ATOM     10  C   UNL     1       5.441   4.204  16.358  0.00  0.00    +0.000 C 
ENDROOT
BRANCH   9  11
ATOM     11  C   UNL     1       2.048   5.548  20.011  0.00  0.00    +0.000 C 
ATOM     12  O   UNL     1       1.082   5.072  20.584  0.00  0.00    +0.000 OA
ATOM     13  N   UNL     1       2.370   6.859  20.236  0.00  0.00    +0.000 N 
ATOM     14  H   UNL     1       3.217   7.262  19.836  0.00  0.00    +0.000 HD
BRANCH  13  15
ATOM     15  C   UNL     1       1.582   7.754  21.062  0.00  0.00    +0.000 C 
BRANCH  15  16
ATOM     16  C   UNL     1       1.033   8.892  20.240  0.00  0.00    +0.000 A 
ATOM     17  C   UNL     1       1.456   9.090  18.913  0.00  0.00    +0.000 A 
ATOM     18  C   UNL     1       0.927  10.139  18.154  0.00  0.00    +0.000 A 
ATOM     19  C   UNL     1      -0.027  10.996  18.710  0.00  0.00    +0.000 A 
ATOM     20  C   UNL     1      -0.450  10.809  20.030  0.00  0.00    +0.000 A 
ATOM     21 CL   UNL     1      -1.651  11.882  20.726  0.00  0.00    +0.000 Cl
ATOM     22  C   UNL     1       0.078   9.761  20.793  0.00  0.00    +0.000 A 
ENDBRANCH  15  16
ENDBRANCH  13  15
ENDBRANCH   9  11
BRANCH   8  23
ATOM     23  N   UNL     1       1.977   2.438  19.959  0.00  0.00    +0.000 N 
ATOM     24  H   UNL     1       2.402   2.065  20.819  0.00  0.00    +0.000 HD
ATOM     25  H   UNL     1       0.979   2.259  19.801  0.00  0.00    +0.000 HD
ENDBRANCH   8  23
TORSDOF 4
ENDMDL
MODEL 3
REMARK VINA RESULT:      -7.0      1.145      1.599
REMARK  Name = 
REMARK  5 active torsions:
REMARK  status: ('A' for Active; 'I' for Inactive)
REMARK    1  A    between atoms: C_1  and  N_2
REMARK    2  A    between atoms: C_8  and  N_9
REMARK    3  A    between atoms: C_10  and  C_11
REMARK    4  A    between atoms: N_13  and  C_14
REMARK    5  A    between atoms: C_14  and  C_15
REMARK                            x       y       z     vdW  Elec       q    Type
REMARK                         _______ _______ _______ _____ _____    ______ ____
ROOT
ATOM      1  C   UNL     1       1.297   2.252  18.863  0.00  0.00    +0.000 C 
ATOM      2  N   UNL     1       1.806   2.646  20.196  0.00  0.00    +0.000 NA
ATOM      3  C   UNL     1       1.214   3.905  20.693  0.00  0.00    +0.000 C 
ATOM      4  C   UNL     1       1.439   5.075  19.714  0.00  0.00    +0.000 C 
ATOM      5  C   UNL     1       2.869   5.105  19.215  0.00  0.00    +0.000 A 
ATOM      6  C   UNL     1       3.716   4.031  19.498  0.00  0.00    +0.000 A 
ATOM      7  S   UNL     1       5.252   4.335  18.925  0.00  0.00    +0.000 S 
ATOM      8  C   UNL     1       4.871   5.830  18.260  0.00  0.00    +0.000 A 
ATOM      9  C   UNL     1       3.510   6.148  18.483  0.00  0.00    +0.000 A 
ATOM     10  C   UNL     1       3.281   2.761  20.179  0.00  0.00    +0.000 C 
ENDROOT
BRANCH   9  11
ATOM     11  C   UNL     1       2.876   7.440  18.031  0.00  0.00    +0.000 C 
ATOM     12  O   UNL     1       3.100   7.836  16.900  0.00  0.00    +0.000 OA
ATOM     13  N   UNL     1       2.043   8.172  18.835  0.00  0.00    +0.000 N 
ATOM     14  H   UNL     1       1.772   7.825  19.755  0.00  0.00    +0.000 HD
BRANCH  13  15
ATOM     15  C   UNL     1       1.466   9.445  18.451  0.00  0.00    +0.000 C 
BRANCH  15  16
ATOM     16  C   UNL     1       0.669  10.033  19.588  0.00  0.00    +0.000 A 
ATOM     17  C   UNL     1      -0.222  11.098  19.366  0.00  0.00    +0.000 A 
ATOM     18  C   UNL     1      -0.970  11.624  20.426  0.00  0.00    +0.000 A 
ATOM     19  C   UNL     1      -0.837  11.090  21.711  0.00  0.00    +0.000 A 
ATOM     20  C   UNL     1       0.049  10.033  21.941  0.00  0.00    +0.000 A 
ATOM     21 CL   UNL     1       0.213   9.361  23.553  0.00  0.00    +0.000 Cl
ATOM     22  C   UNL     1       0.801   9.506  20.884  0.00  0.00    +0.000 A 
ENDBRANCH  15  16
ENDBRANCH  13  15
ENDBRANCH   9  11
BRANCH   8  23
ATOM     23  N   UNL     1       5.828   6.590  17.544  0.00  0.00    +0.000 N 
ATOM     24  H   UNL     1       5.596   6.932  16.601  0.00  0.00    +0.000 HD
ATOM     25  H   UNL     1       6.726   6.876  17.951  0.00  0.00    +0.000 HD
ENDBRANCH   8  23
TORSDOF 4
ENDMDL
MODEL 4
REMARK VINA RESULT:      -6.8      1.535      2.037
REMARK  Name = 
REMARK  5 active torsions:
REMARK  status: ('A' for Active; 'I' for Inactive)
REMARK    1  A    between atoms: C_1  and  N_2
REMARK    2  A    between atoms: C_8  and  N_9
REMARK    3  A    between atoms: C_10  and  C_11
REMARK    4  A    between atoms: N_13  and  C_14
REMARK    5  A    between atoms: C_14  and  C_15
REMARK                            x       y       z     vdW  Elec       q    Type
REMARK                         _______ _______ _______ _____ _____    ______ ____
ROOT
ATOM      1  C   UNL     1       0.670   2.962  19.968  0.00  0.00    +0.000 C 
ATOM      2  N   UNL     1       1.915   2.983  20.769  0.00  0.00    +0.000 NA
ATOM      3  C   UNL     1       2.219   4.315  21.331  0.00  0.00    +0.000 C 
ATOM      4  C   UNL     1       2.321   5.395  20.235  0.00  0.00    +0.000 C 
ATOM      5  C   UNL     1       3.145   4.908  19.062  0.00  0.00    +0.000 A 
ATOM      6  C   UNL     1       3.519   3.564  18.997  0.00  0.00    +0.000 A 
ATOM      7  S   UNL     1       4.490   3.294  17.669  0.00  0.00    +0.000 S 
ATOM      8  C   UNL     1       4.428   4.877  17.112  0.00  0.00    +0.000 A 
ATOM      9  C   UNL     1       3.643   5.683  17.971  0.00  0.00    +0.000 A 
ATOM     10  C   UNL     1       3.062   2.507  19.966  0.00  0.00    +0.000 C 
ENDROOT
BRANCH   9  11
ATOM     11  C   UNL     1       3.424   7.159  17.754  0.00  0.00    +0.000 C 
ATOM     12  O   UNL     1       4.359   7.835  17.356  0.00  0.00    +0.000 OA
ATOM     13  N   UNL     1       2.215   7.763  17.967  0.00  0.00    +0.000 N 
ATOM     14  H   UNL     1       1.396   7.212  18.221  0.00  0.00    +0.000 HD
BRANCH  13  15
ATOM     15  C   UNL     1       1.989   9.189  17.824  0.00  0.00    +0.000 C 
BRANCH  15  16
ATOM     16  C   UNL     1       1.009   9.679  18.860  0.00  0.00    +0.000 A 
ATOM     17  C   UNL     1      -0.071  10.502  18.495  0.00  0.00    +0.000 A 
ATOM     18  C   UNL     1      -0.985  10.937  19.461  0.00  0.00    +0.000 A 
ATOM     19  C   UNL     1      -0.828  10.553  20.796  0.00  0.00    +0.000 A 
ATOM     20  C   UNL     1       0.245   9.738  21.169  0.00  0.00    +0.000 A 
ATOM     21 CL   UNL     1       0.438   9.253  22.843  0.00  0.00    +0.000 Cl
ATOM     22  C   UNL     1       1.162   9.302  20.204  0.00  0.00    +0.000 A 
ENDBRANCH  15  16
ENDBRANCH  13  15
ENDBRANCH   9  11
BRANCH   8  23
ATOM     23  N   UNL     1       5.063   5.266  15.907  0.00  0.00    +0.000 N 
ATOM     24  H   UNL     1       5.127   4.592  15.132  0.00  0.00    +0.000 HD
ATOM     25  H   UNL     1       5.407   6.219  15.744  0.00  0.00    +0.000 HD
ENDBRANCH   8  23
TORSDOF 4
ENDMDL
MODEL 5
REMARK VINA RESULT:      -6.8      1.147      1.325
REMARK  Name = 
REMARK  5 active torsions:
REMARK  status: ('A' for Active; 'I' for Inactive)
REMARK    1  A    between atoms: C_1  and  N_2
REMARK    2  A    between atoms: C_8  and  N_9
REMARK    3  A    between atoms: C_10  and  C_11
REMARK    4  A    between atoms: N_13  and  C_14
REMARK    5  A    between atoms: C_14  and  C_15
REMARK                            x       y       z     vdW  Elec       q    Type
REMARK                         _______ _______ _______ _____ _____    ______ ____
ROOT
ATOM      1  C   UNL     1       0.718   2.805  19.673  0.00  0.00    +0.000 C 
ATOM      2  N   UNL     1       1.939   2.848  20.509  0.00  0.00    +0.000 NA
ATOM      3  C   UNL     1       2.140   4.152  21.174  0.00  0.00    +0.000 C 
ATOM      4  C   UNL     1       2.198   5.312  20.160  0.00  0.00    +0.000 C 
ATOM      5  C   UNL     1       3.081   4.966  18.980  0.00  0.00    +0.000 A 
ATOM      6  C   UNL     1       3.544   3.657  18.831  0.00  0.00    +0.000 A 
ATOM      7  S   UNL     1       4.563   3.547  17.516  0.00  0.00    +0.000 S 
ATOM      8  C   UNL     1       4.410   5.159  17.071  0.00  0.00    +0.000 A 
ATOM      9  C   UNL     1       3.553   5.848  17.962  0.00  0.00    +0.000 A 
ATOM     10  C   UNL     1       3.135   2.505  19.709  0.00  0.00    +0.000 C 
ENDROOT
BRANCH   9  11
ATOM     11  C   UNL     1       3.243   7.319  17.844  0.00  0.00    +0.000 C 
ATOM     12  O   UNL     1       4.156   8.091  17.603  0.00  0.00    +0.000 OA
ATOM     13  N   UNL     1       1.975   7.817  17.977  0.00  0.00    +0.000 N 
ATOM     14  H   UNL     1       1.180   7.190  18.097  0.00  0.00    +0.000 HD
BRANCH  13  15
ATOM     15  C   UNL     1       1.654   9.231  17.927  0.00  0.00    +0.000 C 
BRANCH  15  16
ATOM     16  C   UNL     1       0.901   9.650  19.164  0.00  0.00    +0.000 A 
ATOM     17  C   UNL     1       1.093   8.978  20.384  0.00  0.00    +0.000 A 
ATOM     18  C   UNL     1       0.403   9.387  21.531  0.00  0.00    +0.000 A 
ATOM     19  C   UNL     1      -0.482  10.467  21.468  0.00  0.00    +0.000 A 
ATOM     20  C   UNL     1      -0.682  11.138  20.258  0.00  0.00    +0.000 A 
ATOM     21 CL   UNL     1      -1.789  12.497  20.181  0.00  0.00    +0.000 Cl
ATOM     22  C   UNL     1       0.006  10.731  19.108  0.00  0.00    +0.000 A 
ENDBRANCH  15  16
ENDBRANCH  13  15
ENDBRANCH   9  11
BRANCH   8  23
ATOM     23  N   UNL     1       5.048   5.675  15.916  0.00  0.00    +0.000 N 
ATOM     24  H   UNL     1       4.875   5.228  15.005  0.00  0.00    +0.000 HD
ATOM     25  H   UNL     1       5.626   6.522  15.933  0.00  0.00    +0.000 HD
ENDBRANCH   8  23
TORSDOF 4
ENDMDL
MODEL 6
REMARK VINA RESULT:      -6.7      5.874      8.787
REMARK  Name = 
REMARK  5 active torsions:
REMARK  status: ('A' for Active; 'I' for Inactive)
REMARK    1  A    between atoms: C_1  and  N_2
REMARK    2  A    between atoms: C_8  and  N_9
REMARK    3  A    between atoms: C_10  and  C_11
REMARK    4  A    between atoms: N_13  and  C_14
REMARK    5  A    between atoms: C_14  and  C_15
REMARK                            x       y       z     vdW  Elec       q    Type
REMARK                         _______ _______ _______ _____ _____    ______ ____
ROOT
ATOM      1  C   UNL     1       3.618   1.448  18.311  0.00  0.00    +0.000 C 
ATOM      2  N   UNL     1       2.772   2.617  18.642  0.00  0.00    +0.000 NA
ATOM      3  C   UNL     1       2.296   3.345  17.448  0.00  0.00    +0.000 C 
ATOM      4  C   UNL     1       3.463   3.818  16.558  0.00  0.00    +0.000 C 
ATOM      5  C   UNL     1       4.565   4.445  17.386  0.00  0.00    +0.000 A 
ATOM      6  C   UNL     1       4.518   4.345  18.778  0.00  0.00    +0.000 A 
ATOM      7  S   UNL     1       5.783   5.185  19.465  0.00  0.00    +0.000 S 
ATOM      8  C   UNL     1       6.456   5.666  18.003  0.00  0.00    +0.000 A 
ATOM      9  C   UNL     1       5.689   5.188  16.914  0.00  0.00    +0.000 A 
ATOM     10  C   UNL     1       3.493   3.547  19.539  0.00  0.00    +0.000 C 
ENDROOT
BRANCH   9  11
ATOM     11  C   UNL     1       6.021   5.481  15.473  0.00  0.00    +0.000 C 
ATOM     12  O   UNL     1       5.539   6.474  14.954  0.00  0.00    +0.000 OA
ATOM     13  N   UNL     1       6.857   4.689  14.734  0.00  0.00    +0.000 N 
ATOM     14  H   UNL     1       7.338   3.899  15.163  0.00  0.00    +0.000 HD
BRANCH  13  15
ATOM     15  C   UNL     1       7.148   4.911  13.331  0.00  0.00    +0.000 C 
BRANCH  15  16
ATOM     16  C   UNL     1       6.588   3.795  12.486  0.00  0.00    +0.000 A 
ATOM     17  C   UNL     1       7.421   2.766  12.011  0.00  0.00    +0.000 A 
ATOM     18  C   UNL     1       6.886   1.725  11.244  0.00  0.00    +0.000 A 
ATOM     19  C   UNL     1       5.521   1.702  10.947  0.00  0.00    +0.000 A 
ATOM     20  C   UNL     1       4.687   2.723  11.412  0.00  0.00    +0.000 A 
ATOM     21 CL   UNL     1       2.972   2.692  11.043  0.00  0.00    +0.000 Cl
ATOM     22  C   UNL     1       5.218   3.768  12.179  0.00  0.00    +0.000 A 
ENDBRANCH  15  16
ENDBRANCH  13  15
ENDBRANCH   9  11
BRANCH   8  23
ATOM     23  N   UNL     1       7.660   6.410  17.949  0.00  0.00    +0.000 N 
ATOM     24  H   UNL     1       8.362   6.286  18.692  0.00  0.00    +0.000 HD
ATOM     25  H   UNL     1       7.898   7.023  17.162  0.00  0.00    +0.000 HD
ENDBRANCH   8  23
TORSDOF 4
ENDMDL
MODEL 7
REMARK VINA RESULT:      -6.7      1.515      3.334
REMARK  Name = 
REMARK  5 active torsions:
REMARK  status: ('A' for Active; 'I' for Inactive)
REMARK    1  A    between atoms: C_1  and  N_2
REMARK    2  A    between atoms: C_8  and  N_9
REMARK    3  A    between atoms: C_10  and  C_11
REMARK    4  A    between atoms: N_13  and  C_14
REMARK    5  A    between atoms: C_14  and  C_15
REMARK                            x       y       z     vdW  Elec       q    Type
REMARK                         _______ _______ _______ _____ _____    ______ ____
ROOT
ATOM      1  C   UNL     1       7.851   6.391  18.572  0.00  0.00    +0.000 C 
ATOM      2  N   UNL     1       7.353   5.574  17.443  0.00  0.00    +0.000 NA
ATOM      3  C   UNL     1       6.596   6.360  16.447  0.00  0.00    +0.000 C 
ATOM      4  C   UNL     1       5.401   7.099  17.084  0.00  0.00    +0.000 C 
ATOM      5  C   UNL     1       4.628   6.190  18.016  0.00  0.00    +0.000 A 
ATOM      6  C   UNL     1       5.156   4.940  18.349  0.00  0.00    +0.000 A 
ATOM      7  S   UNL     1       4.088   4.094  19.309  0.00  0.00    +0.000 S 
ATOM      8  C   UNL     1       2.937   5.316  19.365  0.00  0.00    +0.000 A 
ATOM      9  C   UNL     1       3.354   6.437  18.609  0.00  0.00    +0.000 A 
ATOM     10  C   UNL     1       6.519   4.455  17.934  0.00  0.00    +0.000 C 
ENDROOT
BRANCH   9  11
ATOM     11  C   UNL     1       2.521   7.683  18.442  0.00  0.00    +0.000 C 
ATOM     12  O   UNL     1       2.418   8.172  17.329  0.00  0.00    +0.000 OA
ATOM     13  N   UNL     1       1.860   8.273  19.486  0.00  0.00    +0.000 N 
ATOM     14  H   UNL     1       1.860   7.842  20.410  0.00  0.00    +0.000 HD
BRANCH  13  15
ATOM     15  C   UNL     1       1.100   9.502  19.368  0.00  0.00    +0.000 C 
BRANCH  15  16
ATOM     16  C   UNL     1       0.400   9.821  20.665  0.00  0.00    +0.000 A 
ATOM     17  C   UNL     1       0.083   8.802  21.580  0.00  0.00    +0.000 A 
ATOM     18  C   UNL     1      -0.550   9.112  22.789  0.00  0.00    +0.000 A 
ATOM     19  C   UNL     1      -0.871  10.438  23.093  0.00  0.00    +0.000 A 
ATOM     20  C   UNL     1      -0.563  11.457  22.186  0.00  0.00    +0.000 A 
ATOM     21 CL   UNL     1      -0.960  13.122  22.570  0.00  0.00    +0.000 Cl
ATOM     22  C   UNL     1       0.070  11.151  20.975  0.00  0.00    +0.000 A 
ENDBRANCH  15  16
ENDBRANCH  13  15
ENDBRANCH   9  11
BRANCH   8  23
ATOM     23  N   UNL     1       1.751   5.185  20.130  0.00  0.00    +0.000 N 
ATOM     24  H   UNL     1       0.843   5.138  19.646  0.00  0.00    +0.000 HD
ATOM     25  H   UNL     1       1.758   5.067  21.149  0.00  0.00    +0.000 HD
ENDBRANCH   8  23
TORSDOF 4
ENDMDL
MODEL 8
REMARK VINA RESULT:      -6.6      5.046      8.095
REMARK  Name = 
REMARK  5 active torsions:
REMARK  status: ('A' for Active; 'I' for Inactive)
REMARK    1  A    between atoms: C_1  and  N_2
REMARK    2  A    between atoms: C_8  and  N_9
REMARK    3  A    between atoms: C_10  and  C_11
REMARK    4  A    between atoms: N_13  and  C_14
REMARK    5  A    between atoms: C_14  and  C_15
REMARK                            x       y       z     vdW  Elec       q    Type
REMARK                         _______ _______ _______ _____ _____    ______ ____
ROOT
ATOM      1  C   UNL     1       2.311   2.932  21.658  0.00  0.00    +0.000 C 
ATOM      2  N   UNL     1       1.566   2.608  20.421  0.00  0.00    +0.000 NA
ATOM      3  C   UNL     1       2.411   1.981  19.383  0.00  0.00    +0.000 C 
ATOM      4  C   UNL     1       3.619   2.865  19.013  0.00  0.00    +0.000 C 
ATOM      5  C   UNL     1       3.205   4.309  18.823  0.00  0.00    +0.000 A 
ATOM      6  C   UNL     1       1.916   4.706  19.185  0.00  0.00    +0.000 A 
ATOM      7  S   UNL     1       1.671   6.309  18.800  0.00  0.00    +0.000 S 
ATOM      8  C   UNL     1       3.219   6.557  18.199  0.00  0.00    +0.000 A 
ATOM      9  C   UNL     1       3.984   5.369  18.269  0.00  0.00    +0.000 A 
ATOM     10  C   UNL     1       0.914   3.816  19.871  0.00  0.00    +0.000 C 
ENDROOT
BRANCH   9  11
ATOM     11  C   UNL     1       5.405   5.266  17.775  0.00  0.00    +0.000 C 
ATOM     12  O   UNL     1       6.288   5.804  18.422  0.00  0.00    +0.000 OA
ATOM     13  N   UNL     1       5.743   4.577  16.642  0.00  0.00    +0.000 N 
ATOM     14  H   UNL     1       5.039   4.049  16.125  0.00  0.00    +0.000 HD
BRANCH  13  15
ATOM     15  C   UNL     1       7.090   4.509  16.110  0.00  0.00    +0.000 C 
BRANCH  15  16
ATOM     16  C   UNL     1       7.069   4.523  14.602  0.00  0.00    +0.000 A 
ATOM     17  C   UNL     1       7.916   5.382  13.880  0.00  0.00    +0.000 A 
ATOM     18  C   UNL     1       7.901   5.373  12.480  0.00  0.00    +0.000 A 
ATOM     19  C   UNL     1       7.045   4.508  11.794  0.00  0.00    +0.000 A 
ATOM     20  C   UNL     1       6.197   3.653  12.505  0.00  0.00    +0.000 A 
ATOM     21 CL   UNL     1       5.125   2.565  11.642  0.00  0.00    +0.000 Cl
ATOM     22  C   UNL     1       6.208   3.661  13.905  0.00  0.00    +0.000 A 
ENDBRANCH  15  16
ENDBRANCH  13  15
ENDBRANCH   9  11
BRANCH   8  23
ATOM     23  N   UNL     1       3.644   7.830  17.744  0.00  0.00    +0.000 N 
ATOM     24  H   UNL     1       4.648   8.061  17.759  0.00  0.00    +0.000 HD
ATOM     25  H   UNL     1       3.001   8.516  17.334  0.00  0.00    +0.000 HD
ENDBRANCH   8  23
TORSDOF 4
ENDMDL
MODEL 9
REMARK VINA RESULT:      -6.6      4.088      7.500
REMARK  Name = 
REMARK  5 active torsions:
REMARK  status: ('A' for Active; 'I' for Inactive)
REMARK    1  A    between atoms: C_1  and  N_2
REMARK    2  A    between atoms: C_8  and  N_9
REMARK    3  A    between atoms: C_10  and  C_11
REMARK    4  A    between atoms: N_13  and  C_14
REMARK    5  A    between atoms: C_14  and  C_15
REMARK                            x       y       z     vdW  Elec       q    Type
REMARK                         _______ _______ _______ _____ _____    ______ ____
ROOT
ATOM      1  C   UNL     1      -4.145   9.501  17.985  0.00  0.00    +0.000 C 
ATOM      2  N   UNL     1      -3.737  10.801  17.407  0.00  0.00    +0.000 NA
ATOM      3  C   UNL     1      -2.693  10.672  16.370  0.00  0.00    +0.000 C 
ATOM      4  C   UNL     1      -1.436   9.955  16.903  0.00  0.00    +0.000 C 
ATOM      5  C   UNL     1      -1.034  10.490  18.261  0.00  0.00    +0.000 A 
ATOM      6  C   UNL     1      -1.894  11.357  18.939  0.00  0.00    +0.000 A 
ATOM      7  S   UNL     1      -1.196  11.877  20.360  0.00  0.00    +0.000 S 
ATOM      8  C   UNL     1       0.210  10.976  20.175  0.00  0.00    +0.000 A 
ATOM      9  C   UNL     1       0.181  10.240  18.967  0.00  0.00    +0.000 A 
ATOM     10  C   UNL     1      -3.276  11.724  18.467  0.00  0.00    +0.000 C 
ENDROOT
BRANCH   9  11
ATOM     11  C   UNL     1       1.314   9.359  18.505  0.00  0.00    +0.000 C 
ATOM     12  O   UNL     1       1.980   9.719  17.548  0.00  0.00    +0.000 OA
ATOM     13  N   UNL     1       1.636   8.184  19.128  0.00  0.00    +0.000 N 
ATOM     14  H   UNL     1       1.150   7.897  19.978  0.00  0.00    +0.000 HD
BRANCH  13  15
ATOM     15  C   UNL     1       2.680   7.288  18.672  0.00  0.00    +0.000 C 
BRANCH  15  16
ATOM     16  C   UNL     1       2.278   5.850  18.882  0.00  0.00    +0.000 A 
ATOM     17  C   UNL     1       1.851   5.058  17.802  0.00  0.00    +0.000 A 
ATOM     18  C   UNL     1       1.498   3.719  18.005  0.00  0.00    +0.000 A 
ATOM     19  C   UNL     1       1.569   3.162  19.285  0.00  0.00    +0.000 A 
ATOM     20  C   UNL     1       1.989   3.944  20.366  0.00  0.00    +0.000 A 
ATOM     21 CL   UNL     1       2.082   3.243  21.971  0.00  0.00    +0.000 Cl
ATOM     22  C   UNL     1       2.342   5.284  20.166  0.00  0.00    +0.000 A 
ENDBRANCH  15  16
ENDBRANCH  13  15
ENDBRANCH   9  11
BRANCH   8  23
ATOM     23  N   UNL     1       1.224  10.970  21.164  0.00  0.00    +0.000 N 
ATOM     24  H   UNL     1       1.623  11.865  21.481  0.00  0.00    +0.000 HD
ATOM     25  H   UNL     1       1.536  10.113  21.634  0.00  0.00    +0.000 HD
ENDBRANCH   8  23
TORSDOF 4
ENDMDL
