MODEL 1
REMARK VINA RESULT:      -7.8      0.000      0.000
REMARK  Name = 
REMARK  5 active torsions:
REMARK  status: ('A' for Active; 'I' for Inactive)
REMARK    1  A    between atoms: C_1  and  C_2
REMARK    2  A    between atoms: C_2  and  N_3
REMARK    3  A    between atoms: C_5  and  C_6
REMARK    4  A    between atoms: N_8  and  C_9
REMARK    5  A    between atoms: C_21  and  C_22
REMARK                            x       y       z     vdW  Elec       q    Type
REMARK                         _______ _______ _______ _____ _____    ______ ____
ROOT
ATOM      1  N   UNL     1      -0.142  10.866  19.141  0.00  0.00    +0.000 N 
ATOM      2  C   UNL     1       0.708   9.995  18.470  0.00  0.00    +0.000 A 
ATOM      3  C   UNL     1       1.322   8.924  18.999  0.00  0.00    +0.000 A 
ATOM      4  C   UNL     1       1.071   8.672  20.442  0.00  0.00    +0.000 A 
ATOM      5  O   UNL     1       1.545   7.692  21.017  0.00  0.00    +0.000 OA
ATOM      6  C   UNL     1       0.232   9.627  21.189  0.00  0.00    +0.000 A 
ATOM      7  C   UNL     1       0.051   9.466  22.563  0.00  0.00    +0.000 A 
ATOM      8  C   UNL     1      -0.760  10.359  23.247  0.00  0.00    +0.000 A 
ATOM      9  C   UNL     1      -1.371  11.379  22.531  0.00  0.00    +0.000 A 
ATOM     10  C   UNL     1      -2.307  12.331  23.214  0.00  0.00    +0.000 C 
ATOM     11  N   UNL     1      -1.189  11.551  21.196  0.00  0.00    +0.000 NA
ATOM     12  C   UNL     1      -0.382  10.692  20.524  0.00  0.00    +0.000 A 
ENDROOT
BRANCH   3  13
ATOM     13  C   UNL     1       2.204   8.073  18.143  0.00  0.00    +0.000 C 
ATOM     14  O   UNL     1       2.879   8.550  17.237  0.00  0.00    +0.000 OA
ATOM     15  N   UNL     1       2.203   6.735  18.461  0.00  0.00    +0.000 N 
ATOM     16  H   UNL     1       1.551   6.424  19.182  0.00  0.00    +0.000 HD
BRANCH  15  17
ATOM     17  C   UNL     1       2.963   5.715  17.740  0.00  0.00    +0.000 C 
ATOM     18  C   UNL     1       4.364   5.585  18.354  0.00  0.00    +0.000 C 
ATOM     19  C   UNL     1       4.432   4.754  19.635  0.00  0.00    +0.000 C 
ATOM     20  C   UNL     1       4.665   3.269  19.368  0.00  0.00    +0.000 C 
ATOM     21  C   UNL     1       3.502   2.528  18.717  0.00  0.00    +0.000 C 
ATOM     22  C   UNL     1       2.971   3.144  17.422  0.00  0.00    +0.000 C 
ATOM     23  C   UNL     1       2.153   4.413  17.658  0.00  0.00    +0.000 C 
ENDBRANCH  15  17
ENDBRANCH   3  13
BRANCH   1  25
ATOM     24  C   UNL     1      -1.919  11.670  17.622  0.00  0.00    +0.000 C 
ATOM     25  C   UNL     1      -0.747  12.050  18.518  0.00  0.00    +0.000 C 
ENDBRANCH   1  25
TORSDOF 3
ENDMDL
MODEL 2
REMARK VINA RESULT:      -7.8      0.979      1.162
REMARK  Name = 
REMARK  5 active torsions:
REMARK  status: ('A' for Active; 'I' for Inactive)
REMARK    1  A    between atoms: C_1  and  C_2
REMARK    2  A    between atoms: C_2  and  N_3
REMARK    3  A    between atoms: C_5  and  C_6
REMARK    4  A    between atoms: N_8  and  C_9
REMARK    5  A    between atoms: C_21  and  C_22
REMARK                            x       y       z     vdW  Elec       q    Type
REMARK                         _______ _______ _______ _____ _____    ______ ____
ROOT
ATOM      1  N   UNL     1       0.906  10.757  19.274  0.00  0.00    +0.000 N 
ATOM      2  C   UNL     1       1.623   9.753  18.636  0.00  0.00    +0.000 A 
ATOM      3  C   UNL     1       1.853   8.519  19.113  0.00  0.00    +0.000 A 
ATOM      4  C   UNL     1       1.294   8.223  20.458  0.00  0.00    +0.000 A 
ATOM      5  O   UNL     1       1.403   7.109  20.971  0.00  0.00    +0.000 OA
ATOM      6  C   UNL     1       0.594   9.299  21.183  0.00  0.00    +0.000 A 
ATOM      7  C   UNL     1       0.137   9.078  22.483  0.00  0.00    +0.000 A 
ATOM      8  C   UNL     1      -0.540  10.092  23.143  0.00  0.00    +0.000 A 
ATOM      9  C   UNL     1      -0.746  11.292  22.476  0.00  0.00    +0.000 A 
ATOM     10  C   UNL     1      -1.527  12.396  23.123  0.00  0.00    +0.000 C 
ATOM     11  N   UNL     1      -0.292  11.521  21.217  0.00  0.00    +0.000 NA
ATOM     12  C   UNL     1       0.388  10.539  20.571  0.00  0.00    +0.000 A 
ENDROOT
BRANCH   3  13
ATOM     13  C   UNL     1       2.639   7.541  18.301  0.00  0.00    +0.000 C 
ATOM     14  O   UNL     1       3.508   7.904  17.516  0.00  0.00    +0.000 OA
ATOM     15  N   UNL     1       2.317   6.220  18.514  0.00  0.00    +0.000 N 
ATOM     16  H   UNL     1       1.528   6.023  19.130  0.00  0.00    +0.000 HD
BRANCH  15  17
ATOM     17  C   UNL     1       2.933   5.097  17.809  0.00  0.00    +0.000 C 
ATOM     18  C   UNL     1       4.258   4.725  18.488  0.00  0.00    +0.000 C 
ATOM     19  C   UNL     1       4.118   3.876  19.752  0.00  0.00    +0.000 C 
ATOM     20  C   UNL     1       4.112   2.376  19.464  0.00  0.00    +0.000 C 
ATOM     21  C   UNL     1       2.877   1.852  18.740  0.00  0.00    +0.000 C 
ATOM     22  C   UNL     1       2.526   2.566  17.434  0.00  0.00    +0.000 C 
ATOM     23  C   UNL     1       1.921   3.951  17.658  0.00  0.00    +0.000 C 
ENDBRANCH  15  17
ENDBRANCH   3  13
BRANCH   1  25
ATOM     24  C   UNL     1       2.069  12.745  18.376  0.00  0.00    +0.000 C 
ATOM     25  C   UNL     1       0.730  12.106  18.720  0.00  0.00    +0.000 C 
ENDBRANCH   1  25
TORSDOF 3
ENDMDL
MODEL 3
REMARK VINA RESULT:      -7.6      1.338      1.632
REMARK  Name = 
REMARK  5 active torsions:
REMARK  status: ('A' for Active; 'I' for Inactive)
REMARK    1  A    between atoms: C_1  and  C_2
REMARK    2  A    between atoms: C_2  and  N_3
REMARK    3  A    between atoms: C_5  and  C_6
REMARK    4  A    between atoms: N_8  and  C_9
REMARK    5  A    between atoms: C_21  and  C_22
REMARK                            x       y       z     vdW  Elec       q    Type
REMARK                         _______ _______ _______ _____ _____    ______ ____
ROOT
ATOM      1  N   UNL     1      -0.617  11.056  19.086  0.00  0.00    +0.000 N 
ATOM      2  C   UNL     1       0.308  10.066  18.779  0.00  0.00    +0.000 A 
ATOM      3  C   UNL     1       0.913   9.249  19.658  0.00  0.00    +0.000 A 
ATOM      4  C   UNL     1       0.561   9.449  21.087  0.00  0.00    +0.000 A 
ATOM      5  O   UNL     1       1.019   8.725  21.972  0.00  0.00    +0.000 OA
ATOM      6  C   UNL     1      -0.362  10.544  21.439  0.00  0.00    +0.000 A 
ATOM      7  C   UNL     1      -0.641  10.813  22.780  0.00  0.00    +0.000 A 
ATOM      8  C   UNL     1      -1.529  11.830  23.095  0.00  0.00    +0.000 A 
ATOM      9  C   UNL     1      -2.116  12.540  22.056  0.00  0.00    +0.000 A 
ATOM     10  C   UNL     1      -3.130  13.606  22.342  0.00  0.00    +0.000 C 
ATOM     11  N   UNL     1      -1.838  12.295  20.749  0.00  0.00    +0.000 NA
ATOM     12  C   UNL     1      -0.956  11.312  20.435  0.00  0.00    +0.000 A 
ENDROOT
BRANCH   3  13
ATOM     13  C   UNL     1       1.883   8.221  19.172  0.00  0.00    +0.000 C 
ATOM     14  O   UNL     1       2.687   8.463  18.277  0.00  0.00    +0.000 OA
ATOM     15  N   UNL     1       1.808   7.005  19.811  0.00  0.00    +0.000 N 
ATOM     16  H   UNL     1       1.056   6.877  20.490  0.00  0.00    +0.000 HD
BRANCH  15  17
ATOM     17  C   UNL     1       2.636   5.846  19.480  0.00  0.00    +0.000 C 
ATOM     18  C   UNL     1       2.532   4.802  20.599  0.00  0.00    +0.000 C 
ATOM     19  C   UNL     1       1.273   3.936  20.558  0.00  0.00    +0.000 C 
ATOM     20  C   UNL     1       1.446   2.675  19.715  0.00  0.00    +0.000 C 
ATOM     21  C   UNL     1       1.574   2.902  18.213  0.00  0.00    +0.000 C 
ATOM     22  C   UNL     1       2.664   3.886  17.786  0.00  0.00    +0.000 C 
ATOM     23  C   UNL     1       2.296   5.342  18.070  0.00  0.00    +0.000 C 
ENDBRANCH  15  17
ENDBRANCH   3  13
BRANCH   1  25
ATOM     24  C   UNL     1      -2.253  11.230  17.241  0.00  0.00    +0.000 C 
ATOM     25  C   UNL     1      -1.209  11.951  18.083  0.00  0.00    +0.000 C 
ENDBRANCH   1  25
TORSDOF 3
ENDMDL
MODEL 4
REMARK VINA RESULT:      -7.4      1.496      1.796
REMARK  Name = 
REMARK  5 active torsions:
REMARK  status: ('A' for Active; 'I' for Inactive)
REMARK    1  A    between atoms: C_1  and  C_2
REMARK    2  A    between atoms: C_2  and  N_3
REMARK    3  A    between atoms: C_5  and  C_6
REMARK    4  A    between atoms: N_8  and  C_9
REMARK    5  A    between atoms: C_21  and  C_22
REMARK                            x       y       z     vdW  Elec       q    Type
REMARK                         _______ _______ _______ _____ _____    ______ ____
ROOT
ATOM      1  N   UNL     1       0.550  11.588  19.289  0.00  0.00    +0.000 N 
ATOM      2  C   UNL     1       1.221  10.454  18.850  0.00  0.00    +0.000 A 
ATOM      3  C   UNL     1       1.297   9.280  19.498  0.00  0.00    +0.000 A 
ATOM      4  C   UNL     1       0.608   9.211  20.812  0.00  0.00    +0.000 A 
ATOM      5  O   UNL     1       0.573   8.170  21.469  0.00  0.00    +0.000 OA
ATOM      6  C   UNL     1      -0.047  10.427  21.329  0.00  0.00    +0.000 A 
ATOM      7  C   UNL     1      -0.625  10.419  22.600  0.00  0.00    +0.000 A 
ATOM      8  C   UNL     1      -1.258  11.563  23.062  0.00  0.00    +0.000 A 
ATOM      9  C   UNL     1      -1.299  12.676  22.234  0.00  0.00    +0.000 A 
ATOM     10  C   UNL     1      -2.025  13.915  22.662  0.00  0.00    +0.000 C 
ATOM     11  N   UNL     1      -0.726  12.697  21.002  0.00  0.00    +0.000 NA
ATOM     12  C   UNL     1      -0.089  11.587  20.551  0.00  0.00    +0.000 A 
ENDROOT
BRANCH   3  13
ATOM     13  C   UNL     1       2.053   8.142  18.891  0.00  0.00    +0.000 C 
ATOM     14  O   UNL     1       2.641   8.254  17.821  0.00  0.00    +0.000 OA
ATOM     15  N   UNL     1       2.044   6.980  19.629  0.00  0.00    +0.000 N 
ATOM     16  H   UNL     1       1.464   6.962  20.468  0.00  0.00    +0.000 HD
BRANCH  15  17
ATOM     17  C   UNL     1       2.687   5.735  19.215  0.00  0.00    +0.000 C 
ATOM     18  C   UNL     1       2.774   4.777  20.410  0.00  0.00    +0.000 C 
ATOM     19  C   UNL     1       1.482   4.023  20.727  0.00  0.00    +0.000 C 
ATOM     20  C   UNL     1       1.364   2.701  19.973  0.00  0.00    +0.000 C 
ATOM     21  C   UNL     1       1.155   2.820  18.468  0.00  0.00    +0.000 C 
ATOM     22  C   UNL     1       2.183   3.676  17.726  0.00  0.00    +0.000 C 
ATOM     23  C   UNL     1       1.994   5.173  17.965  0.00  0.00    +0.000 C 
ENDBRANCH  15  17
ENDBRANCH   3  13
BRANCH   1  25
ATOM     24  C   UNL     1       1.955  13.397  18.360  0.00  0.00    +0.000 C 
ATOM     25  C   UNL     1       0.543  12.861  18.556  0.00  0.00    +0.000 C 
ENDBRANCH   1  25
TORSDOF 3
ENDMDL
MODEL 5
REMARK VINA RESULT:      -7.3      1.964      8.099
REMARK  Name = 
REMARK  5 active torsions:
REMARK  status: ('A' for Active; 'I' for Inactive)
REMARK    1  A    between atoms: C_1  and  C_2
REMARK    2  A    between atoms: C_2  and  N_3
REMARK    3  A    between atoms: C_5  and  C_6
REMARK    4  A    between atoms: N_8  and  C_9
REMARK    5  A    between atoms: C_21  and  C_22
REMARK                            x       y       z     vdW  Elec       q    Type
REMARK                         _______ _______ _______ _____ _____    ______ ____
ROOT
ATOM      1  N   UNL     1       3.076   4.999  19.254  0.00  0.00    +0.000 N 
ATOM      2  C   UNL     1       2.372   5.996  19.917  0.00  0.00    +0.000 A 
ATOM      3  C   UNL     1       2.256   7.275  19.527  0.00  0.00    +0.000 A 
ATOM      4  C   UNL     1       2.967   7.645  18.276  0.00  0.00    +0.000 A 
ATOM      5  O   UNL     1       2.889   8.779  17.801  0.00  0.00    +0.000 OA
ATOM      6  C   UNL     1       3.781   6.620  17.597  0.00  0.00    +0.000 A 
ATOM      7  C   UNL     1       4.531   6.961  16.471  0.00  0.00    +0.000 A 
ATOM      8  C   UNL     1       5.272   5.980  15.830  0.00  0.00    +0.000 A 
ATOM      9  C   UNL     1       5.231   4.686  16.333  0.00  0.00    +0.000 A 
ATOM     10  C   UNL     1       5.964   3.578  15.640  0.00  0.00    +0.000 C 
ATOM     11  N   UNL     1       4.515   4.349  17.438  0.00  0.00    +0.000 NA
ATOM     12  C   UNL     1       3.802   5.309  18.080  0.00  0.00    +0.000 A 
ENDROOT
BRANCH   3  13
ATOM     13  C   UNL     1       1.453   8.234  20.346  0.00  0.00    +0.000 C 
ATOM     14  O   UNL     1       1.307   8.086  21.555  0.00  0.00    +0.000 OA
ATOM     15  N   UNL     1       0.910   9.285  19.642  0.00  0.00    +0.000 N 
ATOM     16  H   UNL     1       1.024   9.279  18.628  0.00  0.00    +0.000 HD
BRANCH  15  17
ATOM     17  C   UNL     1       0.064  10.322  20.231  0.00  0.00    +0.000 C 
ATOM     18  C   UNL     1       0.941  11.466  20.757  0.00  0.00    +0.000 C 
ATOM     19  C   UNL     1       1.429  12.446  19.689  0.00  0.00    +0.000 C 
ATOM     20  C   UNL     1       0.462  13.604  19.458  0.00  0.00    +0.000 C 
ATOM     21  C   UNL     1      -0.858  13.233  18.791  0.00  0.00    +0.000 C 
ATOM     22  C   UNL     1      -1.647  12.112  19.469  0.00  0.00    +0.000 C 
ATOM     23  C   UNL     1      -1.035  10.731  19.239  0.00  0.00    +0.000 C 
ENDBRANCH  15  17
ENDBRANCH   3  13
BRANCH   1  25
ATOM     24  C   UNL     1       2.113   3.297  20.766  0.00  0.00    +0.000 C 
ATOM     25  C   UNL     1       3.207   3.626  19.758  0.00  0.00    +0.000 C 
ENDBRANCH   1  25
TORSDOF 3
ENDMDL
MODEL 6
REMARK VINA RESULT:      -7.1      1.956      3.719
REMARK  Name = 
REMARK  5 active torsions:
REMARK  status: ('A' for Active; 'I' for Inactive)
REMARK    1  A    between atoms: C_1  and  C_2
REMARK    2  A    between atoms: C_2  and  N_3
REMARK    3  A    between atoms: C_5  and  C_6
REMARK    4  A    between atoms: N_8  and  C_9
REMARK    5  A    between atoms: C_21  and  C_22
REMARK                            x       y       z     vdW  Elec       q    Type
REMARK                         _______ _______ _______ _____ _____    ______ ____
ROOT
ATOM      1  N   UNL     1       0.459   8.536  21.126  0.00  0.00    +0.000 N 
ATOM      2  C   UNL     1       1.258   7.420  20.913  0.00  0.00    +0.000 A 
ATOM      3  C   UNL     1       2.083   7.225  19.872  0.00  0.00    +0.000 A 
ATOM      4  C   UNL     1       2.121   8.306  18.854  0.00  0.00    +0.000 A 
ATOM      5  O   UNL     1       2.877   8.253  17.884  0.00  0.00    +0.000 OA
ATOM      6  C   UNL     1       1.225   9.465  19.024  0.00  0.00    +0.000 A 
ATOM      7  C   UNL     1       1.172  10.453  18.039  0.00  0.00    +0.000 A 
ATOM      8  C   UNL     1       0.343  11.548  18.225  0.00  0.00    +0.000 A 
ATOM      9  C   UNL     1      -0.402  11.623  19.394  0.00  0.00    +0.000 A 
ATOM     10  C   UNL     1      -1.265  12.817  19.670  0.00  0.00    +0.000 C 
ATOM     11  N   UNL     1      -0.368  10.659  20.350  0.00  0.00    +0.000 NA
ATOM     12  C   UNL     1       0.429   9.575  20.167  0.00  0.00    +0.000 A 
ENDROOT
BRANCH   3  13
ATOM     13  C   UNL     1       2.890   5.969  19.786  0.00  0.00    +0.000 C 
ATOM     14  O   UNL     1       2.526   4.929  20.325  0.00  0.00    +0.000 OA
ATOM     15  N   UNL     1       4.050   6.074  19.053  0.00  0.00    +0.000 N 
ATOM     16  H   UNL     1       4.305   6.999  18.708  0.00  0.00    +0.000 HD
BRANCH  15  17
ATOM     17  C   UNL     1       5.007   4.985  18.863  0.00  0.00    +0.000 C 
ATOM     18  C   UNL     1       4.475   4.009  17.804  0.00  0.00    +0.000 C 
ATOM     19  C   UNL     1       4.673   4.459  16.357  0.00  0.00    +0.000 C 
ATOM     20  C   UNL     1       6.008   4.004  15.770  0.00  0.00    +0.000 C 
ATOM     21  C   UNL     1       7.245   4.677  16.354  0.00  0.00    +0.000 C 
ATOM     22  C   UNL     1       7.373   4.613  17.876  0.00  0.00    +0.000 C 
ATOM     23  C   UNL     1       6.407   5.554  18.595  0.00  0.00    +0.000 C 
ENDBRANCH  15  17
ENDBRANCH   3  13
BRANCH   1  25
ATOM     24  C   UNL     1       0.181   9.437  23.411  0.00  0.00    +0.000 C 
ATOM     25  C   UNL     1      -0.461   8.670  22.262  0.00  0.00    +0.000 C 
ENDBRANCH   1  25
TORSDOF 3
ENDMDL
MODEL 7
REMARK VINA RESULT:      -7.1      2.016      7.485
REMARK  Name = 
REMARK  5 active torsions:
REMARK  status: ('A' for Active; 'I' for Inactive)
REMARK    1  A    between atoms: C_1  and  C_2
REMARK    2  A    between atoms: C_2  and  N_3
REMARK    3  A    between atoms: C_5  and  C_6
REMARK    4  A    between atoms: N_8  and  C_9
REMARK    5  A    between atoms: C_21  and  C_22
REMARK                            x       y       z     vdW  Elec       q    Type
REMARK                         _______ _______ _______ _____ _____    ______ ____
ROOT
ATOM      1  N   UNL     1       3.535   6.837  17.833  0.00  0.00    +0.000 N 
ATOM      2  C   UNL     1       2.976   8.106  17.748  0.00  0.00    +0.000 A 
ATOM      3  C   UNL     1       2.108   8.647  18.618  0.00  0.00    +0.000 A 
ATOM      4  C   UNL     1       1.707   7.789  19.763  0.00  0.00    +0.000 A 
ATOM      5  O   UNL     1       0.954   8.202  20.646  0.00  0.00    +0.000 OA
ATOM      6  C   UNL     1       2.232   6.413  19.830  0.00  0.00    +0.000 A 
ATOM      7  C   UNL     1       1.803   5.554  20.844  0.00  0.00    +0.000 A 
ATOM      8  C   UNL     1       2.324   4.271  20.907  0.00  0.00    +0.000 A 
ATOM      9  C   UNL     1       3.264   3.891  19.958  0.00  0.00    +0.000 A 
ATOM     10  C   UNL     1       3.902   2.536  20.021  0.00  0.00    +0.000 C 
ATOM     11  N   UNL     1       3.675   4.715  18.960  0.00  0.00    +0.000 NA
ATOM     12  C   UNL     1       3.156   5.967  18.881  0.00  0.00    +0.000 A 
ENDROOT
BRANCH   3  13
ATOM     13  C   UNL     1       1.599  10.035  18.396  0.00  0.00    +0.000 C 
ATOM     14  O   UNL     1       2.300  10.908  17.895  0.00  0.00    +0.000 OA
ATOM     15  N   UNL     1       0.296  10.244  18.784  0.00  0.00    +0.000 N 
ATOM     16  H   UNL     1      -0.180   9.477  19.261  0.00  0.00    +0.000 HD
BRANCH  15  17
ATOM     17  C   UNL     1      -0.397  11.527  18.691  0.00  0.00    +0.000 C 
ATOM     18  C   UNL     1      -1.480  11.452  17.606  0.00  0.00    +0.000 C 
ATOM     19  C   UNL     1      -2.776  10.764  18.037  0.00  0.00    +0.000 C 
ATOM     20  C   UNL     1      -3.787  11.730  18.650  0.00  0.00    +0.000 C 
ATOM     21  C   UNL     1      -3.407  12.299  20.013  0.00  0.00    +0.000 C 
ATOM     22  C   UNL     1      -2.035  12.970  20.087  0.00  0.00    +0.000 C 
ATOM     23  C   UNL     1      -0.882  11.967  20.080  0.00  0.00    +0.000 C 
ENDBRANCH  15  17
ENDBRANCH   3  13
BRANCH   1  25
ATOM     24  C   UNL     1       5.862   6.808  16.999  0.00  0.00    +0.000 C 
ATOM     25  C   UNL     1       4.443   6.282  16.821  0.00  0.00    +0.000 C 
ENDBRANCH   1  25
TORSDOF 3
ENDMDL
MODEL 8
REMARK VINA RESULT:      -7.0      1.782      3.138
REMARK  Name = 
REMARK  5 active torsions:
REMARK  status: ('A' for Active; 'I' for Inactive)
REMARK    1  A    between atoms: C_1  and  C_2
REMARK    2  A    between atoms: C_2  and  N_3
REMARK    3  A    between atoms: C_5  and  C_6
REMARK    4  A    between atoms: N_8  and  C_9
REMARK    5  A    between atoms: C_21  and  C_22
REMARK                            x       y       z     vdW  Elec       q    Type
REMARK                         _______ _______ _______ _____ _____    ______ ____
ROOT
ATOM      1  N   UNL     1       0.143  10.258  20.923  0.00  0.00    +0.000 N 
ATOM      2  C   UNL     1       0.832   9.207  20.329  0.00  0.00    +0.000 A 
ATOM      3  C   UNL     1       1.557   9.274  19.201  0.00  0.00    +0.000 A 
ATOM      4  C   UNL     1       1.601  10.598  18.528  0.00  0.00    +0.000 A 
ATOM      5  O   UNL     1       2.274  10.784  17.513  0.00  0.00    +0.000 OA
ATOM      6  C   UNL     1       0.816  11.706  19.102  0.00  0.00    +0.000 A 
ATOM      7  C   UNL     1       0.767  12.936  18.443  0.00  0.00    +0.000 A 
ATOM      8  C   UNL     1       0.044  13.976  19.007  0.00  0.00    +0.000 A 
ATOM      9  C   UNL     1      -0.600  13.754  20.217  0.00  0.00    +0.000 A 
ATOM     10  C   UNL     1      -1.342  14.864  20.898  0.00  0.00    +0.000 C 
ATOM     11  N   UNL     1      -0.569  12.556  20.857  0.00  0.00    +0.000 NA
ATOM     12  C   UNL     1       0.122  11.528  20.301  0.00  0.00    +0.000 A 
ENDROOT
BRANCH   3  13
ATOM     13  C   UNL     1       2.252   8.053  18.689  0.00  0.00    +0.000 C 
ATOM     14  O   UNL     1       2.909   8.070  17.654  0.00  0.00    +0.000 OA
ATOM     15  N   UNL     1       2.103   6.931  19.471  0.00  0.00    +0.000 N 
ATOM     16  H   UNL     1       1.474   6.997  20.272  0.00  0.00    +0.000 HD
BRANCH  15  17
ATOM     17  C   UNL     1       2.666   5.621  19.149  0.00  0.00    +0.000 C 
ATOM     18  C   UNL     1       2.733   4.762  20.419  0.00  0.00    +0.000 C 
ATOM     19  C   UNL     1       1.410   4.112  20.828  0.00  0.00    +0.000 C 
ATOM     20  C   UNL     1       1.200   2.740  20.191  0.00  0.00    +0.000 C 
ATOM     21  C   UNL     1       0.957   2.746  18.686  0.00  0.00    +0.000 C 
ATOM     22  C   UNL     1       2.009   3.477  17.851  0.00  0.00    +0.000 C 
ATOM     23  C   UNL     1       1.909   4.997  17.967  0.00  0.00    +0.000 C 
ENDBRANCH  15  17
ENDBRANCH   3  13
BRANCH   1  25
ATOM     24  C   UNL     1       0.124   9.482  23.269  0.00  0.00    +0.000 C 
ATOM     25  C   UNL     1      -0.673  10.111  22.134  0.00  0.00    +0.000 C 
ENDBRANCH   1  25
TORSDOF 3
ENDMDL
MODEL 9
REMARK VINA RESULT:      -7.0      1.902      7.513
REMARK  Name = 
REMARK  5 active torsions:
REMARK  status: ('A' for Active; 'I' for Inactive)
REMARK    1  A    between atoms: C_1  and  C_2
REMARK    2  A    between atoms: C_2  and  N_3
REMARK    3  A    between atoms: C_5  and  C_6
REMARK    4  A    between atoms: N_8  and  C_9
REMARK    5  A    between atoms: C_21  and  C_22
REMARK                            x       y       z     vdW  Elec       q    Type
REMARK                         _______ _______ _______ _____ _____    ______ ____
ROOT
ATOM      1  N   UNL     1       3.887   6.040  17.899  0.00  0.00    +0.000 N 
ATOM      2  C   UNL     1       3.281   7.283  17.776  0.00  0.00    +0.000 A 
ATOM      3  C   UNL     1       2.396   7.820  18.631  0.00  0.00    +0.000 A 
ATOM      4  C   UNL     1       2.031   6.986  19.805  0.00  0.00    +0.000 A 
ATOM      5  O   UNL     1       1.265   7.399  20.677  0.00  0.00    +0.000 OA
ATOM      6  C   UNL     1       2.606   5.633  19.915  0.00  0.00    +0.000 A 
ATOM      7  C   UNL     1       2.213   4.793  20.958  0.00  0.00    +0.000 A 
ATOM      8  C   UNL     1       2.781   3.533  21.061  0.00  0.00    +0.000 A 
ATOM      9  C   UNL     1       3.732   3.157  20.121  0.00  0.00    +0.000 A 
ATOM     10  C   UNL     1       4.421   1.830  20.226  0.00  0.00    +0.000 C 
ATOM     11  N   UNL     1       4.109   3.963  19.095  0.00  0.00    +0.000 NA
ATOM     12  C   UNL     1       3.543   5.191  18.977  0.00  0.00    +0.000 A 
ENDROOT
BRANCH   3  13
ATOM     13  C   UNL     1       1.835   9.181  18.366  0.00  0.00    +0.000 C 
ATOM     14  O   UNL     1       2.140   9.822  17.366  0.00  0.00    +0.000 OA
ATOM     15  N   UNL     1       0.952   9.639  19.317  0.00  0.00    +0.000 N 
ATOM     16  H   UNL     1       0.821   9.066  20.150  0.00  0.00    +0.000 HD
BRANCH  15  17
ATOM     17  C   UNL     1       0.308  10.951  19.280  0.00  0.00    +0.000 C 
ATOM     18  C   UNL     1      -0.924  10.947  20.196  0.00  0.00    +0.000 C 
ATOM     19  C   UNL     1      -0.620  11.119  21.684  0.00  0.00    +0.000 C 
ATOM     20  C   UNL     1      -0.589  12.582  22.120  0.00  0.00    +0.000 C 
ATOM     21  C   UNL     1       0.581  13.401  21.586  0.00  0.00    +0.000 C 
ATOM     22  C   UNL     1       0.766  13.376  20.069  0.00  0.00    +0.000 C 
ATOM     23  C   UNL     1       1.339  12.053  19.562  0.00  0.00    +0.000 C 
ENDBRANCH  15  17
ENDBRANCH   3  13
BRANCH   1  25
ATOM     24  C   UNL     1       5.120   6.498  15.806  0.00  0.00    +0.000 C 
ATOM     25  C   UNL     1       4.813   5.486  16.903  0.00  0.00    +0.000 C 
ENDBRANCH   1  25
TORSDOF 3
ENDMDL
