MODEL 1
REMARK VINA RESULT:      -7.8      0.000      0.000
REMARK  Name = 
REMARK  12 active torsions:
REMARK  status: ('A' for Active; 'I' for Inactive)
REMARK    1  A    between atoms: C_1  and  O_2
REMARK    2  A    between atoms: O_2  and  C_3
REMARK    3  A    between atoms: C_5  and  O_6
REMARK    4  A    between atoms: O_6  and  C_7
REMARK    5  A    between atoms: C_8  and  N_9
REMARK    6  A    between atoms: N_9  and  C_10
REMARK    7  A    between atoms: C_11  and  C_13
REMARK    8  A    between atoms: N_15  and  C_16
REMARK    9  A    between atoms: C_21  and  O_22
REMARK   10  A    between atoms: O_22  and  C_23
REMARK   11  A    between atoms: C_24  and  O_25
REMARK   12  A    between atoms: O_25  and  C_26
REMARK                            x       y       z     vdW  Elec       q    Type
REMARK                         _______ _______ _______ _____ _____    ______ ____
ROOT
ATOM      1  C   UNL     1       2.393   6.271  18.154  0.00  0.00    +0.000 A 
ATOM      2  C   UNL     1       1.511   5.253  18.203  0.00  0.00    +0.000 A 
ATOM      3  N   UNL     1       1.855   3.922  18.139  0.00  0.00    +0.000 N 
ATOM      4  C   UNL     1       0.948   2.911  18.652  0.00  0.00    +0.000 C 
ATOM      5  C   UNL     1       3.111   3.496  17.733  0.00  0.00    +0.000 A 
ATOM      6  O   UNL     1       3.448   2.316  17.670  0.00  0.00    +0.000 OA
ATOM      7  C   UNL     1       4.078   4.572  17.400  0.00  0.00    +0.000 A 
ATOM      8  C   UNL     1       5.291   4.182  16.807  0.00  0.00    +0.000 A 
ATOM      9  C   UNL     1       6.271   5.125  16.488  0.00  0.00    +0.000 A 
ATOM     10  C   UNL     1       6.025   6.467  16.831  0.00  0.00    +0.000 A 
ATOM     11  C   UNL     1       4.783   6.842  17.415  0.00  0.00    +0.000 A 
ATOM     12  C   UNL     1       3.766   5.916  17.674  0.00  0.00    +0.000 A 
ENDROOT
BRANCH   1  15
ATOM     13  N   UNL     1       1.711   8.161  19.744  0.00  0.00    +0.000 N 
ATOM     14  C   UNL     1       2.050   7.338  20.918  0.00  0.00    +0.000 C 
ATOM     15  C   UNL     1       1.886   7.715  18.405  0.00  0.00    +0.000 C 
ATOM     16  O   UNL     1       1.593   8.386  17.415  0.00  0.00    +0.000 OA
BRANCH  13  20
ATOM     17  C   UNL     1      -0.050  11.835  21.205  0.00  0.00    +0.000 A 
ATOM     18  C   UNL     1       0.657  11.837  19.994  0.00  0.00    +0.000 A 
ATOM     19  C   UNL     1       1.223  10.668  19.422  0.00  0.00    +0.000 A 
ATOM     20  C   UNL     1       1.087   9.437  20.100  0.00  0.00    +0.000 A 
ATOM     21  C   UNL     1       0.317   9.459  21.290  0.00  0.00    +0.000 A 
ATOM     22  C   UNL     1      -0.243  10.616  21.841  0.00  0.00    +0.000 A 
ATOM     23 CL   UNL     1      -1.185  10.387  23.270  0.00  0.00    +0.000 Cl
BRANCH  17  25
ATOM     24  C   UNL     1      -0.519  14.096  20.588  0.00  0.00    +0.000 C 
ATOM     25  O   UNL     1      -0.530  13.064  21.570  0.00  0.00    +0.000 OA
ENDBRANCH  17  25
BRANCH  19  26
ATOM     26  O   UNL     1       2.011  10.748  18.302  0.00  0.00    +0.000 OA
ATOM     27  C   UNL     1       2.516  12.050  17.991  0.00  0.00    +0.000 C 
ENDBRANCH  19  26
ENDBRANCH  13  20
ENDBRANCH   1  15
BRANCH   9  28
ATOM     28  O   UNL     1       7.436   4.786  15.857  0.00  0.00    +0.000 OA
ATOM     29  C   UNL     1       7.456   4.768  14.431  0.00  0.00    +0.000 C 
ENDBRANCH   9  28
BRANCH  10  30
ATOM     30  O   UNL     1       6.863   7.541  16.662  0.00  0.00    +0.000 OA
ATOM     31  C   UNL     1       7.765   7.884  17.703  0.00  0.00    +0.000 C 
ENDBRANCH  10  30
TORSDOF 6
ENDMDL
MODEL 2
REMARK VINA RESULT:      -7.8      1.525      1.987
REMARK  Name = 
REMARK  12 active torsions:
REMARK  status: ('A' for Active; 'I' for Inactive)
REMARK    1  A    between atoms: C_1  and  O_2
REMARK    2  A    between atoms: O_2  and  C_3
REMARK    3  A    between atoms: C_5  and  O_6
REMARK    4  A    between atoms: O_6  and  C_7
REMARK    5  A    between atoms: C_8  and  N_9
REMARK    6  A    between atoms: N_9  and  C_10
REMARK    7  A    between atoms: C_11  and  C_13
REMARK    8  A    between atoms: N_15  and  C_16
REMARK    9  A    between atoms: C_21  and  O_22
REMARK   10  A    between atoms: O_22  and  C_23
REMARK   11  A    between atoms: C_24  and  O_25
REMARK   12  A    between atoms: O_25  and  C_26
REMARK                            x       y       z     vdW  Elec       q    Type
REMARK                         _______ _______ _______ _____ _____    ______ ____
ROOT
ATOM      1  C   UNL     1       2.546   6.462  18.156  0.00  0.00    +0.000 A 
ATOM      2  C   UNL     1       1.640   5.465  18.192  0.00  0.00    +0.000 A 
ATOM      3  N   UNL     1       1.954   4.127  18.121  0.00  0.00    +0.000 N 
ATOM      4  C   UNL     1       1.019   3.134  18.622  0.00  0.00    +0.000 C 
ATOM      5  C   UNL     1       3.202   3.674  17.720  0.00  0.00    +0.000 A 
ATOM      6  O   UNL     1       3.511   2.486  17.652  0.00  0.00    +0.000 OA
ATOM      7  C   UNL     1       4.196   4.729  17.401  0.00  0.00    +0.000 A 
ATOM      8  C   UNL     1       5.403   4.315  16.813  0.00  0.00    +0.000 A 
ATOM      9  C   UNL     1       6.407   5.236  16.508  0.00  0.00    +0.000 A 
ATOM     10  C   UNL     1       6.191   6.581  16.858  0.00  0.00    +0.000 A 
ATOM     11  C   UNL     1       4.954   6.982  17.437  0.00  0.00    +0.000 A 
ATOM     12  C   UNL     1       3.914   6.078  17.683  0.00  0.00    +0.000 A 
ENDROOT
BRANCH   1  15
ATOM     13  N   UNL     1       1.463   8.232  19.659  0.00  0.00    +0.000 N 
ATOM     14  C   UNL     1       1.316   7.257  20.753  0.00  0.00    +0.000 C 
ATOM     15  C   UNL     1       2.071   7.916  18.413  0.00  0.00    +0.000 C 
ATOM     16  O   UNL     1       2.188   8.716  17.484  0.00  0.00    +0.000 OA
BRANCH  13  20
ATOM     17  C   UNL     1      -0.736  11.907  20.286  0.00  0.00    +0.000 A 
ATOM     18  C   UNL     1       0.060  11.388  21.319  0.00  0.00    +0.000 A 
ATOM     19  C   UNL     1       0.848  10.217  21.178  0.00  0.00    +0.000 A 
ATOM     20  C   UNL     1       0.833   9.521  19.951  0.00  0.00    +0.000 A 
ATOM     21  C   UNL     1       0.065  10.103  18.910  0.00  0.00    +0.000 A 
ATOM     22  C   UNL     1      -0.702  11.263  19.056  0.00  0.00    +0.000 A 
ATOM     23 CL   UNL     1      -1.511  11.813  17.633  0.00  0.00    +0.000 Cl
BRANCH  17  25
ATOM     24  C   UNL     1      -2.794  12.951  20.908  0.00  0.00    +0.000 C 
ATOM     25  O   UNL     1      -1.402  13.055  20.621  0.00  0.00    +0.000 OA
ENDBRANCH  17  25
BRANCH  19  26
ATOM     26  O   UNL     1       1.507   9.684  22.258  0.00  0.00    +0.000 OA
ATOM     27  C   UNL     1       0.694   9.389  23.397  0.00  0.00    +0.000 C 
ENDBRANCH  19  26
ENDBRANCH  13  20
ENDBRANCH   1  15
BRANCH   9  28
ATOM     28  O   UNL     1       7.568   4.874  15.882  0.00  0.00    +0.000 OA
ATOM     29  C   UNL     1       7.578   4.799  14.458  0.00  0.00    +0.000 C 
ENDBRANCH   9  28
BRANCH  10  30
ATOM     30  O   UNL     1       7.054   7.636  16.702  0.00  0.00    +0.000 OA
ATOM     31  C   UNL     1       7.863   8.035  17.798  0.00  0.00    +0.000 C 
ENDBRANCH  10  30
TORSDOF 6
ENDMDL
MODEL 3
REMARK VINA RESULT:      -7.7      1.796      2.360
REMARK  Name = 
REMARK  12 active torsions:
REMARK  status: ('A' for Active; 'I' for Inactive)
REMARK    1  A    between atoms: C_1  and  O_2
REMARK    2  A    between atoms: O_2  and  C_3
REMARK    3  A    between atoms: C_5  and  O_6
REMARK    4  A    between atoms: O_6  and  C_7
REMARK    5  A    between atoms: C_8  and  N_9
REMARK    6  A    between atoms: N_9  and  C_10
REMARK    7  A    between atoms: C_11  and  C_13
REMARK    8  A    between atoms: N_15  and  C_16
REMARK    9  A    between atoms: C_21  and  O_22
REMARK   10  A    between atoms: O_22  and  C_23
REMARK   11  A    between atoms: C_24  and  O_25
REMARK   12  A    between atoms: O_25  and  C_26
REMARK                            x       y       z     vdW  Elec       q    Type
REMARK                         _______ _______ _______ _____ _____    ______ ____
ROOT
ATOM      1  C   UNL     1       2.652   6.017  18.955  0.00  0.00    +0.000 A 
ATOM      2  C   UNL     1       1.816   4.960  18.938  0.00  0.00    +0.000 A 
ATOM      3  N   UNL     1       2.164   3.700  18.507  0.00  0.00    +0.000 N 
ATOM      4  C   UNL     1       1.396   2.546  18.941  0.00  0.00    +0.000 C 
ATOM      5  C   UNL     1       3.321   3.453  17.782  0.00  0.00    +0.000 A 
ATOM      6  O   UNL     1       3.659   2.339  17.389  0.00  0.00    +0.000 OA
ATOM      7  C   UNL     1       4.182   4.635  17.525  0.00  0.00    +0.000 A 
ATOM      8  C   UNL     1       5.258   4.462  16.638  0.00  0.00    +0.000 A 
ATOM      9  C   UNL     1       6.138   5.511  16.362  0.00  0.00    +0.000 A 
ATOM     10  C   UNL     1       5.941   6.726  17.042  0.00  0.00    +0.000 A 
ATOM     11  C   UNL     1       4.835   6.886  17.923  0.00  0.00    +0.000 A 
ATOM     12  C   UNL     1       3.907   5.863  18.153  0.00  0.00    +0.000 A 
ENDROOT
BRANCH   1  15
ATOM     13  N   UNL     1       1.674   8.380  18.799  0.00  0.00    +0.000 N 
ATOM     14  C   UNL     1       1.515   8.251  17.340  0.00  0.00    +0.000 C 
ATOM     15  C   UNL     1       2.179   7.336  19.621  0.00  0.00    +0.000 C 
ATOM     16  O   UNL     1       2.332   7.434  20.839  0.00  0.00    +0.000 OA
BRANCH  13  20
ATOM     17  C   UNL     1       0.743  12.473  19.856  0.00  0.00    +0.000 A 
ATOM     18  C   UNL     1       0.146  11.420  20.563  0.00  0.00    +0.000 A 
ATOM     19  C   UNL     1       0.434  10.053  20.312  0.00  0.00    +0.000 A 
ATOM     20  C   UNL     1       1.353   9.720  19.295  0.00  0.00    +0.000 A 
ATOM     21  C   UNL     1       1.983  10.808  18.639  0.00  0.00    +0.000 A 
ATOM     22  C   UNL     1       1.699  12.153  18.900  0.00  0.00    +0.000 A 
ATOM     23 CL   UNL     1       2.631  13.303  18.012  0.00  0.00    +0.000 Cl
BRANCH  17  25
ATOM     24  C   UNL     1      -0.570  14.425  19.434  0.00  0.00    +0.000 C 
ATOM     25  O   UNL     1       0.344  13.716  20.267  0.00  0.00    +0.000 OA
ENDBRANCH  17  25
BRANCH  19  26
ATOM     26  O   UNL     1      -0.273   9.062  20.946  0.00  0.00    +0.000 OA
ATOM     27  C   UNL     1      -0.352   9.172  22.370  0.00  0.00    +0.000 C 
ENDBRANCH  19  26
ENDBRANCH  13  20
ENDBRANCH   1  15
BRANCH   9  28
ATOM     28  O   UNL     1       7.158   5.393  15.459  0.00  0.00    +0.000 OA
ATOM     29  C   UNL     1       6.887   4.777  14.202  0.00  0.00    +0.000 C 
ENDBRANCH   9  28
BRANCH  10  30
ATOM     30  O   UNL     1       6.709   7.862  16.966  0.00  0.00    +0.000 OA
ATOM     31  C   UNL     1       7.844   7.987  17.808  0.00  0.00    +0.000 C 
ENDBRANCH  10  30
TORSDOF 6
ENDMDL
MODEL 4
REMARK VINA RESULT:      -7.7      1.679      1.898
REMARK  Name = 
REMARK  12 active torsions:
REMARK  status: ('A' for Active; 'I' for Inactive)
REMARK    1  A    between atoms: C_1  and  O_2
REMARK    2  A    between atoms: O_2  and  C_3
REMARK    3  A    between atoms: C_5  and  O_6
REMARK    4  A    between atoms: O_6  and  C_7
REMARK    5  A    between atoms: C_8  and  N_9
REMARK    6  A    between atoms: N_9  and  C_10
REMARK    7  A    between atoms: C_11  and  C_13
REMARK    8  A    between atoms: N_15  and  C_16
REMARK    9  A    between atoms: C_21  and  O_22
REMARK   10  A    between atoms: O_22  and  C_23
REMARK   11  A    between atoms: C_24  and  O_25
REMARK   12  A    between atoms: O_25  and  C_26
REMARK                            x       y       z     vdW  Elec       q    Type
REMARK                         _______ _______ _______ _____ _____    ______ ____
ROOT
ATOM      1  C   UNL     1       2.441   6.860  18.557  0.00  0.00    +0.000 A 
ATOM      2  C   UNL     1       1.546   5.897  18.851  0.00  0.00    +0.000 A 
ATOM      3  N   UNL     1       1.869   4.577  19.071  0.00  0.00    +0.000 N 
ATOM      4  C   UNL     1       0.963   3.722  19.818  0.00  0.00    +0.000 C 
ATOM      5  C   UNL     1       3.105   4.045  18.734  0.00  0.00    +0.000 A 
ATOM      6  O   UNL     1       3.422   2.873  18.922  0.00  0.00    +0.000 OA
ATOM      7  C   UNL     1       4.076   5.002  18.147  0.00  0.00    +0.000 A 
ATOM      8  C   UNL     1       5.264   4.466  17.620  0.00  0.00    +0.000 A 
ATOM      9  C   UNL     1       6.247   5.295  17.076  0.00  0.00    +0.000 A 
ATOM     10  C   UNL     1       6.032   6.685  17.124  0.00  0.00    +0.000 A 
ATOM     11  C   UNL     1       4.815   7.205  17.645  0.00  0.00    +0.000 A 
ATOM     12  C   UNL     1       3.793   6.379  18.129  0.00  0.00    +0.000 A 
ENDROOT
BRANCH   1  15
ATOM     13  N   UNL     1       1.390   8.919  19.662  0.00  0.00    +0.000 N 
ATOM     14  C   UNL     1       1.283   8.212  20.949  0.00  0.00    +0.000 C 
ATOM     15  C   UNL     1       1.963   8.335  18.499  0.00  0.00    +0.000 C 
ATOM     16  O   UNL     1       2.046   8.908  17.412  0.00  0.00    +0.000 OA
BRANCH  13  20
ATOM     17  C   UNL     1      -0.085  12.988  19.645  0.00  0.00    +0.000 A 
ATOM     18  C   UNL     1      -0.867  11.963  19.093  0.00  0.00    +0.000 A 
ATOM     19  C   UNL     1      -0.478  10.599  19.101  0.00  0.00    +0.000 A 
ATOM     20  C   UNL     1       0.759  10.240  19.679  0.00  0.00    +0.000 A 
ATOM     21  C   UNL     1       1.497  11.291  20.280  0.00  0.00    +0.000 A 
ATOM     22  C   UNL     1       1.101  12.632  20.274  0.00  0.00    +0.000 A 
ATOM     23 CL   UNL     1       2.138  13.725  21.117  0.00  0.00    +0.000 Cl
BRANCH  17  25
ATOM     24  C   UNL     1      -0.021  15.180  18.694  0.00  0.00    +0.000 C 
ATOM     25  O   UNL     1      -0.650  14.231  19.551  0.00  0.00    +0.000 OA
ENDBRANCH  17  25
BRANCH  19  26
ATOM     26  O   UNL     1      -1.220   9.656  18.436  0.00  0.00    +0.000 OA
ATOM     27  C   UNL     1      -1.855  10.102  17.234  0.00  0.00    +0.000 C 
ENDBRANCH  19  26
ENDBRANCH  13  20
ENDBRANCH   1  15
BRANCH   9  28
ATOM     28  O   UNL     1       7.387   4.802  16.503  0.00  0.00    +0.000 OA
ATOM     29  C   UNL     1       7.431   4.669  15.084  0.00  0.00    +0.000 C 
ENDBRANCH   9  28
BRANCH  10  30
ATOM     30  O   UNL     1       6.880   7.678  16.700  0.00  0.00    +0.000 OA
ATOM     31  C   UNL     1       7.801   8.240  17.622  0.00  0.00    +0.000 C 
ENDBRANCH  10  30
TORSDOF 6
ENDMDL
MODEL 5
REMARK VINA RESULT:      -7.7      1.505      2.095
REMARK  Name = 
REMARK  12 active torsions:
REMARK  status: ('A' for Active; 'I' for Inactive)
REMARK    1  A    between atoms: C_1  and  O_2
REMARK    2  A    between atoms: O_2  and  C_3
REMARK    3  A    between atoms: C_5  and  O_6
REMARK    4  A    between atoms: O_6  and  C_7
REMARK    5  A    between atoms: C_8  and  N_9
REMARK    6  A    between atoms: N_9  and  C_10
REMARK    7  A    between atoms: C_11  and  C_13
REMARK    8  A    between atoms: N_15  and  C_16
REMARK    9  A    between atoms: C_21  and  O_22
REMARK   10  A    between atoms: O_22  and  C_23
REMARK   11  A    between atoms: C_24  and  O_25
REMARK   12  A    between atoms: O_25  and  C_26
REMARK                            x       y       z     vdW  Elec       q    Type
REMARK                         _______ _______ _______ _____ _____    ______ ____
ROOT
ATOM      1  C   UNL     1       2.504   6.472  18.085  0.00  0.00    +0.000 A 
ATOM      2  C   UNL     1       1.581   5.492  18.158  0.00  0.00    +0.000 A 
ATOM      3  N   UNL     1       1.872   4.147  18.140  0.00  0.00    +0.000 N 
ATOM      4  C   UNL     1       0.921   3.190  18.678  0.00  0.00    +0.000 C 
ATOM      5  C   UNL     1       3.113   3.659  17.758  0.00  0.00    +0.000 A 
ATOM      6  O   UNL     1       3.403   2.465  17.736  0.00  0.00    +0.000 OA
ATOM      7  C   UNL     1       4.124   4.684  17.399  0.00  0.00    +0.000 A 
ATOM      8  C   UNL     1       5.325   4.227  16.829  0.00  0.00    +0.000 A 
ATOM      9  C   UNL     1       6.344   5.119  16.489  0.00  0.00    +0.000 A 
ATOM     10  C   UNL     1       6.150   6.480  16.787  0.00  0.00    +0.000 A 
ATOM     11  C   UNL     1       4.920   6.924  17.348  0.00  0.00    +0.000 A 
ATOM     12  C   UNL     1       3.865   6.047  17.628  0.00  0.00    +0.000 A 
ENDROOT
BRANCH   1  15
ATOM     13  N   UNL     1       1.702   8.384  19.591  0.00  0.00    +0.000 N 
ATOM     14  C   UNL     1       1.806   7.528  20.785  0.00  0.00    +0.000 C 
ATOM     15  C   UNL     1       2.053   7.943  18.286  0.00  0.00    +0.000 C 
ATOM     16  O   UNL     1       1.957   8.642  17.276  0.00  0.00    +0.000 OA
BRANCH  13  20
ATOM     17  C   UNL     1      -0.036  12.326  20.002  0.00  0.00    +0.000 A 
ATOM     18  C   UNL     1      -0.460  11.288  20.845  0.00  0.00    +0.000 A 
ATOM     19  C   UNL     1       0.093   9.982  20.808  0.00  0.00    +0.000 A 
ATOM     20  C   UNL     1       1.110   9.693  19.873  0.00  0.00    +0.000 A 
ATOM     21  C   UNL     1       1.556  10.778  19.077  0.00  0.00    +0.000 A 
ATOM     22  C   UNL     1       1.011  12.065  19.127  0.00  0.00    +0.000 A 
ATOM     23 CL   UNL     1       1.753  13.236  18.099  0.00  0.00    +0.000 Cl
BRANCH  17  25
ATOM     24  C   UNL     1      -0.044  14.476  21.046  0.00  0.00    +0.000 C 
ATOM     25  O   UNL     1      -0.684  13.513  20.213  0.00  0.00    +0.000 OA
ENDBRANCH  17  25
BRANCH  19  26
ATOM     26  O   UNL     1      -0.445   8.973  21.567  0.00  0.00    +0.000 OA
ATOM     27  C   UNL     1      -0.574   9.250  22.964  0.00  0.00    +0.000 C 
ENDBRANCH  19  26
ENDBRANCH  13  20
ENDBRANCH   1  15
BRANCH   9  28
ATOM     28  O   UNL     1       7.499   4.714  15.878  0.00  0.00    +0.000 OA
ATOM     29  C   UNL     1       7.563   4.747  14.454  0.00  0.00    +0.000 C 
ENDBRANCH   9  28
BRANCH  10  30
ATOM     30  O   UNL     1       7.031   7.515  16.591  0.00  0.00    +0.000 OA
ATOM     31  C   UNL     1       7.785   7.997  17.692  0.00  0.00    +0.000 C 
ENDBRANCH  10  30
TORSDOF 6
ENDMDL
MODEL 6
REMARK VINA RESULT:      -7.4      3.139      8.697
REMARK  Name = 
REMARK  12 active torsions:
REMARK  status: ('A' for Active; 'I' for Inactive)
REMARK    1  A    between atoms: C_1  and  O_2
REMARK    2  A    between atoms: O_2  and  C_3
REMARK    3  A    between atoms: C_5  and  O_6
REMARK    4  A    between atoms: O_6  and  C_7
REMARK    5  A    between atoms: C_8  and  N_9
REMARK    6  A    between atoms: N_9  and  C_10
REMARK    7  A    between atoms: C_11  and  C_13
REMARK    8  A    between atoms: N_15  and  C_16
REMARK    9  A    between atoms: C_21  and  O_22
REMARK   10  A    between atoms: O_22  and  C_23
REMARK   11  A    between atoms: C_24  and  O_25
REMARK   12  A    between atoms: O_25  and  C_26
REMARK                            x       y       z     vdW  Elec       q    Type
REMARK                         _______ _______ _______ _____ _____    ______ ____
ROOT
ATOM      1  C   UNL     1       1.095   9.046  19.404  0.00  0.00    +0.000 A 
ATOM      2  C   UNL     1       1.519   9.217  20.672  0.00  0.00    +0.000 A 
ATOM      3  N   UNL     1       0.748   9.740  21.685  0.00  0.00    +0.000 N 
ATOM      4  C   UNL     1       1.088   9.469  23.071  0.00  0.00    +0.000 C 
ATOM      5  C   UNL     1      -0.444  10.407  21.446  0.00  0.00    +0.000 A 
ATOM      6  O   UNL     1      -1.155  10.880  22.331  0.00  0.00    +0.000 OA
ATOM      7  C   UNL     1      -0.857  10.495  20.023  0.00  0.00    +0.000 A 
ATOM      8  C   UNL     1      -1.954  11.321  19.724  0.00  0.00    +0.000 A 
ATOM      9  C   UNL     1      -2.430  11.439  18.417  0.00  0.00    +0.000 A 
ATOM     10  C   UNL     1      -1.810  10.662  17.422  0.00  0.00    +0.000 A 
ATOM     11  C   UNL     1      -0.690   9.845  17.743  0.00  0.00    +0.000 A 
ATOM     12  C   UNL     1      -0.161   9.773  19.037  0.00  0.00    +0.000 A 
ENDROOT
BRANCH   1  15
ATOM     13  N   UNL     1       2.516   7.012  18.763  0.00  0.00    +0.000 N 
ATOM     14  C   UNL     1       2.164   6.331  20.021  0.00  0.00    +0.000 C 
ATOM     15  C   UNL     1       2.010   8.292  18.404  0.00  0.00    +0.000 C 
ATOM     16  O   UNL     1       2.307   8.880  17.363  0.00  0.00    +0.000 OA
BRANCH  13  20
ATOM     17  C   UNL     1       5.755   4.992  16.722  0.00  0.00    +0.000 A 
ATOM     18  C   UNL     1       4.483   4.402  16.761  0.00  0.00    +0.000 A 
ATOM     19  C   UNL     1       3.358   5.020  17.367  0.00  0.00    +0.000 A 
ATOM     20  C   UNL     1       3.513   6.284  17.976  0.00  0.00    +0.000 A 
ATOM     21  C   UNL     1       4.796   6.878  17.867  0.00  0.00    +0.000 A 
ATOM     22  C   UNL     1       5.897   6.264  17.261  0.00  0.00    +0.000 A 
ATOM     23 CL   UNL     1       7.343   7.205  17.202  0.00  0.00    +0.000 Cl
BRANCH  17  25
ATOM     24  C   UNL     1       6.534   4.041  14.673  0.00  0.00    +0.000 C 
ATOM     25  O   UNL     1       6.696   4.239  16.074  0.00  0.00    +0.000 OA
ENDBRANCH  17  25
BRANCH  19  26
ATOM     26  O   UNL     1       2.170   4.345  17.488  0.00  0.00    +0.000 OA
ATOM     27  C   UNL     1       2.278   2.940  17.733  0.00  0.00    +0.000 C 
ENDBRANCH  19  26
ENDBRANCH  13  20
ENDBRANCH   1  15
BRANCH   9  28
ATOM     28  O   UNL     1      -3.456  12.279  18.083  0.00  0.00    +0.000 OA
ATOM     29  C   UNL     1      -4.791  11.783  18.154  0.00  0.00    +0.000 C 
ENDBRANCH   9  28
BRANCH  10  30
ATOM     30  O   UNL     1      -2.145  10.580  16.093  0.00  0.00    +0.000 OA
ATOM     31  C   UNL     1      -3.099   9.615  15.679  0.00  0.00    +0.000 C 
ENDBRANCH  10  30
TORSDOF 6
ENDMDL
MODEL 7
REMARK VINA RESULT:      -7.4      3.532      8.879
REMARK  Name = 
REMARK  12 active torsions:
REMARK  status: ('A' for Active; 'I' for Inactive)
REMARK    1  A    between atoms: C_1  and  O_2
REMARK    2  A    between atoms: O_2  and  C_3
REMARK    3  A    between atoms: C_5  and  O_6
REMARK    4  A    between atoms: O_6  and  C_7
REMARK    5  A    between atoms: C_8  and  N_9
REMARK    6  A    between atoms: N_9  and  C_10
REMARK    7  A    between atoms: C_11  and  C_13
REMARK    8  A    between atoms: N_15  and  C_16
REMARK    9  A    between atoms: C_21  and  O_22
REMARK   10  A    between atoms: O_22  and  C_23
REMARK   11  A    between atoms: C_24  and  O_25
REMARK   12  A    between atoms: O_25  and  C_26
REMARK                            x       y       z     vdW  Elec       q    Type
REMARK                         _______ _______ _______ _____ _____    ______ ____
ROOT
ATOM      1  C   UNL     1       0.613   9.866  18.773  0.00  0.00    +0.000 A 
ATOM      2  C   UNL     1       1.128  10.600  19.780  0.00  0.00    +0.000 A 
ATOM      3  N   UNL     1       0.386  11.409  20.610  0.00  0.00    +0.000 N 
ATOM      4  C   UNL     1       0.905  11.783  21.914  0.00  0.00    +0.000 C 
ATOM      5  C   UNL     1      -0.920  11.777  20.321  0.00  0.00    +0.000 A 
ATOM      6  O   UNL     1      -1.607  12.494  21.045  0.00  0.00    +0.000 OA
ATOM      7  C   UNL     1      -1.483  11.213  19.068  0.00  0.00    +0.000 A 
ATOM      8  C   UNL     1      -2.728  11.710  18.645  0.00  0.00    +0.000 A 
ATOM      9  C   UNL     1      -3.346  11.216  17.495  0.00  0.00    +0.000 A 
ATOM     10  C   UNL     1      -2.708  10.168  16.808  0.00  0.00    +0.000 A 
ATOM     11  C   UNL     1      -1.439   9.691  17.243  0.00  0.00    +0.000 A 
ATOM     12  C   UNL     1      -0.778  10.228  18.354  0.00  0.00    +0.000 A 
ENDROOT
BRANCH   1  15
ATOM     13  N   UNL     1       2.019   7.725  18.715  0.00  0.00    +0.000 N 
ATOM     14  C   UNL     1       1.635   7.399  20.099  0.00  0.00    +0.000 C 
ATOM     15  C   UNL     1       1.536   8.870  18.024  0.00  0.00    +0.000 C 
ATOM     16  O   UNL     1       1.860   9.164  16.872  0.00  0.00    +0.000 OA
BRANCH  13  20
ATOM     17  C   UNL     1       5.264   5.203  17.356  0.00  0.00    +0.000 A 
ATOM     18  C   UNL     1       3.969   4.673  17.464  0.00  0.00    +0.000 A 
ATOM     19  C   UNL     1       2.844   5.444  17.855  0.00  0.00    +0.000 A 
ATOM     20  C   UNL     1       3.021   6.809  18.166  0.00  0.00    +0.000 A 
ATOM     21  C   UNL     1       4.329   7.327  17.991  0.00  0.00    +0.000 A 
ATOM     22  C   UNL     1       5.430   6.561  17.597  0.00  0.00    +0.000 A 
ATOM     23 CL   UNL     1       6.913   7.423  17.400  0.00  0.00    +0.000 Cl
BRANCH  17  25
ATOM     24  C   UNL     1       6.124   3.825  15.603  0.00  0.00    +0.000 C 
ATOM     25  O   UNL     1       6.203   4.296  16.946  0.00  0.00    +0.000 OA
ENDBRANCH  17  25
BRANCH  19  26
ATOM     26  O   UNL     1       1.627   4.846  18.065  0.00  0.00    +0.000 OA
ATOM     27  C   UNL     1       1.671   3.481  18.490  0.00  0.00    +0.000 C 
ENDBRANCH  19  26
ENDBRANCH  13  20
ENDBRANCH   1  15
BRANCH   9  28
ATOM     28  O   UNL     1      -4.528  11.718  17.024  0.00  0.00    +0.000 OA
ATOM     29  C   UNL     1      -5.725  11.426  17.741  0.00  0.00    +0.000 C 
ENDBRANCH   9  28
BRANCH  10  30
ATOM     30  O   UNL     1      -3.156   9.500  15.695  0.00  0.00    +0.000 OA
ATOM     31  C   UNL     1      -3.043  10.122  14.424  0.00  0.00    +0.000 C 
ENDBRANCH  10  30
TORSDOF 6
ENDMDL
MODEL 8
REMARK VINA RESULT:      -7.2      3.705      8.919
REMARK  Name = 
REMARK  12 active torsions:
REMARK  status: ('A' for Active; 'I' for Inactive)
REMARK    1  A    between atoms: C_1  and  O_2
REMARK    2  A    between atoms: O_2  and  C_3
REMARK    3  A    between atoms: C_5  and  O_6
REMARK    4  A    between atoms: O_6  and  C_7
REMARK    5  A    between atoms: C_8  and  N_9
REMARK    6  A    between atoms: N_9  and  C_10
REMARK    7  A    between atoms: C_11  and  C_13
REMARK    8  A    between atoms: N_15  and  C_16
REMARK    9  A    between atoms: C_21  and  O_22
REMARK   10  A    between atoms: O_22  and  C_23
REMARK   11  A    between atoms: C_24  and  O_25
REMARK   12  A    between atoms: O_25  and  C_26
REMARK                            x       y       z     vdW  Elec       q    Type
REMARK                         _______ _______ _______ _____ _____    ______ ____
ROOT
ATOM      1  C   UNL     1       0.589  10.330  18.881  0.00  0.00    +0.000 A 
ATOM      2  C   UNL     1       1.139  11.252  19.696  0.00  0.00    +0.000 A 
ATOM      3  N   UNL     1       0.433  12.244  20.336  0.00  0.00    +0.000 N 
ATOM      4  C   UNL     1       0.984  12.881  21.520  0.00  0.00    +0.000 C 
ATOM      5  C   UNL     1      -0.868  12.576  19.989  0.00  0.00    +0.000 A 
ATOM      6  O   UNL     1      -1.524  13.453  20.545  0.00  0.00    +0.000 OA
ATOM      7  C   UNL     1      -1.467  11.768  18.897  0.00  0.00    +0.000 A 
ATOM      8  C   UNL     1      -2.707  12.194  18.391  0.00  0.00    +0.000 A 
ATOM      9  C   UNL     1      -3.358  11.477  17.385  0.00  0.00    +0.000 A 
ATOM     10  C   UNL     1      -2.758  10.286  16.937  0.00  0.00    +0.000 A 
ATOM     11  C   UNL     1      -1.495   9.881  17.451  0.00  0.00    +0.000 A 
ATOM     12  C   UNL     1      -0.800  10.630  18.409  0.00  0.00    +0.000 A 
ENDROOT
BRANCH   1  15
ATOM     13  N   UNL     1       1.776   8.086  19.230  0.00  0.00    +0.000 N 
ATOM     14  C   UNL     1       1.237   7.979  20.596  0.00  0.00    +0.000 C 
ATOM     15  C   UNL     1       1.473   9.168  18.358  0.00  0.00    +0.000 C 
ATOM     16  O   UNL     1       1.928   9.279  17.218  0.00  0.00    +0.000 OA
BRANCH  13  20
ATOM     17  C   UNL     1       4.865   5.253  18.153  0.00  0.00    +0.000 A 
ATOM     18  C   UNL     1       4.022   4.982  19.240  0.00  0.00    +0.000 A 
ATOM     19  C   UNL     1       2.956   5.834  19.628  0.00  0.00    +0.000 A 
ATOM     20  C   UNL     1       2.728   7.023  18.903  0.00  0.00    +0.000 A 
ATOM     21  C   UNL     1       3.559   7.238  17.775  0.00  0.00    +0.000 A 
ATOM     22  C   UNL     1       4.603   6.387  17.396  0.00  0.00    +0.000 A 
ATOM     23 CL   UNL     1       5.445   6.829  15.955  0.00  0.00    +0.000 Cl
BRANCH  17  25
ATOM     24  C   UNL     1       7.184   4.693  18.001  0.00  0.00    +0.000 C 
ATOM     25  O   UNL     1       5.818   4.294  17.936  0.00  0.00    +0.000 OA
ENDBRANCH  17  25
BRANCH  19  26
ATOM     26  O   UNL     1       2.243   5.585  20.774  0.00  0.00    +0.000 OA
ATOM     27  C   UNL     1       2.176   4.214  21.177  0.00  0.00    +0.000 C 
ENDBRANCH  19  26
ENDBRANCH  13  20
ENDBRANCH   1  15
BRANCH   9  28
ATOM     28  O   UNL     1      -4.535  11.897  16.829  0.00  0.00    +0.000 OA
ATOM     29  C   UNL     1      -5.747  11.653  17.539  0.00  0.00    +0.000 C 
ENDBRANCH   9  28
BRANCH  10  30
ATOM     30  O   UNL     1      -3.243   9.404  16.004  0.00  0.00    +0.000 OA
ATOM     31  C   UNL     1      -3.164   9.741  14.628  0.00  0.00    +0.000 C 
ENDBRANCH  10  30
TORSDOF 6
ENDMDL
MODEL 9
REMARK VINA RESULT:      -7.1      0.956      1.142
REMARK  Name = 
REMARK  12 active torsions:
REMARK  status: ('A' for Active; 'I' for Inactive)
REMARK    1  A    between atoms: C_1  and  O_2
REMARK    2  A    between atoms: O_2  and  C_3
REMARK    3  A    between atoms: C_5  and  O_6
REMARK    4  A    between atoms: O_6  and  C_7
REMARK    5  A    between atoms: C_8  and  N_9
REMARK    6  A    between atoms: N_9  and  C_10
REMARK    7  A    between atoms: C_11  and  C_13
REMARK    8  A    between atoms: N_15  and  C_16
REMARK    9  A    between atoms: C_21  and  O_22
REMARK   10  A    between atoms: O_22  and  C_23
REMARK   11  A    between atoms: C_24  and  O_25
REMARK   12  A    between atoms: O_25  and  C_26
REMARK                            x       y       z     vdW  Elec       q    Type
REMARK                         _______ _______ _______ _____ _____    ______ ____
ROOT
ATOM      1  C   UNL     1       2.647   5.801  19.014  0.00  0.00    +0.000 A 
ATOM      2  C   UNL     1       1.861   4.711  18.910  0.00  0.00    +0.000 A 
ATOM      3  N   UNL     1       2.265   3.509  18.375  0.00  0.00    +0.000 N 
ATOM      4  C   UNL     1       1.554   2.288  18.712  0.00  0.00    +0.000 C 
ATOM      5  C   UNL     1       3.428   3.378  17.630  0.00  0.00    +0.000 A 
ATOM      6  O   UNL     1       3.815   2.318  17.144  0.00  0.00    +0.000 OA
ATOM      7  C   UNL     1       4.231   4.616  17.471  0.00  0.00    +0.000 A 
ATOM      8  C   UNL     1       5.310   4.568  16.571  0.00  0.00    +0.000 A 
ATOM      9  C   UNL     1       6.138   5.676  16.381  0.00  0.00    +0.000 A 
ATOM     10  C   UNL     1       5.889   6.820  17.161  0.00  0.00    +0.000 A 
ATOM     11  C   UNL     1       4.782   6.853  18.054  0.00  0.00    +0.000 A 
ATOM     12  C   UNL     1       3.904   5.773  18.200  0.00  0.00    +0.000 A 
ENDROOT
BRANCH   1  15
ATOM     13  N   UNL     1       1.590   8.134  19.057  0.00  0.00    +0.000 N 
ATOM     14  C   UNL     1       1.460   8.136  17.589  0.00  0.00    +0.000 C 
ATOM     15  C   UNL     1       2.118   7.036  19.789  0.00  0.00    +0.000 C 
ATOM     16  O   UNL     1       2.247   7.026  21.014  0.00  0.00    +0.000 OA
BRANCH  13  20
ATOM     17  C   UNL     1       0.570  11.729  21.241  0.00  0.00    +0.000 A 
ATOM     18  C   UNL     1       1.199  11.830  19.992  0.00  0.00    +0.000 A 
ATOM     19  C   UNL     1       1.522  10.704  19.192  0.00  0.00    +0.000 A 
ATOM     20  C   UNL     1       1.215   9.411  19.667  0.00  0.00    +0.000 A 
ATOM     21  C   UNL     1       0.527   9.347  20.905  0.00  0.00    +0.000 A 
ATOM     22  C   UNL     1       0.205  10.464  21.683  0.00  0.00    +0.000 A 
ATOM     23 CL   UNL     1      -0.682  10.141  23.129  0.00  0.00    +0.000 Cl
BRANCH  17  25
ATOM     24  C   UNL     1      -0.162  13.994  21.023  0.00  0.00    +0.000 C 
ATOM     25  O   UNL     1       0.328  12.935  21.841  0.00  0.00    +0.000 OA
ENDBRANCH  17  25
BRANCH  19  26
ATOM     26  O   UNL     1       2.250  10.853  18.037  0.00  0.00    +0.000 OA
ATOM     27  C   UNL     1       2.763  12.165  17.792  0.00  0.00    +0.000 C 
ENDBRANCH  19  26
ENDBRANCH  13  20
ENDBRANCH   1  15
BRANCH   9  28
ATOM     28  O   UNL     1       7.158   5.682  15.470  0.00  0.00    +0.000 OA
ATOM     29  C   UNL     1       7.026   4.882  14.297  0.00  0.00    +0.000 C 
ENDBRANCH   9  28
BRANCH  10  30
ATOM     30  O   UNL     1       6.603   7.993  17.179  0.00  0.00    +0.000 OA
ATOM     31  C   UNL     1       7.861   8.026  17.835  0.00  0.00    +0.000 C 
ENDBRANCH  10  30
TORSDOF 6
ENDMDL
