MODEL 1
REMARK VINA RESULT:      -8.2      0.000      0.000
REMARK  Name = 
REMARK  9 active torsions:
REMARK  status: ('A' for Active; 'I' for Inactive)
REMARK    1  A    between atoms: C_1  and  O_2
REMARK    2  A    between atoms: O_2  and  C_3
REMARK    3  A    between atoms: C_5  and  C_6
REMARK    4  A    between atoms: N_7  and  N_8
REMARK    5  A    between atoms: N_8  and  C_9
REMARK    6  A    between atoms: C_14  and  N_15
REMARK    7  A    between atoms: C_20  and  O_21
REMARK    8  A    between atoms: O_21  and  C_22
REMARK    9  A    between atoms: C_22  and  C_24
REMARK                            x       y       z     vdW  Elec       q    Type
REMARK                         _______ _______ _______ _____ _____    ______ ____
ROOT
ATOM      1  C   UNL     1       2.773   5.872  19.657  0.00  0.00    +0.000 A 
ATOM      2  C   UNL     1       2.092   7.079  19.842  0.00  0.00    +0.000 A 
ATOM      3  C   UNL     1       2.181   8.094  18.886  0.00  0.00    +0.000 A 
ATOM      4  C   UNL     1       2.969   7.926  17.743  0.00  0.00    +0.000 A 
ATOM      5  C   UNL     1       3.660   6.729  17.552  0.00  0.00    +0.000 A 
ATOM      6  C   UNL     1       3.563   5.713  18.510  0.00  0.00    +0.000 A 
ENDROOT
BRANCH   1   8
ATOM      7  C   UNL     1       1.288   4.325  20.642  0.00  0.00    +0.000 C 
ATOM      8  O   UNL     1       2.625   4.800  20.496  0.00  0.00    +0.000 OA
ENDBRANCH   1   8
BRANCH   3   9
ATOM      9  C   UNL     1       1.377   9.313  19.105  0.00  0.00    +0.000 C 
ATOM     10  N   UNL     1       0.863   9.962  18.114  0.00  0.00    +0.000 NA
BRANCH  10  11
ATOM     11  N   UNL     1       0.128  11.056  18.451  0.00  0.00    +0.000 N 
ATOM     12  H   UNL     1       0.366  11.556  19.319  0.00  0.00    +0.000 HD
BRANCH  11  13
ATOM     13  C   UNL     1      -1.269  10.941  18.231  0.00  0.00    +0.000 A 
ATOM     14  C   UNL     1      -1.725   9.960  17.319  0.00  0.00    +0.000 A 
ATOM     15  C   UNL     1      -3.076   9.782  17.041  0.00  0.00    +0.000 A 
ATOM     16  C   UNL     1      -4.025  10.589  17.656  0.00  0.00    +0.000 A 
ATOM     17  C   UNL     1      -3.613  11.592  18.534  0.00  0.00    +0.000 A 
ATOM     18  C   UNL     1      -2.240  11.780  18.810  0.00  0.00    +0.000 A 
BRANCH  18  19
ATOM     19  N   UNL     1      -1.874  12.862  19.737  0.00  0.00    +0.000 N 
ATOM     20  O   UNL     1      -2.469  12.930  20.826  0.00  0.00    +0.000 OA
ATOM     21  O   UNL     1      -0.992  13.656  19.382  0.00  0.00    +0.000 OA
ENDBRANCH  18  19
ENDBRANCH  11  13
ENDBRANCH  10  11
ENDBRANCH   3   9
BRANCH   6  22
ATOM     22  O   UNL     1       4.166   4.483  18.176  0.00  0.00    +0.000 OA
BRANCH  22  23
ATOM     23  C   UNL     1       5.545   4.391  18.140  0.00  0.00    +0.000 C 
ATOM     24  O   UNL     1       6.299   4.251  19.093  0.00  0.00    +0.000 OA
BRANCH  23  25
ATOM     25  C   UNL     1       6.034   4.484  16.737  0.00  0.00    +0.000 A 
ATOM     26  C   UNL     1       5.437   3.650  15.776  0.00  0.00    +0.000 A 
ATOM     27  C   UNL     1       5.835   3.704  14.438  0.00  0.00    +0.000 A 
ATOM     28  C   UNL     1       6.835   4.591  14.044  0.00  0.00    +0.000 A 
ATOM     29  C   UNL     1       7.440   5.418  14.990  0.00  0.00    +0.000 A 
ATOM     30  C   UNL     1       7.041   5.361  16.326  0.00  0.00    +0.000 A 
ATOM     31  F   UNL     1       7.670   6.173  17.189  0.00  0.00    +0.000 F 
ENDBRANCH  23  25
ENDBRANCH  22  23
ENDBRANCH   6  22
TORSDOF 8
ENDMDL
MODEL 2
REMARK VINA RESULT:      -8.2      5.752      8.437
REMARK  Name = 
REMARK  9 active torsions:
REMARK  status: ('A' for Active; 'I' for Inactive)
REMARK    1  A    between atoms: C_1  and  O_2
REMARK    2  A    between atoms: O_2  and  C_3
REMARK    3  A    between atoms: C_5  and  C_6
REMARK    4  A    between atoms: N_7  and  N_8
REMARK    5  A    between atoms: N_8  and  C_9
REMARK    6  A    between atoms: C_14  and  N_15
REMARK    7  A    between atoms: C_20  and  O_21
REMARK    8  A    between atoms: O_21  and  C_22
REMARK    9  A    between atoms: C_22  and  C_24
REMARK                            x       y       z     vdW  Elec       q    Type
REMARK                         _______ _______ _______ _____ _____    ______ ____
ROOT
ATOM      1  C   UNL     1       5.139   6.375  17.525  0.00  0.00    +0.000 A 
ATOM      2  C   UNL     1       5.943   7.515  17.431  0.00  0.00    +0.000 A 
ATOM      3  C   UNL     1       7.300   7.452  17.758  0.00  0.00    +0.000 A 
ATOM      4  C   UNL     1       7.868   6.253  18.202  0.00  0.00    +0.000 A 
ATOM      5  C   UNL     1       7.074   5.111  18.307  0.00  0.00    +0.000 A 
ATOM      6  C   UNL     1       5.716   5.179  17.974  0.00  0.00    +0.000 A 
ENDROOT
BRANCH   1   8
ATOM      7  C   UNL     1       2.898   6.945  17.994  0.00  0.00    +0.000 C 
ATOM      8  O   UNL     1       3.837   6.348  17.102  0.00  0.00    +0.000 OA
ENDBRANCH   1   8
BRANCH   3   9
ATOM      9  C   UNL     1       8.108   8.672  17.565  0.00  0.00    +0.000 C 
ATOM     10  N   UNL     1       8.584   9.325  18.573  0.00  0.00    +0.000 NA
BRANCH  10  11
ATOM     11  N   UNL     1       9.328  10.420  18.261  0.00  0.00    +0.000 N 
ATOM     12  H   UNL     1      10.157  10.293  17.664  0.00  0.00    +0.000 HD
BRANCH  11  13
ATOM     13  C   UNL     1       9.533  11.339  19.322  0.00  0.00    +0.000 A 
ATOM     14  C   UNL     1       9.091  10.976  20.616  0.00  0.00    +0.000 A 
ATOM     15  C   UNL     1       9.247  11.817  21.714  0.00  0.00    +0.000 A 
ATOM     16  C   UNL     1       9.840  13.064  21.554  0.00  0.00    +0.000 A 
ATOM     17  C   UNL     1      10.256  13.474  20.287  0.00  0.00    +0.000 A 
ATOM     18  C   UNL     1      10.088  12.624  19.171  0.00  0.00    +0.000 A 
BRANCH  18  19
ATOM     19  N   UNL     1      10.539  13.122  17.862  0.00  0.00    +0.000 N 
ATOM     20  O   UNL     1      10.197  14.268  17.520  0.00  0.00    +0.000 OA
ATOM     21  O   UNL     1      11.233  12.371  17.163  0.00  0.00    +0.000 OA
ENDBRANCH  18  19
ENDBRANCH  11  13
ENDBRANCH  10  11
ENDBRANCH   3   9
BRANCH   6  22
ATOM     22  O   UNL     1       5.016   3.955  17.962  0.00  0.00    +0.000 OA
BRANCH  22  23
ATOM     23  C   UNL     1       4.688   3.349  19.160  0.00  0.00    +0.000 C 
ATOM     24  O   UNL     1       5.463   2.915  20.001  0.00  0.00    +0.000 OA
BRANCH  23  25
ATOM     25  C   UNL     1       3.210   3.282  19.320  0.00  0.00    +0.000 A 
ATOM     26  C   UNL     1       2.618   4.090  20.305  0.00  0.00    +0.000 A 
ATOM     27  C   UNL     1       1.233   4.090  20.492  0.00  0.00    +0.000 A 
ATOM     28  C   UNL     1       0.423   3.281  19.697  0.00  0.00    +0.000 A 
ATOM     29  C   UNL     1       1.000   2.469  18.721  0.00  0.00    +0.000 A 
ATOM     30  C   UNL     1       2.383   2.470  18.538  0.00  0.00    +0.000 A 
ATOM     31  F   UNL     1       2.878   1.657  17.592  0.00  0.00    +0.000 F 
ENDBRANCH  23  25
ENDBRANCH  22  23
ENDBRANCH   6  22
TORSDOF 8
ENDMDL
MODEL 3
REMARK VINA RESULT:      -8.0      3.187      9.302
REMARK  Name = 
REMARK  9 active torsions:
REMARK  status: ('A' for Active; 'I' for Inactive)
REMARK    1  A    between atoms: C_1  and  O_2
REMARK    2  A    between atoms: O_2  and  C_3
REMARK    3  A    between atoms: C_5  and  C_6
REMARK    4  A    between atoms: N_7  and  N_8
REMARK    5  A    between atoms: N_8  and  C_9
REMARK    6  A    between atoms: C_14  and  N_15
REMARK    7  A    between atoms: C_20  and  O_21
REMARK    8  A    between atoms: O_21  and  C_22
REMARK    9  A    between atoms: C_22  and  C_24
REMARK                            x       y       z     vdW  Elec       q    Type
REMARK                         _______ _______ _______ _____ _____    ______ ____
ROOT
ATOM      1  C   UNL     1       1.165   8.854  20.650  0.00  0.00    +0.000 A 
ATOM      2  C   UNL     1       1.812   7.657  20.330  0.00  0.00    +0.000 A 
ATOM      3  C   UNL     1       2.265   7.425  19.028  0.00  0.00    +0.000 A 
ATOM      4  C   UNL     1       2.060   8.377  18.024  0.00  0.00    +0.000 A 
ATOM      5  C   UNL     1       1.408   9.572  18.331  0.00  0.00    +0.000 A 
ATOM      6  C   UNL     1       0.960   9.801  19.637  0.00  0.00    +0.000 A 
ENDROOT
BRANCH   1   8
ATOM      7  C   UNL     1      -0.523   8.839  22.299  0.00  0.00    +0.000 C 
ATOM      8  O   UNL     1       0.810   9.187  21.930  0.00  0.00    +0.000 OA
ENDBRANCH   1   8
BRANCH   3   9
ATOM      9  C   UNL     1       3.007   6.173  18.775  0.00  0.00    +0.000 C 
ATOM     10  N   UNL     1       2.696   5.399  17.789  0.00  0.00    +0.000 NA
BRANCH  10  11
ATOM     11  N   UNL     1       3.468   4.288  17.653  0.00  0.00    +0.000 N 
ATOM     12  H   UNL     1       3.517   3.628  18.442  0.00  0.00    +0.000 HD
BRANCH  11  13
ATOM     13  C   UNL     1       4.716   4.490  17.008  0.00  0.00    +0.000 A 
ATOM     14  C   UNL     1       4.733   4.576  15.596  0.00  0.00    +0.000 A 
ATOM     15  C   UNL     1       5.912   4.769  14.882  0.00  0.00    +0.000 A 
ATOM     16  C   UNL     1       7.124   4.868  15.556  0.00  0.00    +0.000 A 
ATOM     17  C   UNL     1       7.152   4.751  16.946  0.00  0.00    +0.000 A 
ATOM     18  C   UNL     1       5.957   4.546  17.670  0.00  0.00    +0.000 A 
BRANCH  18  19
ATOM     19  N   UNL     1       6.060   4.421  19.132  0.00  0.00    +0.000 N 
ATOM     20  O   UNL     1       5.426   3.510  19.691  0.00  0.00    +0.000 OA
ATOM     21  O   UNL     1       6.772   5.236  19.735  0.00  0.00    +0.000 OA
ENDBRANCH  18  19
ENDBRANCH  11  13
ENDBRANCH  10  11
ENDBRANCH   3   9
BRANCH   6  22
ATOM     22  O   UNL     1       0.447  11.088  19.902  0.00  0.00    +0.000 OA
BRANCH  22  23
ATOM     23  C   UNL     1      -0.038  11.853  18.858  0.00  0.00    +0.000 C 
ATOM     24  O   UNL     1       0.609  12.581  18.117  0.00  0.00    +0.000 OA
BRANCH  23  25
ATOM     25  C   UNL     1      -1.511  11.683  18.731  0.00  0.00    +0.000 A 
ATOM     26  C   UNL     1      -2.335  12.402  19.614  0.00  0.00    +0.000 A 
ATOM     27  C   UNL     1      -3.726  12.303  19.533  0.00  0.00    +0.000 A 
ATOM     28  C   UNL     1      -4.311  11.483  18.570  0.00  0.00    +0.000 A 
ATOM     29  C   UNL     1      -3.504  10.759  17.693  0.00  0.00    +0.000 A 
ATOM     30  C   UNL     1      -2.115  10.859  17.777  0.00  0.00    +0.000 A 
ATOM     31  F   UNL     1      -1.394  10.127  16.914  0.00  0.00    +0.000 F 
ENDBRANCH  23  25
ENDBRANCH  22  23
ENDBRANCH   6  22
TORSDOF 8
ENDMDL
MODEL 4
REMARK VINA RESULT:      -8.0      2.025      2.401
REMARK  Name = 
REMARK  9 active torsions:
REMARK  status: ('A' for Active; 'I' for Inactive)
REMARK    1  A    between atoms: C_1  and  O_2
REMARK    2  A    between atoms: O_2  and  C_3
REMARK    3  A    between atoms: C_5  and  C_6
REMARK    4  A    between atoms: N_7  and  N_8
REMARK    5  A    between atoms: N_8  and  C_9
REMARK    6  A    between atoms: C_14  and  N_15
REMARK    7  A    between atoms: C_20  and  O_21
REMARK    8  A    between atoms: O_21  and  C_22
REMARK    9  A    between atoms: C_22  and  C_24
REMARK                            x       y       z     vdW  Elec       q    Type
REMARK                         _______ _______ _______ _____ _____    ______ ____
ROOT
ATOM      1  C   UNL     1       1.923   4.847  19.780  0.00  0.00    +0.000 A 
ATOM      2  C   UNL     1       1.634   6.019  20.484  0.00  0.00    +0.000 A 
ATOM      3  C   UNL     1       1.850   7.268  19.896  0.00  0.00    +0.000 A 
ATOM      4  C   UNL     1       2.378   7.363  18.604  0.00  0.00    +0.000 A 
ATOM      5  C   UNL     1       2.678   6.200  17.895  0.00  0.00    +0.000 A 
ATOM      6  C   UNL     1       2.455   4.951  18.487  0.00  0.00    +0.000 A 
ENDROOT
BRANCH   1   8
ATOM      7  C   UNL     1       2.208   3.269  21.512  0.00  0.00    +0.000 C 
ATOM      8  O   UNL     1       1.618   3.600  20.257  0.00  0.00    +0.000 OA
ENDBRANCH   1   8
BRANCH   3   9
ATOM      9  C   UNL     1       1.452   8.464  20.665  0.00  0.00    +0.000 C 
ATOM     10  N   UNL     1       1.092   9.552  20.070  0.00  0.00    +0.000 NA
BRANCH  10  11
ATOM     11  N   UNL     1       0.731  10.575  20.891  0.00  0.00    +0.000 N 
ATOM     12  H   UNL     1       0.858  10.455  21.905  0.00  0.00    +0.000 HD
BRANCH  11  13
ATOM     13  C   UNL     1      -0.479  11.232  20.548  0.00  0.00    +0.000 A 
ATOM     14  C   UNL     1      -0.833  11.311  19.180  0.00  0.00    +0.000 A 
ATOM     15  C   UNL     1      -1.999  11.940  18.754  0.00  0.00    +0.000 A 
ATOM     16  C   UNL     1      -2.849  12.530  19.682  0.00  0.00    +0.000 A 
ATOM     17  C   UNL     1      -2.515  12.505  21.036  0.00  0.00    +0.000 A 
ATOM     18  C   UNL     1      -1.328  11.875  21.468  0.00  0.00    +0.000 A 
BRANCH  18  19
ATOM     19  N   UNL     1      -1.032  11.895  22.909  0.00  0.00    +0.000 N 
ATOM     20  O   UNL     1      -0.787  10.816  23.475  0.00  0.00    +0.000 OA
ATOM     21  O   UNL     1      -1.046  12.990  23.489  0.00  0.00    +0.000 OA
ENDBRANCH  18  19
ENDBRANCH  11  13
ENDBRANCH  10  11
ENDBRANCH   3   9
BRANCH   6  22
ATOM     22  O   UNL     1       2.641   3.826  17.657  0.00  0.00    +0.000 OA
BRANCH  22  23
ATOM     23  C   UNL     1       3.761   3.034  17.828  0.00  0.00    +0.000 C 
ATOM     24  O   UNL     1       3.801   1.912  18.314  0.00  0.00    +0.000 OA
BRANCH  23  25
ATOM     25  C   UNL     1       4.973   3.736  17.326  0.00  0.00    +0.000 A 
ATOM     26  C   UNL     1       5.213   3.727  15.942  0.00  0.00    +0.000 A 
ATOM     27  C   UNL     1       6.322   4.385  15.404  0.00  0.00    +0.000 A 
ATOM     28  C   UNL     1       7.206   5.059  16.244  0.00  0.00    +0.000 A 
ATOM     29  C   UNL     1       6.983   5.070  17.620  0.00  0.00    +0.000 A 
ATOM     30  C   UNL     1       5.876   4.410  18.154  0.00  0.00    +0.000 A 
ATOM     31  F   UNL     1       5.724   4.446  19.487  0.00  0.00    +0.000 F 
ENDBRANCH  23  25
ENDBRANCH  22  23
ENDBRANCH   6  22
TORSDOF 8
ENDMDL
MODEL 5
REMARK VINA RESULT:      -7.9      3.293      9.555
REMARK  Name = 
REMARK  9 active torsions:
REMARK  status: ('A' for Active; 'I' for Inactive)
REMARK    1  A    between atoms: C_1  and  O_2
REMARK    2  A    between atoms: O_2  and  C_3
REMARK    3  A    between atoms: C_5  and  C_6
REMARK    4  A    between atoms: N_7  and  N_8
REMARK    5  A    between atoms: N_8  and  C_9
REMARK    6  A    between atoms: C_14  and  N_15
REMARK    7  A    between atoms: C_20  and  O_21
REMARK    8  A    between atoms: O_21  and  C_22
REMARK    9  A    between atoms: C_22  and  C_24
REMARK                            x       y       z     vdW  Elec       q    Type
REMARK                         _______ _______ _______ _____ _____    ______ ____
ROOT
ATOM      1  C   UNL     1       0.960   9.545  21.142  0.00  0.00    +0.000 A 
ATOM      2  C   UNL     1       1.537   8.288  20.935  0.00  0.00    +0.000 A 
ATOM      3  C   UNL     1       1.919   7.889  19.652  0.00  0.00    +0.000 A 
ATOM      4  C   UNL     1       1.712   8.731  18.555  0.00  0.00    +0.000 A 
ATOM      5  C   UNL     1       1.129   9.984  18.748  0.00  0.00    +0.000 A 
ATOM      6  C   UNL     1       0.753  10.381  20.036  0.00  0.00    +0.000 A 
ENDROOT
BRANCH   1   8
ATOM      7  C   UNL     1      -0.484   9.494  23.007  0.00  0.00    +0.000 C 
ATOM      8  O   UNL     1       0.680  10.037  22.389  0.00  0.00    +0.000 OA
ENDBRANCH   1   8
BRANCH   3   9
ATOM      9  C   UNL     1       2.592   6.582  19.514  0.00  0.00    +0.000 C 
ATOM     10  N   UNL     1       3.737   6.477  18.927  0.00  0.00    +0.000 NA
BRANCH  10  11
ATOM     11  N   UNL     1       4.259   5.222  18.882  0.00  0.00    +0.000 N 
ATOM     12  H   UNL     1       4.595   4.802  19.760  0.00  0.00    +0.000 HD
BRANCH  11  13
ATOM     13  C   UNL     1       5.097   4.950  17.770  0.00  0.00    +0.000 A 
ATOM     14  C   UNL     1       4.516   4.357  16.624  0.00  0.00    +0.000 A 
ATOM     15  C   UNL     1       5.264   4.052  15.491  0.00  0.00    +0.000 A 
ATOM     16  C   UNL     1       6.628   4.318  15.466  0.00  0.00    +0.000 A 
ATOM     17  C   UNL     1       7.244   4.869  16.590  0.00  0.00    +0.000 A 
ATOM     18  C   UNL     1       6.487   5.169  17.744  0.00  0.00    +0.000 A 
BRANCH  18  19
ATOM     19  N   UNL     1       7.201   5.739  18.897  0.00  0.00    +0.000 N 
ATOM     20  O   UNL     1       7.991   6.677  18.695  0.00  0.00    +0.000 OA
ATOM     21  O   UNL     1       6.982   5.250  20.015  0.00  0.00    +0.000 OA
ENDBRANCH  18  19
ENDBRANCH  11  13
ENDBRANCH  10  11
ENDBRANCH   3   9
BRANCH   6  22
ATOM     22  O   UNL     1       0.311  11.713  20.173  0.00  0.00    +0.000 OA
BRANCH  22  23
ATOM     23  C   UNL     1      -0.223  12.367  19.078  0.00  0.00    +0.000 C 
ATOM     24  O   UNL     1       0.388  13.013  18.237  0.00  0.00    +0.000 OA
BRANCH  23  25
ATOM     25  C   UNL     1      -1.699  12.187  19.035  0.00  0.00    +0.000 A 
ATOM     26  C   UNL     1      -2.463  12.772  20.059  0.00  0.00    +0.000 A 
ATOM     27  C   UNL     1      -3.856  12.658  20.065  0.00  0.00    +0.000 A 
ATOM     28  C   UNL     1      -4.502  11.957  19.049  0.00  0.00    +0.000 A 
ATOM     29  C   UNL     1      -3.754  11.366  18.031  0.00  0.00    +0.000 A 
ATOM     30  C   UNL     1      -2.363  11.480  18.028  0.00  0.00    +0.000 A 
ATOM     31  F   UNL     1      -1.700  10.879  17.029  0.00  0.00    +0.000 F 
ENDBRANCH  23  25
ENDBRANCH  22  23
ENDBRANCH   6  22
TORSDOF 8
ENDMDL
MODEL 6
REMARK VINA RESULT:      -7.8      1.293      1.805
REMARK  Name = 
REMARK  9 active torsions:
REMARK  status: ('A' for Active; 'I' for Inactive)
REMARK    1  A    between atoms: C_1  and  O_2
REMARK    2  A    between atoms: O_2  and  C_3
REMARK    3  A    between atoms: C_5  and  C_6
REMARK    4  A    between atoms: N_7  and  N_8
REMARK    5  A    between atoms: N_8  and  C_9
REMARK    6  A    between atoms: C_14  and  N_15
REMARK    7  A    between atoms: C_20  and  O_21
REMARK    8  A    between atoms: O_21  and  C_22
REMARK    9  A    between atoms: C_22  and  C_24
REMARK                            x       y       z     vdW  Elec       q    Type
REMARK                         _______ _______ _______ _____ _____    ______ ____
ROOT
ATOM      1  C   UNL     1       2.342   5.550  20.314  0.00  0.00    +0.000 A 
ATOM      2  C   UNL     1       1.758   6.805  20.514  0.00  0.00    +0.000 A 
ATOM      3  C   UNL     1       1.804   7.773  19.508  0.00  0.00    +0.000 A 
ATOM      4  C   UNL     1       2.450   7.509  18.296  0.00  0.00    +0.000 A 
ATOM      5  C   UNL     1       3.043   6.263  18.089  0.00  0.00    +0.000 A 
ATOM      6  C   UNL     1       2.991   5.295  19.098  0.00  0.00    +0.000 A 
ENDROOT
BRANCH   1   8
ATOM      7  C   UNL     1       1.228   3.553  20.896  0.00  0.00    +0.000 C 
ATOM      8  O   UNL     1       2.223   4.524  21.213  0.00  0.00    +0.000 OA
ENDBRANCH   1   8
BRANCH   3   9
ATOM      9  C   UNL     1       1.103   9.049  19.755  0.00  0.00    +0.000 C 
ATOM     10  N   UNL     1       0.818   9.854  18.786  0.00  0.00    +0.000 NA
BRANCH  10  11
ATOM     11  N   UNL     1       0.154  10.986  19.142  0.00  0.00    +0.000 N 
ATOM     12  H   UNL     1       0.325  11.378  20.079  0.00  0.00    +0.000 HD
BRANCH  11  13
ATOM     13  C   UNL     1      -1.207  11.043  18.748  0.00  0.00    +0.000 A 
ATOM     14  C   UNL     1      -1.618  10.256  17.646  0.00  0.00    +0.000 A 
ATOM     15  C   UNL     1      -2.932  10.254  17.189  0.00  0.00    +0.000 A 
ATOM     16  C   UNL     1      -3.886  11.051  17.810  0.00  0.00    +0.000 A 
ATOM     17  C   UNL     1      -3.512  11.868  18.878  0.00  0.00    +0.000 A 
ATOM     18  C   UNL     1      -2.176  11.878  19.335  0.00  0.00    +0.000 A 
BRANCH  18  19
ATOM     19  N   UNL     1      -1.848  12.772  20.458  0.00  0.00    +0.000 N 
ATOM     20  O   UNL     1      -1.175  12.313  21.397  0.00  0.00    +0.000 OA
ATOM     21  O   UNL     1      -2.264  13.938  20.412  0.00  0.00    +0.000 OA
ENDBRANCH  18  19
ENDBRANCH  11  13
ENDBRANCH  10  11
ENDBRANCH   3   9
BRANCH   6  22
ATOM     22  O   UNL     1       3.480   4.016  18.760  0.00  0.00    +0.000 OA
BRANCH  22  23
ATOM     23  C   UNL     1       4.774   3.672  19.101  0.00  0.00    +0.000 C 
ATOM     24  O   UNL     1       5.122   2.781  19.865  0.00  0.00    +0.000 OA
BRANCH  23  25
ATOM     25  C   UNL     1       5.747   4.551  18.397  0.00  0.00    +0.000 A 
ATOM     26  C   UNL     1       6.538   5.413  19.176  0.00  0.00    +0.000 A 
ATOM     27  C   UNL     1       7.485   6.248  18.579  0.00  0.00    +0.000 A 
ATOM     28  C   UNL     1       7.653   6.234  17.196  0.00  0.00    +0.000 A 
ATOM     29  C   UNL     1       6.869   5.388  16.411  0.00  0.00    +0.000 A 
ATOM     30  C   UNL     1       5.923   4.556  17.011  0.00  0.00    +0.000 A 
ATOM     31  F   UNL     1       5.191   3.776  16.201  0.00  0.00    +0.000 F 
ENDBRANCH  23  25
ENDBRANCH  22  23
ENDBRANCH   6  22
TORSDOF 8
ENDMDL
MODEL 7
REMARK VINA RESULT:      -7.8      2.051      3.097
REMARK  Name = 
REMARK  9 active torsions:
REMARK  status: ('A' for Active; 'I' for Inactive)
REMARK    1  A    between atoms: C_1  and  O_2
REMARK    2  A    between atoms: O_2  and  C_3
REMARK    3  A    between atoms: C_5  and  C_6
REMARK    4  A    between atoms: N_7  and  N_8
REMARK    5  A    between atoms: N_8  and  C_9
REMARK    6  A    between atoms: C_14  and  N_15
REMARK    7  A    between atoms: C_20  and  O_21
REMARK    8  A    between atoms: O_21  and  C_22
REMARK    9  A    between atoms: C_22  and  C_24
REMARK                            x       y       z     vdW  Elec       q    Type
REMARK                         _______ _______ _______ _____ _____    ______ ____
ROOT
ATOM      1  C   UNL     1       3.122   6.329  19.573  0.00  0.00    +0.000 A 
ATOM      2  C   UNL     1       2.190   7.326  19.874  0.00  0.00    +0.000 A 
ATOM      3  C   UNL     1       1.944   8.360  18.966  0.00  0.00    +0.000 A 
ATOM      4  C   UNL     1       2.640   8.422  17.754  0.00  0.00    +0.000 A 
ATOM      5  C   UNL     1       3.578   7.436  17.447  0.00  0.00    +0.000 A 
ATOM      6  C   UNL     1       3.818   6.401  18.358  0.00  0.00    +0.000 A 
ENDROOT
BRANCH   1   8
ATOM      7  C   UNL     1       2.172   4.809  21.108  0.00  0.00    +0.000 C 
ATOM      8  O   UNL     1       3.315   5.229  20.366  0.00  0.00    +0.000 OA
ENDBRANCH   1   8
BRANCH   3   9
ATOM      9  C   UNL     1       0.893   9.338  19.312  0.00  0.00    +0.000 C 
ATOM     10  N   UNL     1       0.097   9.811  18.411  0.00  0.00    +0.000 NA
BRANCH  10  11
ATOM     11  N   UNL     1      -0.839  10.689  18.861  0.00  0.00    +0.000 N 
ATOM     12  H   UNL     1      -1.031  10.722  19.872  0.00  0.00    +0.000 HD
BRANCH  11  13
ATOM     13  C   UNL     1      -2.006  10.797  18.062  0.00  0.00    +0.000 A 
ATOM     14  C   UNL     1      -2.036  10.111  16.825  0.00  0.00    +0.000 A 
ATOM     15  C   UNL     1      -3.137  10.165  15.976  0.00  0.00    +0.000 A 
ATOM     16  C   UNL     1      -4.249  10.920  16.329  0.00  0.00    +0.000 A 
ATOM     17  C   UNL     1      -4.244  11.640  17.524  0.00  0.00    +0.000 A 
ATOM     18  C   UNL     1      -3.122  11.593  18.381  0.00  0.00    +0.000 A 
BRANCH  18  19
ATOM     19  N   UNL     1      -3.179  12.384  19.620  0.00  0.00    +0.000 N 
ATOM     20  O   UNL     1      -4.268  12.470  20.213  0.00  0.00    +0.000 OA
ATOM     21  O   UNL     1      -2.137  12.929  20.009  0.00  0.00    +0.000 OA
ENDBRANCH  18  19
ENDBRANCH  11  13
ENDBRANCH  10  11
ENDBRANCH   3   9
BRANCH   6  22
ATOM     22  O   UNL     1       4.666   5.365  17.915  0.00  0.00    +0.000 OA
BRANCH  22  23
ATOM     23  C   UNL     1       4.189   4.439  17.007  0.00  0.00    +0.000 C 
ATOM     24  O   UNL     1       4.463   4.366  15.817  0.00  0.00    +0.000 OA
BRANCH  23  25
ATOM     25  C   UNL     1       3.257   3.491  17.675  0.00  0.00    +0.000 A 
ATOM     26  C   UNL     1       3.807   2.362  18.307  0.00  0.00    +0.000 A 
ATOM     27  C   UNL     1       2.989   1.445  18.970  0.00  0.00    +0.000 A 
ATOM     28  C   UNL     1       1.610   1.643  19.010  0.00  0.00    +0.000 A 
ATOM     29  C   UNL     1       1.051   2.755  18.382  0.00  0.00    +0.000 A 
ATOM     30  C   UNL     1       1.871   3.669  17.718  0.00  0.00    +0.000 A 
ATOM     31  F   UNL     1       1.272   4.711  17.122  0.00  0.00    +0.000 F 
ENDBRANCH  23  25
ENDBRANCH  22  23
ENDBRANCH   6  22
TORSDOF 8
ENDMDL
MODEL 8
REMARK VINA RESULT:      -7.8      3.265      4.527
REMARK  Name = 
REMARK  9 active torsions:
REMARK  status: ('A' for Active; 'I' for Inactive)
REMARK    1  A    between atoms: C_1  and  O_2
REMARK    2  A    between atoms: O_2  and  C_3
REMARK    3  A    between atoms: C_5  and  C_6
REMARK    4  A    between atoms: N_7  and  N_8
REMARK    5  A    between atoms: N_8  and  C_9
REMARK    6  A    between atoms: C_14  and  N_15
REMARK    7  A    between atoms: C_20  and  O_21
REMARK    8  A    between atoms: O_21  and  C_22
REMARK    9  A    between atoms: C_22  and  C_24
REMARK                            x       y       z     vdW  Elec       q    Type
REMARK                         _______ _______ _______ _____ _____    ______ ____
ROOT
ATOM      1  C   UNL     1       0.992   9.096  20.559  0.00  0.00    +0.000 A 
ATOM      2  C   UNL     1       0.063  10.084  20.219  0.00  0.00    +0.000 A 
ATOM      3  C   UNL     1      -0.134  10.438  18.881  0.00  0.00    +0.000 A 
ATOM      4  C   UNL     1       0.609   9.824  17.867  0.00  0.00    +0.000 A 
ATOM      5  C   UNL     1       1.544   8.842  18.196  0.00  0.00    +0.000 A 
ATOM      6  C   UNL     1       1.734   8.489  19.537  0.00  0.00    +0.000 A 
ENDROOT
BRANCH   1   8
ATOM      7  C   UNL     1       0.467   9.377  22.842  0.00  0.00    +0.000 C 
ATOM      8  O   UNL     1       1.139   8.623  21.836  0.00  0.00    +0.000 OA
ENDBRANCH   1   8
BRANCH   3   9
ATOM      9  C   UNL     1      -1.183  11.434  18.584  0.00  0.00    +0.000 C 
ATOM     10  N   UNL     1      -2.435  11.143  18.707  0.00  0.00    +0.000 NA
BRANCH  10  11
ATOM     11  N   UNL     1      -3.300  12.153  18.422  0.00  0.00    +0.000 N 
ATOM     12  H   UNL     1      -2.972  13.122  18.536  0.00  0.00    +0.000 HD
BRANCH  11  13
ATOM     13  C   UNL     1      -4.634  11.954  18.862  0.00  0.00    +0.000 A 
ATOM     14  C   UNL     1      -5.580  11.466  17.930  0.00  0.00    +0.000 A 
ATOM     15  C   UNL     1      -6.910  11.246  18.274  0.00  0.00    +0.000 A 
ATOM     16  C   UNL     1      -7.349  11.519  19.564  0.00  0.00    +0.000 A 
ATOM     17  C   UNL     1      -6.454  12.035  20.502  0.00  0.00    +0.000 A 
ATOM     18  C   UNL     1      -5.106  12.268  20.150  0.00  0.00    +0.000 A 
BRANCH  18  19
ATOM     19  N   UNL     1      -4.219  12.823  21.185  0.00  0.00    +0.000 N 
ATOM     20  O   UNL     1      -4.281  12.346  22.331  0.00  0.00    +0.000 OA
ATOM     21  O   UNL     1      -3.457  13.745  20.861  0.00  0.00    +0.000 OA
ENDBRANCH  18  19
ENDBRANCH  11  13
ENDBRANCH  10  11
ENDBRANCH   3   9
BRANCH   6  22
ATOM     22  O   UNL     1       2.584   7.389  19.776  0.00  0.00    +0.000 OA
BRANCH  22  23
ATOM     23  C   UNL     1       2.840   6.494  18.754  0.00  0.00    +0.000 C 
ATOM     24  O   UNL     1       3.533   6.686  17.764  0.00  0.00    +0.000 OA
BRANCH  23  25
ATOM     25  C   UNL     1       2.143   5.204  19.008  0.00  0.00    +0.000 A 
ATOM     26  C   UNL     1       1.947   4.337  17.920  0.00  0.00    +0.000 A 
ATOM     27  C   UNL     1       1.318   3.101  18.095  0.00  0.00    +0.000 A 
ATOM     28  C   UNL     1       0.877   2.718  19.360  0.00  0.00    +0.000 A 
ATOM     29  C   UNL     1       1.060   3.572  20.446  0.00  0.00    +0.000 A 
ATOM     30  C   UNL     1       1.686   4.806  20.268  0.00  0.00    +0.000 A 
ATOM     31  F   UNL     1       1.820   5.589  21.350  0.00  0.00    +0.000 F 
ENDBRANCH  23  25
ENDBRANCH  22  23
ENDBRANCH   6  22
TORSDOF 8
ENDMDL
MODEL 9
REMARK VINA RESULT:      -7.8      2.464      3.091
REMARK  Name = 
REMARK  9 active torsions:
REMARK  status: ('A' for Active; 'I' for Inactive)
REMARK    1  A    between atoms: C_1  and  O_2
REMARK    2  A    between atoms: O_2  and  C_3
REMARK    3  A    between atoms: C_5  and  C_6
REMARK    4  A    between atoms: N_7  and  N_8
REMARK    5  A    between atoms: N_8  and  C_9
REMARK    6  A    between atoms: C_14  and  N_15
REMARK    7  A    between atoms: C_20  and  O_21
REMARK    8  A    between atoms: O_21  and  C_22
REMARK    9  A    between atoms: C_22  and  C_24
REMARK                            x       y       z     vdW  Elec       q    Type
REMARK                         _______ _______ _______ _____ _____    ______ ____
ROOT
ATOM      1  C   UNL     1       1.785   4.866  19.814  0.00  0.00    +0.000 A 
ATOM      2  C   UNL     1       1.656   5.919  20.724  0.00  0.00    +0.000 A 
ATOM      3  C   UNL     1       1.914   7.233  20.326  0.00  0.00    +0.000 A 
ATOM      4  C   UNL     1       2.324   7.511  19.018  0.00  0.00    +0.000 A 
ATOM      5  C   UNL     1       2.465   6.468  18.103  0.00  0.00    +0.000 A 
ATOM      6  C   UNL     1       2.201   5.153  18.506  0.00  0.00    +0.000 A 
ENDROOT
BRANCH   1   8
ATOM      7  C   UNL     1       1.931   3.082  21.351  0.00  0.00    +0.000 C 
ATOM      8  O   UNL     1       1.429   3.578  20.112  0.00  0.00    +0.000 OA
ENDBRANCH   1   8
BRANCH   3   9
ATOM      9  C   UNL     1       1.684   8.305  21.315  0.00  0.00    +0.000 C 
ATOM     10  N   UNL     1       0.689   9.119  21.200  0.00  0.00    +0.000 NA
BRANCH  10  11
ATOM     11  N   UNL     1       0.577  10.049  22.186  0.00  0.00    +0.000 N 
ATOM     12  H   UNL     1       0.724   9.748  23.160  0.00  0.00    +0.000 HD
BRANCH  11  13
ATOM     13  C   UNL     1      -0.492  10.969  22.037  0.00  0.00    +0.000 A 
ATOM     14  C   UNL     1      -1.425  11.089  23.095  0.00  0.00    +0.000 A 
ATOM     15  C   UNL     1      -2.506  11.963  23.031  0.00  0.00    +0.000 A 
ATOM     16  C   UNL     1      -2.704  12.742  21.898  0.00  0.00    +0.000 A 
ATOM     17  C   UNL     1      -1.827  12.626  20.819  0.00  0.00    +0.000 A 
ATOM     18  C   UNL     1      -0.735  11.732  20.879  0.00  0.00    +0.000 A 
BRANCH  18  19
ATOM     19  N   UNL     1       0.144  11.651  19.702  0.00  0.00    +0.000 N 
ATOM     20  O   UNL     1      -0.319  11.168  18.654  0.00  0.00    +0.000 OA
ATOM     21  O   UNL     1       1.306  12.065  19.816  0.00  0.00    +0.000 OA
ENDBRANCH  18  19
ENDBRANCH  11  13
ENDBRANCH  10  11
ENDBRANCH   3   9
BRANCH   6  22
ATOM     22  O   UNL     1       2.220   4.175  17.491  0.00  0.00    +0.000 OA
BRANCH  22  23
ATOM     23  C   UNL     1       3.208   3.208  17.498  0.00  0.00    +0.000 C 
ATOM     24  O   UNL     1       3.058   2.004  17.653  0.00  0.00    +0.000 OA
BRANCH  23  25
ATOM     25  C   UNL     1       4.543   3.829  17.285  0.00  0.00    +0.000 A 
ATOM     26  C   UNL     1       4.931   4.117  15.965  0.00  0.00    +0.000 A 
ATOM     27  C   UNL     1       6.163   4.720  15.698  0.00  0.00    +0.000 A 
ATOM     28  C   UNL     1       7.023   5.041  16.746  0.00  0.00    +0.000 A 
ATOM     29  C   UNL     1       6.653   4.753  18.059  0.00  0.00    +0.000 A 
ATOM     30  C   UNL     1       5.423   4.150  18.323  0.00  0.00    +0.000 A 
ATOM     31  F   UNL     1       5.130   3.888  19.606  0.00  0.00    +0.000 F 
ENDBRANCH  23  25
ENDBRANCH  22  23
ENDBRANCH   6  22
TORSDOF 8
ENDMDL
