MODEL 1
REMARK VINA RESULT:      -8.2      0.000      0.000
REMARK  Name = 
REMARK  13 active torsions:
REMARK  status: ('A' for Active; 'I' for Inactive)
REMARK    1  A    between atoms: C_1  and  O_2
REMARK    2  A    between atoms: O_2  and  C_3
REMARK    3  A    between atoms: N_8  and  C_9
REMARK    4  A    between atoms: C_9  and  C_10
REMARK    5  A    between atoms: C_10  and  C_11
REMARK    6  A    between atoms: C_11  and  C_12
REMARK    7  A    between atoms: C_12  and  C_13
REMARK    8  A    between atoms: C_16  and  C_17
REMARK    9  A    between atoms: C_17  and  C_18
REMARK   10  A    between atoms: C_18  and  C_19
REMARK   11  A    between atoms: C_18  and  C_23
REMARK   12  A    between atoms: C_19  and  C_20
REMARK   13  A    between atoms: C_20  and  O_22
REMARK                            x       y       z     vdW  Elec       q    Type
REMARK                         _______ _______ _______ _____ _____    ______ ____
ROOT
ATOM      1  C   UNL     1       8.483   8.836  18.321  0.00  0.00    +0.000 A 
ATOM      2  N   UNL     1       7.757   9.203  17.256  0.00  0.00    +0.000 NA
ATOM      3  O   UNL     1       7.055   8.039  16.937  0.00  0.00    +0.000 OA
ATOM      4  C   UNL     1       7.448   7.097  17.841  0.00  0.00    +0.000 A 
ATOM      5  N   UNL     1       8.365   7.522  18.680  0.00  0.00    +0.000 NA
ENDROOT
BRANCH   1   6
ATOM      6  C   UNL     1       9.192   9.814  19.184  0.00  0.00    +0.000 C 
BRANCH   6   7
ATOM      7  C   UNL     1       9.359  11.136  18.441  0.00  0.00    +0.000 C 
BRANCH   7   8
ATOM      8  C   UNL     1      10.767  11.342  17.888  0.00  0.00    +0.000 C 
BRANCH   8   9
ATOM      9  C   UNL     1      11.453  12.432  18.706  0.00  0.00    +0.000 C 
BRANCH   9  15
ATOM     10  C   UNL     1       9.073  16.010  18.745  0.00  0.00    +0.000 A 
ATOM     11  C   UNL     1       9.421  17.022  17.864  0.00  0.00    +0.000 A 
ATOM     12  C   UNL     1      10.506  16.801  17.037  0.00  0.00    +0.000 A 
ATOM     13  N   UNL     1      11.247  15.669  17.033  0.00  0.00    +0.000 NA
ATOM     14  C   UNL     1      10.923  14.705  17.915  0.00  0.00    +0.000 A 
ATOM     15  N   UNL     1      11.739  13.598  17.910  0.00  0.00    +0.000 N 
ATOM     16  C   UNL     1       9.849  14.853  18.786  0.00  0.00    +0.000 A 
ATOM     17  H   UNL     1      12.375  13.566  17.125  0.00  0.00    +0.000 HD
BRANCH  10  19
ATOM     18  C   UNL     1       7.985  14.967  20.562  0.00  0.00    +0.000 C 
ATOM     19  O   UNL     1       8.034  16.044  19.631  0.00  0.00    +0.000 OA
ENDBRANCH  10  19
ENDBRANCH   9  15
ENDBRANCH   8   9
ENDBRANCH   7   8
ENDBRANCH   6   7
ENDBRANCH   1   6
BRANCH   4  20
ATOM     20  C   UNL     1       6.721   5.807  17.822  0.00  0.00    +0.000 C 
BRANCH  20  21
ATOM     21  C   UNL     1       5.335   5.913  17.136  0.00  0.00    +0.000 C 
BRANCH  21  22
ATOM     22  C   UNL     1       4.215   5.258  17.943  0.00  0.00    +0.000 A 
ATOM     23  C   UNL     1       3.905   5.663  19.263  0.00  0.00    +0.000 A 
ATOM     24  C   UNL     1       2.872   5.057  19.987  0.00  0.00    +0.000 A 
ATOM     25  C   UNL     1       2.182   4.033  19.384  0.00  0.00    +0.000 A 
ATOM     26  C   UNL     1       2.484   3.611  18.112  0.00  0.00    +0.000 A 
ATOM     27  C   UNL     1       3.486   4.199  17.367  0.00  0.00    +0.000 A 
ATOM     28  O   UNL     1       1.695   2.578  17.711  0.00  0.00    +0.000 OA
ATOM     29  C   UNL     1       0.876   2.388  18.885  0.00  0.00    +0.000 C 
ATOM     30  O   UNL     1       1.163   3.328  19.941  0.00  0.00    +0.000 OA
ENDBRANCH  21  22
BRANCH  21  31
ATOM     31  C   UNL     1       5.301   5.428  15.673  0.00  0.00    +0.000 C 
BRANCH  31  32
ATOM     32  C   UNL     1       6.531   4.659  15.267  0.00  0.00    +0.000 C 
ATOM     33  O   UNL     1       7.535   5.182  14.811  0.00  0.00    +0.000 OA
BRANCH  32  34
ATOM     34  O   UNL     1       6.440   3.331  15.485  0.00  0.00    +0.000 OA
ATOM     35  H   UNL     1       5.524   2.999  15.564  0.00  0.00    +0.000 HD
ENDBRANCH  32  34
ENDBRANCH  31  32
ENDBRANCH  21  31
ENDBRANCH  20  21
ENDBRANCH   4  20
TORSDOF 12
ENDMDL
MODEL 2
REMARK VINA RESULT:      -8.0      2.655      4.408
REMARK  Name = 
REMARK  13 active torsions:
REMARK  status: ('A' for Active; 'I' for Inactive)
REMARK    1  A    between atoms: C_1  and  O_2
REMARK    2  A    between atoms: O_2  and  C_3
REMARK    3  A    between atoms: N_8  and  C_9
REMARK    4  A    between atoms: C_9  and  C_10
REMARK    5  A    between atoms: C_10  and  C_11
REMARK    6  A    between atoms: C_11  and  C_12
REMARK    7  A    between atoms: C_12  and  C_13
REMARK    8  A    between atoms: C_16  and  C_17
REMARK    9  A    between atoms: C_17  and  C_18
REMARK   10  A    between atoms: C_18  and  C_19
REMARK   11  A    between atoms: C_18  and  C_23
REMARK   12  A    between atoms: C_19  and  C_20
REMARK   13  A    between atoms: C_20  and  O_22
REMARK                            x       y       z     vdW  Elec       q    Type
REMARK                         _______ _______ _______ _____ _____    ______ ____
ROOT
ATOM      1  C   UNL     1       6.784   6.215  18.498  0.00  0.00    +0.000 A 
ATOM      2  N   UNL     1       7.251   5.385  19.441  0.00  0.00    +0.000 NA
ATOM      3  O   UNL     1       6.120   4.653  19.804  0.00  0.00    +0.000 OA
ATOM      4  C   UNL     1       5.094   5.133  19.046  0.00  0.00    +0.000 A 
ATOM      5  N   UNL     1       5.439   6.132  18.265  0.00  0.00    +0.000 NA
ENDROOT
BRANCH   1   6
ATOM      6  C   UNL     1       7.675   7.009  17.615  0.00  0.00    +0.000 C 
BRANCH   6   7
ATOM      7  C   UNL     1       8.492   7.990  18.451  0.00  0.00    +0.000 C 
BRANCH   7   8
ATOM      8  C   UNL     1       8.356   9.438  17.984  0.00  0.00    +0.000 C 
BRANCH   8   9
ATOM      9  C   UNL     1       9.029  10.341  19.013  0.00  0.00    +0.000 C 
BRANCH   9  15
ATOM     10  C   UNL     1       9.870  14.364  17.757  0.00  0.00    +0.000 A 
ATOM     11  C   UNL     1      11.140  14.633  17.271  0.00  0.00    +0.000 A 
ATOM     12  C   UNL     1      12.040  13.584  17.225  0.00  0.00    +0.000 A 
ATOM     13  N   UNL     1      11.762  12.321  17.623  0.00  0.00    +0.000 NA
ATOM     14  C   UNL     1      10.537  12.076  18.124  0.00  0.00    +0.000 A 
ATOM     15  N   UNL     1      10.323  10.791  18.565  0.00  0.00    +0.000 N 
ATOM     16  C   UNL     1       9.578  13.079  18.210  0.00  0.00    +0.000 A 
ATOM     17  H   UNL     1      11.050  10.143  18.297  0.00  0.00    +0.000 HD
BRANCH  10  19
ATOM     18  C   UNL     1       9.191  16.501  18.497  0.00  0.00    +0.000 C 
ATOM     19  O   UNL     1       8.851  15.266  17.872  0.00  0.00    +0.000 OA
ENDBRANCH  10  19
ENDBRANCH   9  15
ENDBRANCH   8   9
ENDBRANCH   7   8
ENDBRANCH   6   7
ENDBRANCH   1   6
BRANCH   4  20
ATOM     20  C   UNL     1       3.806   4.407  19.123  0.00  0.00    +0.000 C 
BRANCH  20  21
ATOM     21  C   UNL     1       2.713   5.033  18.220  0.00  0.00    +0.000 C 
BRANCH  21  22
ATOM     22  C   UNL     1       2.276   6.422  18.685  0.00  0.00    +0.000 A 
ATOM     23  C   UNL     1       2.202   7.522  17.798  0.00  0.00    +0.000 A 
ATOM     24  C   UNL     1       1.795   8.786  18.237  0.00  0.00    +0.000 A 
ATOM     25  C   UNL     1       1.491   8.934  19.569  0.00  0.00    +0.000 A 
ATOM     26  C   UNL     1       1.579   7.884  20.449  0.00  0.00    +0.000 A 
ATOM     27  C   UNL     1       1.962   6.622  20.043  0.00  0.00    +0.000 A 
ATOM     28  O   UNL     1       1.251   8.247  21.719  0.00  0.00    +0.000 OA
ATOM     29  C   UNL     1       0.968   9.651  21.537  0.00  0.00    +0.000 C 
ATOM     30  O   UNL     1       1.092  10.087  20.168  0.00  0.00    +0.000 OA
ENDBRANCH  21  22
BRANCH  21  31
ATOM     31  C   UNL     1       1.484   4.135  17.976  0.00  0.00    +0.000 C 
BRANCH  31  32
ATOM     32  C   UNL     1       1.271   3.106  19.055  0.00  0.00    +0.000 C 
ATOM     33  O   UNL     1       1.727   1.974  19.010  0.00  0.00    +0.000 OA
BRANCH  32  34
ATOM     34  O   UNL     1       0.551   3.557  20.103  0.00  0.00    +0.000 OA
ATOM     35  H   UNL     1       1.044   3.582  20.947  0.00  0.00    +0.000 HD
ENDBRANCH  32  34
ENDBRANCH  31  32
ENDBRANCH  21  31
ENDBRANCH  20  21
ENDBRANCH   4  20
TORSDOF 12
ENDMDL
MODEL 3
REMARK VINA RESULT:      -8.0      6.482      9.408
REMARK  Name = 
REMARK  13 active torsions:
REMARK  status: ('A' for Active; 'I' for Inactive)
REMARK    1  A    between atoms: C_1  and  O_2
REMARK    2  A    between atoms: O_2  and  C_3
REMARK    3  A    between atoms: N_8  and  C_9
REMARK    4  A    between atoms: C_9  and  C_10
REMARK    5  A    between atoms: C_10  and  C_11
REMARK    6  A    between atoms: C_11  and  C_12
REMARK    7  A    between atoms: C_12  and  C_13
REMARK    8  A    between atoms: C_16  and  C_17
REMARK    9  A    between atoms: C_17  and  C_18
REMARK   10  A    between atoms: C_18  and  C_19
REMARK   11  A    between atoms: C_18  and  C_23
REMARK   12  A    between atoms: C_19  and  C_20
REMARK   13  A    between atoms: C_20  and  O_22
REMARK                            x       y       z     vdW  Elec       q    Type
REMARK                         _______ _______ _______ _____ _____    ______ ____
ROOT
ATOM      1  C   UNL     1       1.848   7.612  20.193  0.00  0.00    +0.000 A 
ATOM      2  N   UNL     1       2.225   8.036  18.979  0.00  0.00    +0.000 NA
ATOM      3  O   UNL     1       2.609   6.855  18.340  0.00  0.00    +0.000 OA
ATOM      4  C   UNL     1       2.431   5.854  19.248  0.00  0.00    +0.000 A 
ATOM      5  N   UNL     1       2.015   6.275  20.421  0.00  0.00    +0.000 NA
ENDROOT
BRANCH   1   6
ATOM      6  C   UNL     1       1.104   8.473  21.147  0.00  0.00    +0.000 C 
BRANCH   6   7
ATOM      7  C   UNL     1       0.706   9.779  20.466  0.00  0.00    +0.000 C 
BRANCH   7   8
ATOM      8  C   UNL     1      -0.609  10.354  20.987  0.00  0.00    +0.000 C 
BRANCH   8   9
ATOM      9  C   UNL     1      -0.971  11.572  20.142  0.00  0.00    +0.000 C 
BRANCH   9  15
ATOM     10  C   UNL     1      -4.641  11.802  17.918  0.00  0.00    +0.000 A 
ATOM     11  C   UNL     1      -4.622  11.370  16.602  0.00  0.00    +0.000 A 
ATOM     12  C   UNL     1      -3.423  10.894  16.104  0.00  0.00    +0.000 A 
ATOM     13  N   UNL     1      -2.274  10.826  16.816  0.00  0.00    +0.000 NA
ATOM     14  C   UNL     1      -2.293  11.278  18.083  0.00  0.00    +0.000 A 
ATOM     15  N   UNL     1      -1.089  11.239  18.746  0.00  0.00    +0.000 N 
ATOM     16  C   UNL     1      -3.458  11.779  18.654  0.00  0.00    +0.000 A 
ATOM     17  H   UNL     1      -0.376  10.711  18.260  0.00  0.00    +0.000 HD
BRANCH  10  19
ATOM     18  C   UNL     1      -6.174  11.524  19.692  0.00  0.00    +0.000 C 
ATOM     19  O   UNL     1      -5.728  12.297  18.581  0.00  0.00    +0.000 OA
ENDBRANCH  10  19
ENDBRANCH   9  15
ENDBRANCH   8   9
ENDBRANCH   7   8
ENDBRANCH   6   7
ENDBRANCH   1   6
BRANCH   4  20
ATOM     20  C   UNL     1       2.612   4.468  18.761  0.00  0.00    +0.000 C 
BRANCH  20  21
ATOM     21  C   UNL     1       4.028   3.912  19.056  0.00  0.00    +0.000 C 
BRANCH  21  22
ATOM     22  C   UNL     1       5.059   4.304  17.999  0.00  0.00    +0.000 A 
ATOM     23  C   UNL     1       6.210   5.063  18.318  0.00  0.00    +0.000 A 
ATOM     24  C   UNL     1       7.148   5.410  17.340  0.00  0.00    +0.000 A 
ATOM     25  C   UNL     1       6.903   5.012  16.047  0.00  0.00    +0.000 A 
ATOM     26  C   UNL     1       5.780   4.296  15.715  0.00  0.00    +0.000 A 
ATOM     27  C   UNL     1       4.845   3.925  16.660  0.00  0.00    +0.000 A 
ATOM     28  O   UNL     1       5.720   4.018  14.384  0.00  0.00    +0.000 OA
ATOM     29  C   UNL     1       6.927   4.660  13.918  0.00  0.00    +0.000 C 
ATOM     30  O   UNL     1       7.696   5.270  14.974  0.00  0.00    +0.000 OA
ENDBRANCH  21  22
BRANCH  21  31
ATOM     31  C   UNL     1       4.083   2.395  19.326  0.00  0.00    +0.000 C 
BRANCH  31  32
ATOM     32  C   UNL     1       4.304   2.053  20.776  0.00  0.00    +0.000 C 
ATOM     33  O   UNL     1       5.330   1.544  21.202  0.00  0.00    +0.000 OA
BRANCH  32  34
ATOM     34  O   UNL     1       3.274   2.389  21.579  0.00  0.00    +0.000 OA
ATOM     35  H   UNL     1       2.633   1.668  21.733  0.00  0.00    +0.000 HD
ENDBRANCH  32  34
ENDBRANCH  31  32
ENDBRANCH  21  31
ENDBRANCH  20  21
ENDBRANCH   4  20
TORSDOF 12
ENDMDL
MODEL 4
REMARK VINA RESULT:      -7.9      2.751      4.566
REMARK  Name = 
REMARK  13 active torsions:
REMARK  status: ('A' for Active; 'I' for Inactive)
REMARK    1  A    between atoms: C_1  and  O_2
REMARK    2  A    between atoms: O_2  and  C_3
REMARK    3  A    between atoms: N_8  and  C_9
REMARK    4  A    between atoms: C_9  and  C_10
REMARK    5  A    between atoms: C_10  and  C_11
REMARK    6  A    between atoms: C_11  and  C_12
REMARK    7  A    between atoms: C_12  and  C_13
REMARK    8  A    between atoms: C_16  and  C_17
REMARK    9  A    between atoms: C_17  and  C_18
REMARK   10  A    between atoms: C_18  and  C_19
REMARK   11  A    between atoms: C_18  and  C_23
REMARK   12  A    between atoms: C_19  and  C_20
REMARK   13  A    between atoms: C_20  and  O_22
REMARK                            x       y       z     vdW  Elec       q    Type
REMARK                         _______ _______ _______ _____ _____    ______ ____
ROOT
ATOM      1  C   UNL     1       6.969   5.717  18.555  0.00  0.00    +0.000 A 
ATOM      2  N   UNL     1       6.751   5.107  17.381  0.00  0.00    +0.000 NA
ATOM      3  O   UNL     1       5.543   4.439  17.594  0.00  0.00    +0.000 OA
ATOM      4  C   UNL     1       5.175   4.714  18.878  0.00  0.00    +0.000 A 
ATOM      5  N   UNL     1       6.046   5.452  19.528  0.00  0.00    +0.000 NA
ENDROOT
BRANCH   1   6
ATOM      6  C   UNL     1       8.000   6.770  18.731  0.00  0.00    +0.000 C 
BRANCH   6   7
ATOM      7  C   UNL     1       8.028   7.679  17.506  0.00  0.00    +0.000 C 
BRANCH   7   8
ATOM      8  C   UNL     1       7.768   9.147  17.840  0.00  0.00    +0.000 C 
BRANCH   8   9
ATOM      9  C   UNL     1       8.889   9.640  18.751  0.00  0.00    +0.000 C 
BRANCH   9  15
ATOM     10  C   UNL     1      10.035  13.238  20.801  0.00  0.00    +0.000 A 
ATOM     11  C   UNL     1      10.685  14.217  20.066  0.00  0.00    +0.000 A 
ATOM     12  C   UNL     1      10.912  13.962  18.726  0.00  0.00    +0.000 A 
ATOM     13  N   UNL     1      10.545  12.825  18.092  0.00  0.00    +0.000 NA
ATOM     14  C   UNL     1       9.944  11.866  18.820  0.00  0.00    +0.000 A 
ATOM     15  N   UNL     1       9.640  10.708  18.143  0.00  0.00    +0.000 N 
ATOM     16  C   UNL     1       9.686  12.043  20.176  0.00  0.00    +0.000 A 
ATOM     17  H   UNL     1       9.745  10.786  17.141  0.00  0.00    +0.000 HD
BRANCH  10  19
ATOM     18  C   UNL     1       8.333  13.441  22.425  0.00  0.00    +0.000 C 
ATOM     19  O   UNL     1       9.721  13.312  22.128  0.00  0.00    +0.000 OA
ENDBRANCH  10  19
ENDBRANCH   9  15
ENDBRANCH   8   9
ENDBRANCH   7   8
ENDBRANCH   6   7
ENDBRANCH   1   6
BRANCH   4  20
ATOM     20  C   UNL     1       3.834   4.254  19.303  0.00  0.00    +0.000 C 
BRANCH  20  21
ATOM     21  C   UNL     1       2.695   4.859  18.443  0.00  0.00    +0.000 C 
BRANCH  21  22
ATOM     22  C   UNL     1       2.277   6.256  18.900  0.00  0.00    +0.000 A 
ATOM     23  C   UNL     1       1.885   6.524  20.233  0.00  0.00    +0.000 A 
ATOM     24  C   UNL     1       1.511   7.810  20.638  0.00  0.00    +0.000 A 
ATOM     25  C   UNL     1       1.509   8.805  19.689  0.00  0.00    +0.000 A 
ATOM     26  C   UNL     1       1.864   8.559  18.386  0.00  0.00    +0.000 A 
ATOM     27  C   UNL     1       2.254   7.305  17.961  0.00  0.00    +0.000 A 
ATOM     28  O   UNL     1       1.779   9.672  17.609  0.00  0.00    +0.000 OA
ATOM     29  C   UNL     1       1.311  10.641  18.572  0.00  0.00    +0.000 C 
ATOM     30  O   UNL     1       1.163  10.102  19.901  0.00  0.00    +0.000 OA
ENDBRANCH  21  22
BRANCH  21  31
ATOM     31  C   UNL     1       1.459   3.953  18.278  0.00  0.00    +0.000 C 
BRANCH  31  32
ATOM     32  C   UNL     1       1.293   2.957  19.396  0.00  0.00    +0.000 C 
ATOM     33  O   UNL     1       1.836   1.863  19.414  0.00  0.00    +0.000 OA
BRANCH  32  34
ATOM     34  O   UNL     1       0.511   3.395  20.404  0.00  0.00    +0.000 OA
ATOM     35  H   UNL     1       0.728   3.010  21.276  0.00  0.00    +0.000 HD
ENDBRANCH  32  34
ENDBRANCH  31  32
ENDBRANCH  21  31
ENDBRANCH  20  21
ENDBRANCH   4  20
TORSDOF 12
ENDMDL
MODEL 5
REMARK VINA RESULT:      -7.9      6.623      9.304
REMARK  Name = 
REMARK  13 active torsions:
REMARK  status: ('A' for Active; 'I' for Inactive)
REMARK    1  A    between atoms: C_1  and  O_2
REMARK    2  A    between atoms: O_2  and  C_3
REMARK    3  A    between atoms: N_8  and  C_9
REMARK    4  A    between atoms: C_9  and  C_10
REMARK    5  A    between atoms: C_10  and  C_11
REMARK    6  A    between atoms: C_11  and  C_12
REMARK    7  A    between atoms: C_12  and  C_13
REMARK    8  A    between atoms: C_16  and  C_17
REMARK    9  A    between atoms: C_17  and  C_18
REMARK   10  A    between atoms: C_18  and  C_19
REMARK   11  A    between atoms: C_18  and  C_23
REMARK   12  A    between atoms: C_19  and  C_20
REMARK   13  A    between atoms: C_20  and  O_22
REMARK                            x       y       z     vdW  Elec       q    Type
REMARK                         _______ _______ _______ _____ _____    ______ ____
ROOT
ATOM      1  C   UNL     1       1.560   8.280  20.548  0.00  0.00    +0.000 A 
ATOM      2  N   UNL     1       1.634   8.921  19.373  0.00  0.00    +0.000 NA
ATOM      3  O   UNL     1       1.972   7.903  18.480  0.00  0.00    +0.000 OA
ATOM      4  C   UNL     1       2.075   6.763  19.221  0.00  0.00    +0.000 A 
ATOM      5  N   UNL     1       1.884   6.952  20.507  0.00  0.00    +0.000 NA
ENDROOT
BRANCH   1   6
ATOM      6  C   UNL     1       0.963   8.895  21.761  0.00  0.00    +0.000 C 
BRANCH   6   7
ATOM      7  C   UNL     1       0.662  10.367  21.501  0.00  0.00    +0.000 C 
BRANCH   7   8
ATOM      8  C   UNL     1      -0.823  10.647  21.280  0.00  0.00    +0.000 C 
BRANCH   8   9
ATOM      9  C   UNL     1      -0.969  11.525  20.040  0.00  0.00    +0.000 C 
BRANCH   9  15
ATOM     10  C   UNL     1      -4.048  11.407  17.045  0.00  0.00    +0.000 A 
ATOM     11  C   UNL     1      -3.864  10.555  15.967  0.00  0.00    +0.000 A 
ATOM     12  C   UNL     1      -2.703   9.805  15.940  0.00  0.00    +0.000 A 
ATOM     13  N   UNL     1      -1.741   9.850  16.890  0.00  0.00    +0.000 NA
ATOM     14  C   UNL     1      -1.913  10.704  17.916  0.00  0.00    +0.000 A 
ATOM     15  N   UNL     1      -0.882  10.753  18.826  0.00  0.00    +0.000 N 
ATOM     16  C   UNL     1      -3.050  11.499  18.013  0.00  0.00    +0.000 A 
ATOM     17  H   UNL     1      -0.203  10.015  18.709  0.00  0.00    +0.000 HD
BRANCH  10  19
ATOM     18  C   UNL     1      -6.221  11.626  17.943  0.00  0.00    +0.000 C 
ATOM     19  O   UNL     1      -5.128  12.219  17.246  0.00  0.00    +0.000 OA
ENDBRANCH  10  19
ENDBRANCH   9  15
ENDBRANCH   8   9
ENDBRANCH   7   8
ENDBRANCH   6   7
ENDBRANCH   1   6
BRANCH   4  20
ATOM     20  C   UNL     1       2.266   5.497  18.479  0.00  0.00    +0.000 C 
BRANCH  20  21
ATOM     21  C   UNL     1       3.442   4.652  19.032  0.00  0.00    +0.000 C 
BRANCH  21  22
ATOM     22  C   UNL     1       4.665   4.655  18.115  0.00  0.00    +0.000 A 
ATOM     23  C   UNL     1       5.985   4.690  18.623  0.00  0.00    +0.000 A 
ATOM     24  C   UNL     1       7.094   4.686  17.771  0.00  0.00    +0.000 A 
ATOM     25  C   UNL     1       6.861   4.673  16.417  0.00  0.00    +0.000 A 
ATOM     26  C   UNL     1       5.587   4.661  15.904  0.00  0.00    +0.000 A 
ATOM     27  C   UNL     1       4.474   4.649  16.720  0.00  0.00    +0.000 A 
ATOM     28  O   UNL     1       5.578   4.666  14.544  0.00  0.00    +0.000 OA
ATOM     29  C   UNL     1       6.994   4.701  14.262  0.00  0.00    +0.000 C 
ATOM     30  O   UNL     1       7.814   4.678  15.448  0.00  0.00    +0.000 OA
ENDBRANCH  21  22
BRANCH  21  31
ATOM     31  C   UNL     1       3.070   3.211  19.432  0.00  0.00    +0.000 C 
BRANCH  31  32
ATOM     32  C   UNL     1       2.159   2.532  18.443  0.00  0.00    +0.000 C 
ATOM     33  O   UNL     1       0.962   2.759  18.360  0.00  0.00    +0.000 OA
BRANCH  32  34
ATOM     34  O   UNL     1       2.791   1.664  17.626  0.00  0.00    +0.000 OA
ATOM     35  H   UNL     1       2.233   1.312  16.906  0.00  0.00    +0.000 HD
ENDBRANCH  32  34
ENDBRANCH  31  32
ENDBRANCH  21  31
ENDBRANCH  20  21
ENDBRANCH   4  20
TORSDOF 12
ENDMDL
MODEL 6
REMARK VINA RESULT:      -7.9      2.510      3.503
REMARK  Name = 
REMARK  13 active torsions:
REMARK  status: ('A' for Active; 'I' for Inactive)
REMARK    1  A    between atoms: C_1  and  O_2
REMARK    2  A    between atoms: O_2  and  C_3
REMARK    3  A    between atoms: N_8  and  C_9
REMARK    4  A    between atoms: C_9  and  C_10
REMARK    5  A    between atoms: C_10  and  C_11
REMARK    6  A    between atoms: C_11  and  C_12
REMARK    7  A    between atoms: C_12  and  C_13
REMARK    8  A    between atoms: C_16  and  C_17
REMARK    9  A    between atoms: C_17  and  C_18
REMARK   10  A    between atoms: C_18  and  C_19
REMARK   11  A    between atoms: C_18  and  C_23
REMARK   12  A    between atoms: C_19  and  C_20
REMARK   13  A    between atoms: C_20  and  O_22
REMARK                            x       y       z     vdW  Elec       q    Type
REMARK                         _______ _______ _______ _____ _____    ______ ____
ROOT
ATOM      1  C   UNL     1       8.346   9.605  18.112  0.00  0.00    +0.000 A 
ATOM      2  N   UNL     1       8.954   8.921  19.091  0.00  0.00    +0.000 NA
ATOM      3  O   UNL     1       8.539   7.608  18.860  0.00  0.00    +0.000 OA
ATOM      4  C   UNL     1       7.717   7.652  17.773  0.00  0.00    +0.000 A 
ATOM      5  N   UNL     1       7.523   8.865  17.309  0.00  0.00    +0.000 NA
ENDROOT
BRANCH   1   6
ATOM      6  C   UNL     1       8.697  11.009  17.778  0.00  0.00    +0.000 C 
BRANCH   6   7
ATOM      7  C   UNL     1      10.104  11.324  18.275  0.00  0.00    +0.000 C 
BRANCH   7   8
ATOM      8  C   UNL     1      10.144  12.471  19.283  0.00  0.00    +0.000 C 
BRANCH   8   9
ATOM      9  C   UNL     1      10.615  11.917  20.625  0.00  0.00    +0.000 C 
BRANCH   9  15
ATOM     10  C   UNL     1       8.272  13.992  23.570  0.00  0.00    +0.000 A 
ATOM     11  C   UNL     1       7.319  13.263  24.262  0.00  0.00    +0.000 A 
ATOM     12  C   UNL     1       7.196  11.921  23.954  0.00  0.00    +0.000 A 
ATOM     13  N   UNL     1       7.941  11.278  23.025  0.00  0.00    +0.000 NA
ATOM     14  C   UNL     1       8.842  12.001  22.334  0.00  0.00    +0.000 A 
ATOM     15  N   UNL     1       9.534  11.316  21.364  0.00  0.00    +0.000 N 
ATOM     16  C   UNL     1       9.021  13.358  22.580  0.00  0.00    +0.000 A 
ATOM     17  H   UNL     1       9.409  10.314  21.407  0.00  0.00    +0.000 HD
BRANCH  10  19
ATOM     18  C   UNL     1       8.648  16.084  22.541  0.00  0.00    +0.000 C 
ATOM     19  O   UNL     1       8.541  15.321  23.739  0.00  0.00    +0.000 OA
ENDBRANCH  10  19
ENDBRANCH   9  15
ENDBRANCH   8   9
ENDBRANCH   7   8
ENDBRANCH   6   7
ENDBRANCH   1   6
BRANCH   4  20
ATOM     20  C   UNL     1       7.271   6.354  17.218  0.00  0.00    +0.000 C 
BRANCH  20  21
ATOM     21  C   UNL     1       5.792   6.381  16.755  0.00  0.00    +0.000 C 
BRANCH  21  22
ATOM     22  C   UNL     1       4.860   5.598  17.680  0.00  0.00    +0.000 A 
ATOM     23  C   UNL     1       3.511   5.975  17.881  0.00  0.00    +0.000 A 
ATOM     24  C   UNL     1       2.669   5.244  18.726  0.00  0.00    +0.000 A 
ATOM     25  C   UNL     1       3.202   4.159  19.380  0.00  0.00    +0.000 A 
ATOM     26  C   UNL     1       4.515   3.792  19.215  0.00  0.00    +0.000 A 
ATOM     27  C   UNL     1       5.365   4.483  18.376  0.00  0.00    +0.000 A 
ATOM     28  O   UNL     1       4.843   2.704  19.962  0.00  0.00    +0.000 OA
ATOM     29  C   UNL     1       3.590   2.443  20.630  0.00  0.00    +0.000 C 
ATOM     30  O   UNL     1       2.536   3.348  20.242  0.00  0.00    +0.000 OA
ENDBRANCH  21  22
BRANCH  21  31
ATOM     31  C   UNL     1       5.567   5.968  15.287  0.00  0.00    +0.000 C 
BRANCH  31  32
ATOM     32  C   UNL     1       6.609   5.013  14.768  0.00  0.00    +0.000 C 
ATOM     33  O   UNL     1       7.624   5.368  14.190  0.00  0.00    +0.000 OA
BRANCH  32  34
ATOM     34  O   UNL     1       6.337   3.717  15.027  0.00  0.00    +0.000 OA
ATOM     35  H   UNL     1       5.384   3.511  15.087  0.00  0.00    +0.000 HD
ENDBRANCH  32  34
ENDBRANCH  31  32
ENDBRANCH  21  31
ENDBRANCH  20  21
ENDBRANCH   4  20
TORSDOF 12
ENDMDL
MODEL 7
REMARK VINA RESULT:      -7.9      2.862      4.714
REMARK  Name = 
REMARK  13 active torsions:
REMARK  status: ('A' for Active; 'I' for Inactive)
REMARK    1  A    between atoms: C_1  and  O_2
REMARK    2  A    between atoms: O_2  and  C_3
REMARK    3  A    between atoms: N_8  and  C_9
REMARK    4  A    between atoms: C_9  and  C_10
REMARK    5  A    between atoms: C_10  and  C_11
REMARK    6  A    between atoms: C_11  and  C_12
REMARK    7  A    between atoms: C_12  and  C_13
REMARK    8  A    between atoms: C_16  and  C_17
REMARK    9  A    between atoms: C_17  and  C_18
REMARK   10  A    between atoms: C_18  and  C_19
REMARK   11  A    between atoms: C_18  and  C_23
REMARK   12  A    between atoms: C_19  and  C_20
REMARK   13  A    between atoms: C_20  and  O_22
REMARK                            x       y       z     vdW  Elec       q    Type
REMARK                         _______ _______ _______ _____ _____    ______ ____
ROOT
ATOM      1  C   UNL     1       6.528   5.797  17.255  0.00  0.00    +0.000 A 
ATOM      2  N   UNL     1       5.732   5.203  16.355  0.00  0.00    +0.000 NA
ATOM      3  O   UNL     1       4.813   4.519  17.152  0.00  0.00    +0.000 OA
ATOM      4  C   UNL     1       5.166   4.769  18.444  0.00  0.00    +0.000 A 
ATOM      5  N   UNL     1       6.247   5.506  18.561  0.00  0.00    +0.000 NA
ENDROOT
BRANCH   1   6
ATOM      6  C   UNL     1       7.499   6.860  16.890  0.00  0.00    +0.000 C 
BRANCH   6   7
ATOM      7  C   UNL     1       7.958   7.596  18.144  0.00  0.00    +0.000 C 
BRANCH   7   8
ATOM      8  C   UNL     1       8.207   9.085  17.911  0.00  0.00    +0.000 C 
BRANCH   8   9
ATOM      9  C   UNL     1       8.971   9.640  19.110  0.00  0.00    +0.000 C 
BRANCH   9  15
ATOM     10  C   UNL     1       9.419  12.951  21.812  0.00  0.00    +0.000 A 
ATOM     11  C   UNL     1      10.043  14.091  21.332  0.00  0.00    +0.000 A 
ATOM     12  C   UNL     1      10.471  14.078  20.018  0.00  0.00    +0.000 A 
ATOM     13  N   UNL     1      10.323  13.029  19.176  0.00  0.00    +0.000 NA
ATOM     14  C   UNL     1       9.746  11.913  19.660  0.00  0.00    +0.000 A 
ATOM     15  N   UNL     1       9.668  10.857  18.783  0.00  0.00    +0.000 N 
ATOM     16  C   UNL     1       9.295  11.845  20.974  0.00  0.00    +0.000 A 
ATOM     17  H   UNL     1       9.893  11.104  17.829  0.00  0.00    +0.000 HD
BRANCH  10  19
ATOM     18  C   UNL     1       8.130  11.616  23.272  0.00  0.00    +0.000 C 
ATOM     19  O   UNL     1       8.928  12.780  23.075  0.00  0.00    +0.000 OA
ENDBRANCH  10  19
ENDBRANCH   9  15
ENDBRANCH   8   9
ENDBRANCH   7   8
ENDBRANCH   6   7
ENDBRANCH   1   6
BRANCH   4  20
ATOM     20  C   UNL     1       4.243   4.287  19.496  0.00  0.00    +0.000 C 
BRANCH  20  21
ATOM     21  C   UNL     1       2.754   4.530  19.141  0.00  0.00    +0.000 C 
BRANCH  21  22
ATOM     22  C   UNL     1       2.337   5.994  19.277  0.00  0.00    +0.000 A 
ATOM     23  C   UNL     1       2.449   6.910  18.204  0.00  0.00    +0.000 A 
ATOM     24  C   UNL     1       2.058   8.246  18.343  0.00  0.00    +0.000 A 
ATOM     25  C   UNL     1       1.583   8.650  19.567  0.00  0.00    +0.000 A 
ATOM     26  C   UNL     1       1.488   7.782  20.627  0.00  0.00    +0.000 A 
ATOM     27  C   UNL     1       1.851   6.455  20.516  0.00  0.00    +0.000 A 
ATOM     28  O   UNL     1       1.010   8.386  21.748  0.00  0.00    +0.000 OA
ATOM     29  C   UNL     1       0.835   9.739  21.274  0.00  0.00    +0.000 C 
ATOM     30  O   UNL     1       1.171   9.907  19.882  0.00  0.00    +0.000 OA
ENDBRANCH  21  22
BRANCH  21  31
ATOM     31  C   UNL     1       1.756   3.614  19.877  0.00  0.00    +0.000 C 
BRANCH  31  32
ATOM     32  C   UNL     1       1.279   2.456  19.041  0.00  0.00    +0.000 C 
ATOM     33  O   UNL     1       0.177   2.409  18.518  0.00  0.00    +0.000 OA
BRANCH  32  34
ATOM     34  O   UNL     1       2.196   1.478  18.890  0.00  0.00    +0.000 OA
ATOM     35  H   UNL     1       3.122   1.788  18.919  0.00  0.00    +0.000 HD
ENDBRANCH  32  34
ENDBRANCH  31  32
ENDBRANCH  21  31
ENDBRANCH  20  21
ENDBRANCH   4  20
TORSDOF 12
ENDMDL
MODEL 8
REMARK VINA RESULT:      -7.8      2.683      4.363
REMARK  Name = 
REMARK  13 active torsions:
REMARK  status: ('A' for Active; 'I' for Inactive)
REMARK    1  A    between atoms: C_1  and  O_2
REMARK    2  A    between atoms: O_2  and  C_3
REMARK    3  A    between atoms: N_8  and  C_9
REMARK    4  A    between atoms: C_9  and  C_10
REMARK    5  A    between atoms: C_10  and  C_11
REMARK    6  A    between atoms: C_11  and  C_12
REMARK    7  A    between atoms: C_12  and  C_13
REMARK    8  A    between atoms: C_16  and  C_17
REMARK    9  A    between atoms: C_17  and  C_18
REMARK   10  A    between atoms: C_18  and  C_19
REMARK   11  A    between atoms: C_18  and  C_23
REMARK   12  A    between atoms: C_19  and  C_20
REMARK   13  A    between atoms: C_20  and  O_22
REMARK                            x       y       z     vdW  Elec       q    Type
REMARK                         _______ _______ _______ _____ _____    ______ ____
ROOT
ATOM      1  C   UNL     1       6.577   6.012  17.285  0.00  0.00    +0.000 A 
ATOM      2  N   UNL     1       5.755   5.482  16.368  0.00  0.00    +0.000 NA
ATOM      3  O   UNL     1       4.750   4.902  17.145  0.00  0.00    +0.000 OA
ATOM      4  C   UNL     1       5.087   5.139  18.445  0.00  0.00    +0.000 A 
ATOM      5  N   UNL     1       6.230   5.771  18.585  0.00  0.00    +0.000 NA
ENDROOT
BRANCH   1   6
ATOM      6  C   UNL     1       7.656   6.970  16.936  0.00  0.00    +0.000 C 
BRANCH   6   7
ATOM      7  C   UNL     1       7.992   7.836  18.145  0.00  0.00    +0.000 C 
BRANCH   7   8
ATOM      8  C   UNL     1       8.056   9.327  17.819  0.00  0.00    +0.000 C 
BRANCH   8   9
ATOM      9  C   UNL     1       8.990  10.000  18.821  0.00  0.00    +0.000 C 
BRANCH   9  15
ATOM     10  C   UNL     1       8.999  14.289  18.554  0.00  0.00    +0.000 A 
ATOM     11  C   UNL     1      10.011  14.884  17.817  0.00  0.00    +0.000 A 
ATOM     12  C   UNL     1      10.940  14.052  17.222  0.00  0.00    +0.000 A 
ATOM     13  N   UNL     1      10.926  12.702  17.313  0.00  0.00    +0.000 NA
ATOM     14  C   UNL     1       9.958  12.133  18.057  0.00  0.00    +0.000 A 
ATOM     15  N   UNL     1      10.020  10.764  18.163  0.00  0.00    +0.000 N 
ATOM     16  C   UNL     1       8.991  12.902  18.694  0.00  0.00    +0.000 A 
ATOM     17  H   UNL     1      10.678  10.336  17.526  0.00  0.00    +0.000 HD
BRANCH  10  19
ATOM     18  C   UNL     1       8.173  16.350  19.358  0.00  0.00    +0.000 C 
ATOM     19  O   UNL     1       7.994  14.944  19.206  0.00  0.00    +0.000 OA
ENDBRANCH  10  19
ENDBRANCH   9  15
ENDBRANCH   8   9
ENDBRANCH   7   8
ENDBRANCH   6   7
ENDBRANCH   1   6
BRANCH   4  20
ATOM     20  C   UNL     1       4.091   4.765  19.474  0.00  0.00    +0.000 C 
BRANCH  20  21
ATOM     21  C   UNL     1       2.635   5.052  19.027  0.00  0.00    +0.000 C 
BRANCH  21  22
ATOM     22  C   UNL     1       2.167   6.464  19.378  0.00  0.00    +0.000 A 
ATOM     23  C   UNL     1       1.635   6.784  20.649  0.00  0.00    +0.000 A 
ATOM     24  C   UNL     1       1.216   8.083  20.957  0.00  0.00    +0.000 A 
ATOM     25  C   UNL     1       1.313   9.038  19.974  0.00  0.00    +0.000 A 
ATOM     26  C   UNL     1       1.806   8.740  18.727  0.00  0.00    +0.000 A 
ATOM     27  C   UNL     1       2.242   7.473  18.398  0.00  0.00    +0.000 A 
ATOM     28  O   UNL     1       1.802   9.821  17.900  0.00  0.00    +0.000 OA
ATOM     29  C   UNL     1       1.232  10.825  18.766  0.00  0.00    +0.000 C 
ATOM     30  O   UNL     1       0.945  10.340  20.093  0.00  0.00    +0.000 OA
ENDBRANCH  21  22
BRANCH  21  31
ATOM     31  C   UNL     1       1.599   4.009  19.492  0.00  0.00    +0.000 C 
BRANCH  31  32
ATOM     32  C   UNL     1       1.228   3.016  18.422  0.00  0.00    +0.000 C 
ATOM     33  O   UNL     1       0.295   2.234  18.520  0.00  0.00    +0.000 OA
BRANCH  32  34
ATOM     34  O   UNL     1       2.003   3.086  17.320  0.00  0.00    +0.000 OA
ATOM     35  H   UNL     1       1.507   3.058  16.478  0.00  0.00    +0.000 HD
ENDBRANCH  32  34
ENDBRANCH  31  32
ENDBRANCH  21  31
ENDBRANCH  20  21
ENDBRANCH   4  20
TORSDOF 12
ENDMDL
MODEL 9
REMARK VINA RESULT:      -7.8      2.637      4.258
REMARK  Name = 
REMARK  13 active torsions:
REMARK  status: ('A' for Active; 'I' for Inactive)
REMARK    1  A    between atoms: C_1  and  O_2
REMARK    2  A    between atoms: O_2  and  C_3
REMARK    3  A    between atoms: N_8  and  C_9
REMARK    4  A    between atoms: C_9  and  C_10
REMARK    5  A    between atoms: C_10  and  C_11
REMARK    6  A    between atoms: C_11  and  C_12
REMARK    7  A    between atoms: C_12  and  C_13
REMARK    8  A    between atoms: C_16  and  C_17
REMARK    9  A    between atoms: C_17  and  C_18
REMARK   10  A    between atoms: C_18  and  C_19
REMARK   11  A    between atoms: C_18  and  C_23
REMARK   12  A    between atoms: C_19  and  C_20
REMARK   13  A    between atoms: C_20  and  O_22
REMARK                            x       y       z     vdW  Elec       q    Type
REMARK                         _______ _______ _______ _____ _____    ______ ____
ROOT
ATOM      1  C   UNL     1       7.295   6.578  17.649  0.00  0.00    +0.000 A 
ATOM      2  N   UNL     1       7.452   5.590  16.757  0.00  0.00    +0.000 NA
ATOM      3  O   UNL     1       6.731   4.538  17.325  0.00  0.00    +0.000 OA
ATOM      4  C   UNL     1       6.231   5.008  18.502  0.00  0.00    +0.000 A 
ATOM      5  N   UNL     1       6.594   6.241  18.773  0.00  0.00    +0.000 NA
ENDROOT
BRANCH   1   6
ATOM      6  C   UNL     1       7.658   7.988  17.355  0.00  0.00    +0.000 C 
BRANCH   6   7
ATOM      7  C   UNL     1       8.524   8.545  18.480  0.00  0.00    +0.000 C 
BRANCH   7   8
ATOM      8  C   UNL     1       8.798  10.042  18.343  0.00  0.00    +0.000 C 
BRANCH   8   9
ATOM      9  C   UNL     1       9.761  10.459  19.452  0.00  0.00    +0.000 C 
BRANCH   9  15
ATOM     10  C   UNL     1      10.519  14.399  20.989  0.00  0.00    +0.000 A 
ATOM     11  C   UNL     1       9.833  14.787  22.129  0.00  0.00    +0.000 A 
ATOM     12  C   UNL     1       8.956  13.875  22.686  0.00  0.00    +0.000 A 
ATOM     13  N   UNL     1       8.727  12.636  22.193  0.00  0.00    +0.000 NA
ATOM     14  C   UNL     1       9.374  12.279  21.067  0.00  0.00    +0.000 A 
ATOM     15  N   UNL     1       9.066  11.032  20.576  0.00  0.00    +0.000 N 
ATOM     16  C   UNL     1      10.266  13.143  20.442  0.00  0.00    +0.000 A 
ATOM     17  H   UNL     1       8.525  10.466  21.215  0.00  0.00    +0.000 HD
BRANCH  10  19
ATOM     18  C   UNL     1      11.278  15.163  18.887  0.00  0.00    +0.000 C 
ATOM     19  O   UNL     1      11.425  15.159  20.304  0.00  0.00    +0.000 OA
ENDBRANCH  10  19
ENDBRANCH   9  15
ENDBRANCH   8   9
ENDBRANCH   7   8
ENDBRANCH   6   7
ENDBRANCH   1   6
BRANCH   4  20
ATOM     20  C   UNL     1       5.283   4.131  19.225  0.00  0.00    +0.000 C 
BRANCH  20  21
ATOM     21  C   UNL     1       3.845   4.205  18.653  0.00  0.00    +0.000 C 
BRANCH  21  22
ATOM     22  C   UNL     1       3.156   5.541  18.933  0.00  0.00    +0.000 A 
ATOM     23  C   UNL     1       2.518   5.812  20.166  0.00  0.00    +0.000 A 
ATOM     24  C   UNL     1       1.897   7.042  20.410  0.00  0.00    +0.000 A 
ATOM     25  C   UNL     1       1.903   7.974  19.399  0.00  0.00    +0.000 A 
ATOM     26  C   UNL     1       2.498   7.720  18.188  0.00  0.00    +0.000 A 
ATOM     27  C   UNL     1       3.132   6.523  17.924  0.00  0.00    +0.000 A 
ATOM     28  O   UNL     1       2.377   8.765  17.325  0.00  0.00    +0.000 OA
ATOM     29  C   UNL     1       1.621   9.696  18.129  0.00  0.00    +0.000 C 
ATOM     30  O   UNL     1       1.341   9.210  19.457  0.00  0.00    +0.000 OA
ENDBRANCH  21  22
BRANCH  21  31
ATOM     31  C   UNL     1       2.929   3.032  19.053  0.00  0.00    +0.000 C 
BRANCH  31  32
ATOM     32  C   UNL     1       1.799   2.797  18.084  0.00  0.00    +0.000 C 
ATOM     33  O   UNL     1       0.682   2.439  18.423  0.00  0.00    +0.000 OA
BRANCH  32  34
ATOM     34  O   UNL     1       2.122   3.050  16.799  0.00  0.00    +0.000 OA
ATOM     35  H   UNL     1       1.660   3.820  16.414  0.00  0.00    +0.000 HD
ENDBRANCH  32  34
ENDBRANCH  31  32
ENDBRANCH  21  31
ENDBRANCH  20  21
ENDBRANCH   4  20
TORSDOF 12
ENDMDL
