MODEL 1
REMARK VINA RESULT:      -7.2      0.000      0.000
REMARK  Name = 
REMARK  5 active torsions:
REMARK  status: ('A' for Active; 'I' for Inactive)
REMARK    1  A    between atoms: C_2  and  O_3
REMARK    2  A    between atoms: C_2  and  C_4
REMARK    3  A    between atoms: C_8  and  C_9
REMARK    4  A    between atoms: C_12  and  C_13
REMARK    5  A    between atoms: C_13  and  N_14
REMARK                            x       y       z     vdW  Elec       q    Type
REMARK                         _______ _______ _______ _____ _____    ______ ____
ROOT
ATOM      1  C   UNL     1      -6.171  12.743  19.921  0.00  0.00    +0.000 C 
ATOM      2  C   UNL     1      -6.860  11.948  18.813  0.00  0.00    +0.000 C 
ATOM      3  S   UNL     1      -5.583  11.665  17.565  0.00  0.00    +0.000 S 
ATOM      4  C   UNL     1      -4.280  11.918  18.680  0.00  0.00    +0.000 A 
ATOM      5  C   UNL     1      -2.966  11.688  18.429  0.00  0.00    +0.000 A 
ATOM      6  C   UNL     1      -2.001  12.147  19.459  0.00  0.00    +0.000 A 
ATOM      7  C   UNL     1      -2.436  12.886  20.502  0.00  0.00    +0.000 A 
ATOM      8  C   UNL     1      -3.873  13.174  20.694  0.00  0.00    +0.000 A 
ATOM      9  O   UNL     1      -4.259  13.946  21.568  0.00  0.00    +0.000 OA
ATOM     10  N   UNL     1      -4.726  12.517  19.840  0.00  0.00    +0.000 N 
ENDROOT
BRANCH   5  11
ATOM     11  C   UNL     1      -2.453  11.157  17.139  0.00  0.00    +0.000 C 
ATOM     12  C   UNL     1      -1.708   9.852  16.984  0.00  0.00    +0.000 C 
ATOM     13  C   UNL     1      -3.130   9.932  16.546  0.00  0.00    +0.000 C 
ENDBRANCH   5  11
BRANCH   1  15
ATOM     14  O   UNL     1      -6.920  11.133  21.609  0.00  0.00    +0.000 OA
ATOM     15  C   UNL     1      -6.735  12.294  21.273  0.00  0.00    +0.000 C 
BRANCH  15  16
ATOM     16  O   UNL     1      -6.996  13.322  22.121  0.00  0.00    +0.000 OA
ATOM     17  H   UNL     1      -6.493  13.249  22.968  0.00  0.00    +0.000 HD
ENDBRANCH  15  16
ENDBRANCH   1  15
BRANCH   6  18
ATOM     18  C   UNL     1      -0.519  11.843  19.362  0.00  0.00    +0.000 C 
BRANCH  18  19
ATOM     19  N   UNL     1      -0.062  10.690  20.150  0.00  0.00    +0.000 N 
ATOM     20  C   UNL     1      -0.400  10.399  21.449  0.00  0.00    +0.000 A 
ATOM     21  C   UNL     1       0.178   9.197  21.786  0.00  0.00    +0.000 A 
ATOM     22  C   UNL     1       0.924   8.745  20.667  0.00  0.00    +0.000 A 
ATOM     23  C   UNL     1       1.710   7.603  20.426  0.00  0.00    +0.000 A 
ATOM     24  C   UNL     1       2.351   7.456  19.193  0.00  0.00    +0.000 A 
ATOM     25  C   UNL     1       2.230   8.438  18.214  0.00  0.00    +0.000 A 
ATOM     26  C   UNL     1       1.452   9.581  18.429  0.00  0.00    +0.000 A 
ATOM     27  C   UNL     1       0.793   9.711  19.663  0.00  0.00    +0.000 A 
ENDBRANCH  18  19
ENDBRANCH   6  18
TORSDOF 5
ENDMDL
MODEL 2
REMARK VINA RESULT:      -6.9      6.674     10.100
REMARK  Name = 
REMARK  5 active torsions:
REMARK  status: ('A' for Active; 'I' for Inactive)
REMARK    1  A    between atoms: C_2  and  O_3
REMARK    2  A    between atoms: C_2  and  C_4
REMARK    3  A    between atoms: C_8  and  C_9
REMARK    4  A    between atoms: C_12  and  C_13
REMARK    5  A    between atoms: C_13  and  N_14
REMARK                            x       y       z     vdW  Elec       q    Type
REMARK                         _______ _______ _______ _____ _____    ______ ____
ROOT
ATOM      1  C   UNL     1       5.685   3.970  16.735  0.00  0.00    +0.000 C 
ATOM      2  C   UNL     1       4.831   3.054  15.860  0.00  0.00    +0.000 C 
ATOM      3  S   UNL     1       3.309   2.782  16.796  0.00  0.00    +0.000 S 
ATOM      4  C   UNL     1       3.523   4.201  17.770  0.00  0.00    +0.000 A 
ATOM      5  C   UNL     1       2.607   4.719  18.627  0.00  0.00    +0.000 A 
ATOM      6  C   UNL     1       3.065   5.830  19.498  0.00  0.00    +0.000 A 
ATOM      7  C   UNL     1       4.370   6.175  19.514  0.00  0.00    +0.000 A 
ATOM      8  C   UNL     1       5.347   5.528  18.611  0.00  0.00    +0.000 A 
ATOM      9  O   UNL     1       6.551   5.751  18.709  0.00  0.00    +0.000 OA
ATOM     10  N   UNL     1       4.811   4.684  17.669  0.00  0.00    +0.000 N 
ENDROOT
BRANCH   5  11
ATOM     11  C   UNL     1       1.255   4.138  18.842  0.00  0.00    +0.000 C 
ATOM     12  C   UNL     1       0.949   2.659  18.853  0.00  0.00    +0.000 C 
ATOM     13  C   UNL     1       0.988   3.402  20.144  0.00  0.00    +0.000 C 
ENDBRANCH   5  11
BRANCH   1  15
ATOM     14  O   UNL     1       5.943   5.773  15.097  0.00  0.00    +0.000 OA
ATOM     15  C   UNL     1       6.454   4.939  15.832  0.00  0.00    +0.000 C 
BRANCH  15  16
ATOM     16  O   UNL     1       7.802   4.822  15.934  0.00  0.00    +0.000 OA
ATOM     17  H   UNL     1       8.280   5.392  15.283  0.00  0.00    +0.000 HD
ENDBRANCH  15  16
ENDBRANCH   1  15
BRANCH   6  18
ATOM     18  C   UNL     1       2.113   6.579  20.410  0.00  0.00    +0.000 C 
BRANCH  18  19
ATOM     19  N   UNL     1       1.699   7.905  19.932  0.00  0.00    +0.000 N 
ATOM     20  C   UNL     1       1.880   8.415  18.670  0.00  0.00    +0.000 A 
ATOM     21  C   UNL     1       1.284   9.654  18.616  0.00  0.00    +0.000 A 
ATOM     22  C   UNL     1       0.743   9.932  19.897  0.00  0.00    +0.000 A 
ATOM     23  C   UNL     1       0.032  11.023  20.430  0.00  0.00    +0.000 A 
ATOM     24  C   UNL     1      -0.352  11.004  21.774  0.00  0.00    +0.000 A 
ATOM     25  C   UNL     1      -0.023   9.922  22.586  0.00  0.00    +0.000 A 
ATOM     26  C   UNL     1       0.680   8.824  22.078  0.00  0.00    +0.000 A 
ATOM     27  C   UNL     1       1.045   8.842  20.721  0.00  0.00    +0.000 A 
ENDBRANCH  18  19
ENDBRANCH   6  18
TORSDOF 5
ENDMDL
MODEL 3
REMARK VINA RESULT:      -6.8      5.141      8.473
REMARK  Name = 
REMARK  5 active torsions:
REMARK  status: ('A' for Active; 'I' for Inactive)
REMARK    1  A    between atoms: C_2  and  O_3
REMARK    2  A    between atoms: C_2  and  C_4
REMARK    3  A    between atoms: C_8  and  C_9
REMARK    4  A    between atoms: C_12  and  C_13
REMARK    5  A    between atoms: C_13  and  N_14
REMARK                            x       y       z     vdW  Elec       q    Type
REMARK                         _______ _______ _______ _____ _____    ______ ____
ROOT
ATOM      1  C   UNL     1       3.279   4.717  18.742  0.00  0.00    +0.000 C 
ATOM      2  C   UNL     1       2.714   3.896  19.901  0.00  0.00    +0.000 C 
ATOM      3  S   UNL     1       2.221   5.108  21.148  0.00  0.00    +0.000 S 
ATOM      4  C   UNL     1       2.123   6.409  20.006  0.00  0.00    +0.000 A 
ATOM      5  C   UNL     1       1.621   7.646  20.255  0.00  0.00    +0.000 A 
ATOM      6  C   UNL     1       1.803   8.664  19.190  0.00  0.00    +0.000 A 
ATOM      7  C   UNL     1       2.564   8.378  18.112  0.00  0.00    +0.000 A 
ATOM      8  C   UNL     1       3.151   7.034  17.921  0.00  0.00    +0.000 A 
ATOM      9  O   UNL     1       3.942   6.807  17.009  0.00  0.00    +0.000 OA
ATOM     10  N   UNL     1       2.744   6.079  18.820  0.00  0.00    +0.000 N 
ENDROOT
BRANCH   5  11
ATOM     11  C   UNL     1       1.058   8.060  21.567  0.00  0.00    +0.000 C 
ATOM     12  C   UNL     1       0.586   9.456  21.895  0.00  0.00    +0.000 C 
ATOM     13  C   UNL     1      -0.423   8.390  21.641  0.00  0.00    +0.000 C 
ENDBRANCH   5  11
BRANCH   1  15
ATOM     14  O   UNL     1       1.760   3.721  17.098  0.00  0.00    +0.000 OA
ATOM     15  C   UNL     1       2.896   4.036  17.424  0.00  0.00    +0.000 C 
BRANCH  15  16
ATOM     16  O   UNL     1       3.949   3.830  16.594  0.00  0.00    +0.000 OA
ATOM     17  H   UNL     1       4.487   4.647  16.456  0.00  0.00    +0.000 HD
ENDBRANCH  15  16
ENDBRANCH   1  15
BRANCH   6  18
ATOM     18  C   UNL     1       1.185  10.045  19.287  0.00  0.00    +0.000 C 
BRANCH  18  19
ATOM     19  N   UNL     1      -0.114  10.199  18.618  0.00  0.00    +0.000 N 
ATOM     20  C   UNL     1      -0.533   9.553  17.481  0.00  0.00    +0.000 A 
ATOM     21  C   UNL     1      -1.834   9.922  17.230  0.00  0.00    +0.000 A 
ATOM     22  C   UNL     1      -2.223  10.850  18.229  0.00  0.00    +0.000 A 
ATOM     23  C   UNL     1      -3.415  11.554  18.483  0.00  0.00    +0.000 A 
ATOM     24  C   UNL     1      -3.475  12.438  19.564  0.00  0.00    +0.000 A 
ATOM     25  C   UNL     1      -2.362  12.634  20.377  0.00  0.00    +0.000 A 
ATOM     26  C   UNL     1      -1.167  11.943  20.146  0.00  0.00    +0.000 A 
ATOM     27  C   UNL     1      -1.121  11.042  19.069  0.00  0.00    +0.000 A 
ENDBRANCH  18  19
ENDBRANCH   6  18
TORSDOF 5
ENDMDL
MODEL 4
REMARK VINA RESULT:      -6.7      4.975      7.925
REMARK  Name = 
REMARK  5 active torsions:
REMARK  status: ('A' for Active; 'I' for Inactive)
REMARK    1  A    between atoms: C_2  and  O_3
REMARK    2  A    between atoms: C_2  and  C_4
REMARK    3  A    between atoms: C_8  and  C_9
REMARK    4  A    between atoms: C_12  and  C_13
REMARK    5  A    between atoms: C_13  and  N_14
REMARK                            x       y       z     vdW  Elec       q    Type
REMARK                         _______ _______ _______ _____ _____    ______ ____
ROOT
ATOM      1  C   UNL     1       0.595   9.847  19.470  0.00  0.00    +0.000 C 
ATOM      2  C   UNL     1      -0.055   9.675  20.843  0.00  0.00    +0.000 C 
ATOM      3  S   UNL     1       0.134   7.922  21.243  0.00  0.00    +0.000 S 
ATOM      4  C   UNL     1       1.448   7.696  20.135  0.00  0.00    +0.000 A 
ATOM      5  C   UNL     1       2.219   6.583  20.038  0.00  0.00    +0.000 A 
ATOM      6  C   UNL     1       3.168   6.529  18.897  0.00  0.00    +0.000 A 
ATOM      7  C   UNL     1       3.127   7.486  17.946  0.00  0.00    +0.000 A 
ATOM      8  C   UNL     1       2.215   8.644  18.059  0.00  0.00    +0.000 A 
ATOM      9  O   UNL     1       2.087   9.448  17.140  0.00  0.00    +0.000 OA
ATOM     10  N   UNL     1       1.543   8.751  19.253  0.00  0.00    +0.000 N 
ENDROOT
BRANCH   5  11
ATOM     11  C   UNL     1       2.051   5.384  20.900  0.00  0.00    +0.000 C 
ATOM     12  C   UNL     1       1.040   4.288  20.658  0.00  0.00    +0.000 C 
ATOM     13  C   UNL     1       2.475   4.034  20.344  0.00  0.00    +0.000 C 
ENDBRANCH   5  11
BRANCH   1  15
ATOM     14  O   UNL     1       1.861  11.745  20.361  0.00  0.00    +0.000 OA
ATOM     15  C   UNL     1       1.290  11.211  19.421  0.00  0.00    +0.000 C 
BRANCH  15  16
ATOM     16  O   UNL     1       1.253  11.795  18.196  0.00  0.00    +0.000 OA
ATOM     17  H   UNL     1       1.407  12.770  18.238  0.00  0.00    +0.000 HD
ENDBRANCH  15  16
ENDBRANCH   1  15
BRANCH   6  18
ATOM     18  C   UNL     1       4.172   5.403  18.741  0.00  0.00    +0.000 C 
BRANCH  18  19
ATOM     19  N   UNL     1       5.343   5.718  17.912  0.00  0.00    +0.000 N 
ATOM     20  C   UNL     1       6.375   6.562  18.238  0.00  0.00    +0.000 A 
ATOM     21  C   UNL     1       7.304   6.520  17.223  0.00  0.00    +0.000 A 
ATOM     22  C   UNL     1       6.814   5.643  16.223  0.00  0.00    +0.000 A 
ATOM     23  C   UNL     1       7.319   5.214  14.981  0.00  0.00    +0.000 A 
ATOM     24  C   UNL     1       6.565   4.338  14.196  0.00  0.00    +0.000 A 
ATOM     25  C   UNL     1       5.315   3.902  14.629  0.00  0.00    +0.000 A 
ATOM     26  C   UNL     1       4.792   4.313  15.861  0.00  0.00    +0.000 A 
ATOM     27  C   UNL     1       5.567   5.178  16.653  0.00  0.00    +0.000 A 
ENDBRANCH  18  19
ENDBRANCH   6  18
TORSDOF 5
ENDMDL
MODEL 5
REMARK VINA RESULT:      -6.7      2.366      3.546
REMARK  Name = 
REMARK  5 active torsions:
REMARK  status: ('A' for Active; 'I' for Inactive)
REMARK    1  A    between atoms: C_2  and  O_3
REMARK    2  A    between atoms: C_2  and  C_4
REMARK    3  A    between atoms: C_8  and  C_9
REMARK    4  A    between atoms: C_12  and  C_13
REMARK    5  A    between atoms: C_13  and  N_14
REMARK                            x       y       z     vdW  Elec       q    Type
REMARK                         _______ _______ _______ _____ _____    ______ ____
ROOT
ATOM      1  C   UNL     1      -4.775  11.792  18.713  0.00  0.00    +0.000 C 
ATOM      2  C   UNL     1      -4.940  13.019  19.608  0.00  0.00    +0.000 C 
ATOM      3  S   UNL     1      -3.483  13.030  20.678  0.00  0.00    +0.000 S 
ATOM      4  C   UNL     1      -2.552  12.034  19.606  0.00  0.00    +0.000 A 
ATOM      5  C   UNL     1      -1.227  11.764  19.726  0.00  0.00    +0.000 A 
ATOM      6  C   UNL     1      -0.671  10.740  18.807  0.00  0.00    +0.000 A 
ATOM      7  C   UNL     1      -1.501  10.030  18.014  0.00  0.00    +0.000 A 
ATOM      8  C   UNL     1      -2.952  10.312  17.972  0.00  0.00    +0.000 A 
ATOM      9  O   UNL     1      -3.724   9.590  17.347  0.00  0.00    +0.000 OA
ATOM     10  N   UNL     1      -3.357  11.427  18.665  0.00  0.00    +0.000 N 
ENDROOT
BRANCH   5  11
ATOM     11  C   UNL     1      -0.367  12.312  20.808  0.00  0.00    +0.000 C 
ATOM     12  C   UNL     1       1.071  12.736  20.629  0.00  0.00    +0.000 C 
ATOM     13  C   UNL     1       0.016  13.782  20.747  0.00  0.00    +0.000 C 
ENDBRANCH   5  11
BRANCH   1  15
ATOM     14  O   UNL     1      -6.496  12.311  17.050  0.00  0.00    +0.000 OA
ATOM     15  C   UNL     1      -5.319  12.121  17.319  0.00  0.00    +0.000 C 
BRANCH  15  16
ATOM     16  O   UNL     1      -4.354  12.223  16.370  0.00  0.00    +0.000 OA
ATOM     17  H   UNL     1      -3.585  11.629  16.550  0.00  0.00    +0.000 HD
ENDBRANCH  15  16
ENDBRANCH   1  15
BRANCH   6  18
ATOM     18  C   UNL     1       0.813  10.434  18.751  0.00  0.00    +0.000 C 
BRANCH  18  19
ATOM     19  N   UNL     1       1.232   9.229  19.480  0.00  0.00    +0.000 N 
ATOM     20  C   UNL     1       0.866   8.872  20.754  0.00  0.00    +0.000 A 
ATOM     21  C   UNL     1       1.414   7.641  21.032  0.00  0.00    +0.000 A 
ATOM     22  C   UNL     1       2.170   7.238  19.902  0.00  0.00    +0.000 A 
ATOM     23  C   UNL     1       2.937   6.094  19.610  0.00  0.00    +0.000 A 
ATOM     24  C   UNL     1       3.598   6.004  18.382  0.00  0.00    +0.000 A 
ATOM     25  C   UNL     1       3.513   7.041  17.458  0.00  0.00    +0.000 A 
ATOM     26  C   UNL     1       2.755   8.187  17.724  0.00  0.00    +0.000 A 
ATOM     27  C   UNL     1       2.077   8.261  18.953  0.00  0.00    +0.000 A 
ENDBRANCH  18  19
ENDBRANCH   6  18
TORSDOF 5
ENDMDL
MODEL 6
REMARK VINA RESULT:      -6.6      6.411      9.814
REMARK  Name = 
REMARK  5 active torsions:
REMARK  status: ('A' for Active; 'I' for Inactive)
REMARK    1  A    between atoms: C_2  and  O_3
REMARK    2  A    between atoms: C_2  and  C_4
REMARK    3  A    between atoms: C_8  and  C_9
REMARK    4  A    between atoms: C_12  and  C_13
REMARK    5  A    between atoms: C_13  and  N_14
REMARK                            x       y       z     vdW  Elec       q    Type
REMARK                         _______ _______ _______ _____ _____    ______ ____
ROOT
ATOM      1  C   UNL     1       5.965   4.704  16.686  0.00  0.00    +0.000 C 
ATOM      2  C   UNL     1       5.474   3.257  16.637  0.00  0.00    +0.000 C 
ATOM      3  S   UNL     1       3.956   3.235  17.617  0.00  0.00    +0.000 S 
ATOM      4  C   UNL     1       3.697   4.942  17.460  0.00  0.00    +0.000 A 
ATOM      5  C   UNL     1       2.582   5.614  17.846  0.00  0.00    +0.000 A 
ATOM      6  C   UNL     1       2.645   7.096  17.790  0.00  0.00    +0.000 A 
ATOM      7  C   UNL     1       3.816   7.706  17.511  0.00  0.00    +0.000 A 
ATOM      8  C   UNL     1       5.026   6.928  17.168  0.00  0.00    +0.000 A 
ATOM      9  O   UNL     1       6.119   7.473  17.036  0.00  0.00    +0.000 OA
ATOM     10  N   UNL     1       4.833   5.578  17.004  0.00  0.00    +0.000 N 
ENDROOT
BRANCH   5  11
ATOM     11  C   UNL     1       1.393   4.960  18.453  0.00  0.00    +0.000 C 
ATOM     12  C   UNL     1       1.294   3.487  18.771  0.00  0.00    +0.000 C 
ATOM     13  C   UNL     1       1.503   4.457  19.883  0.00  0.00    +0.000 C 
ENDBRANCH   5  11
BRANCH   1  15
ATOM     14  O   UNL     1       6.136   4.736  14.243  0.00  0.00    +0.000 OA
ATOM     15  C   UNL     1       6.587   5.060  15.332  0.00  0.00    +0.000 C 
BRANCH  15  16
ATOM     16  O   UNL     1       7.707   5.820  15.433  0.00  0.00    +0.000 OA
ATOM     17  H   UNL     1       7.904   6.312  14.599  0.00  0.00    +0.000 HD
ENDBRANCH  15  16
ENDBRANCH   1  15
BRANCH   6  18
ATOM     18  C   UNL     1       1.433   7.961  18.073  0.00  0.00    +0.000 C 
BRANCH  18  19
ATOM     19  N   UNL     1       1.289   8.400  19.468  0.00  0.00    +0.000 N 
ATOM     20  C   UNL     1       1.857   7.818  20.574  0.00  0.00    +0.000 A 
ATOM     21  C   UNL     1       1.534   8.578  21.675  0.00  0.00    +0.000 A 
ATOM     22  C   UNL     1       0.714   9.649  21.238  0.00  0.00    +0.000 A 
ATOM     23  C   UNL     1       0.095  10.725  21.901  0.00  0.00    +0.000 A 
ATOM     24  C   UNL     1      -0.690  11.623  21.172  0.00  0.00    +0.000 A 
ATOM     25  C   UNL     1      -0.873  11.449  19.803  0.00  0.00    +0.000 A 
ATOM     26  C   UNL     1      -0.266  10.388  19.121  0.00  0.00    +0.000 A 
ATOM     27  C   UNL     1       0.539   9.502  19.858  0.00  0.00    +0.000 A 
ENDBRANCH  18  19
ENDBRANCH   6  18
TORSDOF 5
ENDMDL
MODEL 7
REMARK VINA RESULT:      -6.6      2.187      3.333
REMARK  Name = 
REMARK  5 active torsions:
REMARK  status: ('A' for Active; 'I' for Inactive)
REMARK    1  A    between atoms: C_2  and  O_3
REMARK    2  A    between atoms: C_2  and  C_4
REMARK    3  A    between atoms: C_8  and  C_9
REMARK    4  A    between atoms: C_12  and  C_13
REMARK    5  A    between atoms: C_13  and  N_14
REMARK                            x       y       z     vdW  Elec       q    Type
REMARK                         _______ _______ _______ _____ _____    ______ ____
ROOT
ATOM      1  C   UNL     1      -5.266  12.097  18.930  0.00  0.00    +0.000 C 
ATOM      2  C   UNL     1      -5.552  13.335  19.779  0.00  0.00    +0.000 C 
ATOM      3  S   UNL     1      -4.144  13.478  20.904  0.00  0.00    +0.000 S 
ATOM      4  C   UNL     1      -3.104  12.519  19.901  0.00  0.00    +0.000 A 
ATOM      5  C   UNL     1      -1.770  12.346  20.081  0.00  0.00    +0.000 A 
ATOM      6  C   UNL     1      -1.107  11.338  19.216  0.00  0.00    +0.000 A 
ATOM      7  C   UNL     1      -1.853  10.549  18.414  0.00  0.00    +0.000 A 
ATOM      8  C   UNL     1      -3.317  10.728  18.307  0.00  0.00    +0.000 A 
ATOM      9  O   UNL     1      -4.012   9.936  17.675  0.00  0.00    +0.000 OA
ATOM     10  N   UNL     1      -3.825  11.831  18.949  0.00  0.00    +0.000 N 
ENDROOT
BRANCH   5  11
ATOM     11  C   UNL     1      -0.995  12.983  21.178  0.00  0.00    +0.000 C 
ATOM     12  C   UNL     1      -1.602  13.558  22.436  0.00  0.00    +0.000 C 
ATOM     13  C   UNL     1      -0.892  12.250  22.505  0.00  0.00    +0.000 C 
ENDBRANCH   5  11
BRANCH   1  15
ATOM     14  O   UNL     1      -6.950  12.370  17.172  0.00  0.00    +0.000 OA
ATOM     15  C   UNL     1      -5.774  12.347  17.506  0.00  0.00    +0.000 C 
BRANCH  15  16
ATOM     16  O   UNL     1      -4.782  12.585  16.611  0.00  0.00    +0.000 OA
ATOM     17  H   UNL     1      -5.048  13.238  15.919  0.00  0.00    +0.000 HD
ENDBRANCH  15  16
ENDBRANCH   1  15
BRANCH   6  18
ATOM     18  C   UNL     1       0.395  11.134  19.228  0.00  0.00    +0.000 C 
BRANCH  18  19
ATOM     19  N   UNL     1       0.853   9.874  19.830  0.00  0.00    +0.000 N 
ATOM     20  C   UNL     1       0.587   9.428  21.101  0.00  0.00    +0.000 A 
ATOM     21  C   UNL     1       1.136   8.174  21.241  0.00  0.00    +0.000 A 
ATOM     22  C   UNL     1       1.789   7.847  20.026  0.00  0.00    +0.000 A 
ATOM     23  C   UNL     1       2.509   6.720  19.588  0.00  0.00    +0.000 A 
ATOM     24  C   UNL     1       3.064   6.713  18.306  0.00  0.00    +0.000 A 
ATOM     25  C   UNL     1       2.922   7.817  17.470  0.00  0.00    +0.000 A 
ATOM     26  C   UNL     1       2.207   8.949  17.881  0.00  0.00    +0.000 A 
ATOM     27  C   UNL     1       1.634   8.939  19.165  0.00  0.00    +0.000 A 
ENDBRANCH  18  19
ENDBRANCH   6  18
TORSDOF 5
ENDMDL
MODEL 8
REMARK VINA RESULT:      -6.5      6.000      9.232
REMARK  Name = 
REMARK  5 active torsions:
REMARK  status: ('A' for Active; 'I' for Inactive)
REMARK    1  A    between atoms: C_2  and  O_3
REMARK    2  A    between atoms: C_2  and  C_4
REMARK    3  A    between atoms: C_8  and  C_9
REMARK    4  A    between atoms: C_12  and  C_13
REMARK    5  A    between atoms: C_13  and  N_14
REMARK                            x       y       z     vdW  Elec       q    Type
REMARK                         _______ _______ _______ _____ _____    ______ ____
ROOT
ATOM      1  C   UNL     1       2.669   2.554  18.635  0.00  0.00    +0.000 C 
ATOM      2  C   UNL     1       3.964   2.121  19.320  0.00  0.00    +0.000 C 
ATOM      3  S   UNL     1       5.152   3.438  18.971  0.00  0.00    +0.000 S 
ATOM      4  C   UNL     1       3.921   4.611  18.633  0.00  0.00    +0.000 A 
ATOM      5  C   UNL     1       4.124   5.940  18.445  0.00  0.00    +0.000 A 
ATOM      6  C   UNL     1       2.956   6.732  17.984  0.00  0.00    +0.000 A 
ATOM      7  C   UNL     1       1.814   6.101  17.636  0.00  0.00    +0.000 A 
ATOM      8  C   UNL     1       1.666   4.638  17.790  0.00  0.00    +0.000 A 
ATOM      9  O   UNL     1       0.678   4.048  17.362  0.00  0.00    +0.000 OA
ATOM     10  N   UNL     1       2.696   4.007  18.445  0.00  0.00    +0.000 N 
ENDROOT
BRANCH   5  11
ATOM     11  C   UNL     1       5.458   6.591  18.522  0.00  0.00    +0.000 C 
ATOM     12  C   UNL     1       6.770   5.890  18.265  0.00  0.00    +0.000 C 
ATOM     13  C   UNL     1       6.225   6.812  17.229  0.00  0.00    +0.000 C 
ENDBRANCH   5  11
BRANCH   1  15
ATOM     14  O   UNL     1       1.412   2.260  20.718  0.00  0.00    +0.000 OA
ATOM     15  C   UNL     1       1.483   2.123  19.505  0.00  0.00    +0.000 C 
BRANCH  15  16
ATOM     16  O   UNL     1       0.459   1.583  18.796  0.00  0.00    +0.000 OA
ATOM     17  H   UNL     1      -0.222   1.165  19.377  0.00  0.00    +0.000 HD
ENDBRANCH  15  16
ENDBRANCH   1  15
BRANCH   6  18
ATOM     18  C   UNL     1       3.011   8.241  17.853  0.00  0.00    +0.000 C 
BRANCH  18  19
ATOM     19  N   UNL     1       1.817   8.956  18.325  0.00  0.00    +0.000 N 
ATOM     20  C   UNL     1       1.000   9.769  17.579  0.00  0.00    +0.000 A 
ATOM     21  C   UNL     1      -0.043  10.180  18.376  0.00  0.00    +0.000 A 
ATOM     22  C   UNL     1       0.152   9.627  19.667  0.00  0.00    +0.000 A 
ATOM     23  C   UNL     1      -0.575   9.698  20.869  0.00  0.00    +0.000 A 
ATOM     24  C   UNL     1      -0.094   9.042  22.005  0.00  0.00    +0.000 A 
ATOM     25  C   UNL     1       1.105   8.335  21.956  0.00  0.00    +0.000 A 
ATOM     26  C   UNL     1       1.845   8.248  20.771  0.00  0.00    +0.000 A 
ATOM     27  C   UNL     1       1.342   8.893  19.628  0.00  0.00    +0.000 A 
ENDBRANCH  18  19
ENDBRANCH   6  18
TORSDOF 5
ENDMDL
MODEL 9
REMARK VINA RESULT:      -6.4      3.048      4.242
REMARK  Name = 
REMARK  5 active torsions:
REMARK  status: ('A' for Active; 'I' for Inactive)
REMARK    1  A    between atoms: C_2  and  O_3
REMARK    2  A    between atoms: C_2  and  C_4
REMARK    3  A    between atoms: C_8  and  C_9
REMARK    4  A    between atoms: C_12  and  C_13
REMARK    5  A    between atoms: C_13  and  N_14
REMARK                            x       y       z     vdW  Elec       q    Type
REMARK                         _______ _______ _______ _____ _____    ______ ____
ROOT
ATOM      1  C   UNL     1      -0.886  13.888  20.945  0.00  0.00    +0.000 C 
ATOM      2  C   UNL     1      -2.370  13.582  21.146  0.00  0.00    +0.000 C 
ATOM      3  S   UNL     1      -2.784  12.368  19.873  0.00  0.00    +0.000 S 
ATOM      4  C   UNL     1      -1.138  11.871  19.653  0.00  0.00    +0.000 A 
ATOM      5  C   UNL     1      -0.722  10.812  18.912  0.00  0.00    +0.000 A 
ATOM      6  C   UNL     1       0.742  10.677  18.709  0.00  0.00    +0.000 A 
ATOM      7  C   UNL     1       1.570  11.658  19.126  0.00  0.00    +0.000 A 
ATOM      8  C   UNL     1       1.059  12.831  19.867  0.00  0.00    +0.000 A 
ATOM      9  O   UNL     1       1.789  13.782  20.139  0.00  0.00    +0.000 OA
ATOM     10  N   UNL     1      -0.265  12.771  20.227  0.00  0.00    +0.000 N 
ENDROOT
BRANCH   5  11
ATOM     11  C   UNL     1      -1.644   9.901  18.184  0.00  0.00    +0.000 C 
ATOM     12  C   UNL     1      -3.082  10.221  17.853  0.00  0.00    +0.000 C 
ATOM     13  C   UNL     1      -2.058  10.278  16.771  0.00  0.00    +0.000 C 
ENDBRANCH   5  11
BRANCH   1  15
ATOM     14  O   UNL     1      -0.299  13.328  23.256  0.00  0.00    +0.000 OA
ATOM     15  C   UNL     1      -0.237  14.106  22.315  0.00  0.00    +0.000 C 
BRANCH  15  16
ATOM     16  O   UNL     1       0.470  15.262  22.403  0.00  0.00    +0.000 OA
ATOM     17  H   UNL     1       0.223  15.909  21.698  0.00  0.00    +0.000 HD
ENDBRANCH  15  16
ENDBRANCH   1  15
BRANCH   6  18
ATOM     18  C   UNL     1       1.347   9.476  18.008  0.00  0.00    +0.000 C 
BRANCH  18  19
ATOM     19  N   UNL     1       1.758   8.376  18.891  0.00  0.00    +0.000 N 
ATOM     20  C   UNL     1       1.239   8.079  20.127  0.00  0.00    +0.000 A 
ATOM     21  C   UNL     1       1.846   6.932  20.586  0.00  0.00    +0.000 A 
ATOM     22  C   UNL     1       2.793   6.524  19.613  0.00  0.00    +0.000 A 
ATOM     23  C   UNL     1       3.692   5.444  19.533  0.00  0.00    +0.000 A 
ATOM     24  C   UNL     1       4.532   5.329  18.423  0.00  0.00    +0.000 A 
ATOM     25  C   UNL     1       4.495   6.282  17.409  0.00  0.00    +0.000 A 
ATOM     26  C   UNL     1       3.608   7.363  17.464  0.00  0.00    +0.000 A 
ATOM     27  C   UNL     1       2.752   7.460  18.575  0.00  0.00    +0.000 A 
ENDBRANCH  18  19
ENDBRANCH   6  18
TORSDOF 5
ENDMDL
