MODEL 1
REMARK VINA RESULT:      -8.0      0.000      0.000
REMARK  Name = 
REMARK  7 active torsions:
REMARK  status: ('A' for Active; 'I' for Inactive)
REMARK    1  A    between atoms: C_1  and  C_2
REMARK    2  A    between atoms: C_5  and  O_6
REMARK    3  A    between atoms: O_6  and  C_7
REMARK    4  A    between atoms: C_7  and  C_8
REMARK    5  A    between atoms: C_8  and  N_9
REMARK    6  A    between atoms: C_17  and  C_18
REMARK    7  A    between atoms: C_18  and  C_19
REMARK                            x       y       z     vdW  Elec       q    Type
REMARK                         _______ _______ _______ _____ _____    ______ ____
ROOT
ATOM      1  C   UNL     1       6.500   4.055  14.227  0.00  0.00    +0.000 C 
ATOM      2  C   UNL     1       5.765   4.740  15.332  0.00  0.00    +0.000 A 
ATOM      3  C   UNL     1       5.419   6.080  15.226  0.00  0.00    +0.000 A 
ATOM      4  C   UNL     1       4.770   6.727  16.274  0.00  0.00    +0.000 A 
ATOM      5  C   UNL     1       4.419   6.059  17.459  0.00  0.00    +0.000 A 
ATOM      6  C   UNL     1       4.800   4.709  17.602  0.00  0.00    +0.000 A 
ATOM      7  C   UNL     1       5.451   4.066  16.519  0.00  0.00    +0.000 A 
ENDROOT
BRANCH   5   8
ATOM      8  O   UNL     1       3.777   6.709  18.501  0.00  0.00    +0.000 OA
BRANCH   8   9
ATOM      9  C   UNL     1       2.416   7.082  18.212  0.00  0.00    +0.000 C 
BRANCH   9  10
ATOM     10  C   UNL     1       2.124   8.583  18.344  0.00  0.00    +0.000 C 
BRANCH  10  11
ATOM     11  N   UNL     1       1.364   9.069  19.515  0.00  0.00    +0.000 N 
ATOM     12  C   UNL     1       1.620   8.439  20.723  0.00  0.00    +0.000 A 
ATOM     13  C   UNL     1       0.913   8.681  21.827  0.00  0.00    +0.000 A 
ATOM     14  C   UNL     1      -0.181   9.660  21.764  0.00  0.00    +0.000 A 
ATOM     15  O   UNL     1      -0.894   9.872  22.741  0.00  0.00    +0.000 OA
ATOM     16  N   UNL     1      -0.363  10.260  20.558  0.00  0.00    +0.000 N 
ATOM     17  C   UNL     1       0.288   9.948  19.388  0.00  0.00    +0.000 A 
ATOM     18  O   UNL     1      -0.129  10.426  18.336  0.00  0.00    +0.000 OA
ATOM     19  H   UNL     1      -1.147  10.889  20.477  0.00  0.00    +0.000 HD
ENDBRANCH  10  11
ENDBRANCH   9  10
ENDBRANCH   8   9
ENDBRANCH   5   8
BRANCH   6  20
ATOM     20  C   UNL     1       4.635   3.905  18.876  0.00  0.00    +0.000 C 
BRANCH  20  21
ATOM     21  C   UNL     1       3.220   3.562  19.294  0.00  0.00    +0.000 A 
ATOM     22  C   UNL     1       2.655   4.065  20.478  0.00  0.00    +0.000 A 
ATOM     23  C   UNL     1       1.316   3.806  20.799  0.00  0.00    +0.000 A 
ATOM     24  C   UNL     1       0.528   3.046  19.938  0.00  0.00    +0.000 A 
ATOM     25  C   UNL     1       1.080   2.536  18.764  0.00  0.00    +0.000 A 
ATOM     26  C   UNL     1       2.417   2.786  18.446  0.00  0.00    +0.000 A 
ENDBRANCH  20  21
ENDBRANCH   6  20
TORSDOF 6
ENDMDL
MODEL 2
REMARK VINA RESULT:      -7.9      3.441      6.679
REMARK  Name = 
REMARK  7 active torsions:
REMARK  status: ('A' for Active; 'I' for Inactive)
REMARK    1  A    between atoms: C_1  and  C_2
REMARK    2  A    between atoms: C_5  and  O_6
REMARK    3  A    between atoms: O_6  and  C_7
REMARK    4  A    between atoms: C_7  and  C_8
REMARK    5  A    between atoms: C_8  and  N_9
REMARK    6  A    between atoms: C_17  and  C_18
REMARK    7  A    between atoms: C_18  and  C_19
REMARK                            x       y       z     vdW  Elec       q    Type
REMARK                         _______ _______ _______ _____ _____    ______ ____
ROOT
ATOM      1  C   UNL     1       1.109   2.474  22.116  0.00  0.00    +0.000 C 
ATOM      2  C   UNL     1       1.627   2.965  20.805  0.00  0.00    +0.000 A 
ATOM      3  C   UNL     1       1.588   2.152  19.680  0.00  0.00    +0.000 A 
ATOM      4  C   UNL     1       2.109   2.596  18.468  0.00  0.00    +0.000 A 
ATOM      5  C   UNL     1       2.666   3.878  18.322  0.00  0.00    +0.000 A 
ATOM      6  C   UNL     1       2.752   4.702  19.463  0.00  0.00    +0.000 A 
ATOM      7  C   UNL     1       2.207   4.234  20.685  0.00  0.00    +0.000 A 
ENDROOT
BRANCH   5   8
ATOM      8  O   UNL     1       3.187   4.315  17.115  0.00  0.00    +0.000 OA
BRANCH   8   9
ATOM      9  C   UNL     1       4.319   3.554  16.652  0.00  0.00    +0.000 C 
BRANCH   9  10
ATOM     10  C   UNL     1       5.390   4.378  15.927  0.00  0.00    +0.000 C 
BRANCH  10  11
ATOM     11  N   UNL     1       6.138   5.408  16.678  0.00  0.00    +0.000 N 
ATOM     12  C   UNL     1       5.623   6.695  16.643  0.00  0.00    +0.000 A 
ATOM     13  C   UNL     1       6.265   7.743  17.159  0.00  0.00    +0.000 A 
ATOM     14  C   UNL     1       7.572   7.528  17.795  0.00  0.00    +0.000 A 
ATOM     15  O   UNL     1       8.224   8.472  18.232  0.00  0.00    +0.000 OA
ATOM     16  N   UNL     1       8.008   6.241  17.818  0.00  0.00    +0.000 N 
ATOM     17  C   UNL     1       7.408   5.167  17.202  0.00  0.00    +0.000 A 
ATOM     18  O   UNL     1       8.026   4.108  17.131  0.00  0.00    +0.000 OA
ATOM     19  H   UNL     1       8.930   6.079  18.195  0.00  0.00    +0.000 HD
ENDBRANCH  10  11
ENDBRANCH   9  10
ENDBRANCH   8   9
ENDBRANCH   5   8
BRANCH   6  20
ATOM     20  C   UNL     1       3.466   6.040  19.499  0.00  0.00    +0.000 C 
BRANCH  20  21
ATOM     21  C   UNL     1       2.621   7.276  19.272  0.00  0.00    +0.000 A 
ATOM     22  C   UNL     1       2.504   7.870  18.004  0.00  0.00    +0.000 A 
ATOM     23  C   UNL     1       1.648   8.960  17.799  0.00  0.00    +0.000 A 
ATOM     24  C   UNL     1       0.897   9.463  18.858  0.00  0.00    +0.000 A 
ATOM     25  C   UNL     1       1.009   8.886  20.123  0.00  0.00    +0.000 A 
ATOM     26  C   UNL     1       1.869   7.804  20.330  0.00  0.00    +0.000 A 
ENDBRANCH  20  21
ENDBRANCH   6  20
TORSDOF 6
ENDMDL
MODEL 3
REMARK VINA RESULT:      -7.9      3.767      7.437
REMARK  Name = 
REMARK  7 active torsions:
REMARK  status: ('A' for Active; 'I' for Inactive)
REMARK    1  A    between atoms: C_1  and  C_2
REMARK    2  A    between atoms: C_5  and  O_6
REMARK    3  A    between atoms: O_6  and  C_7
REMARK    4  A    between atoms: C_7  and  C_8
REMARK    5  A    between atoms: C_8  and  N_9
REMARK    6  A    between atoms: C_17  and  C_18
REMARK    7  A    between atoms: C_18  and  C_19
REMARK                            x       y       z     vdW  Elec       q    Type
REMARK                         _______ _______ _______ _____ _____    ______ ____
ROOT
ATOM      1  C   UNL     1       1.078   2.513  18.746  0.00  0.00    +0.000 C 
ATOM      2  C   UNL     1       2.352   3.289  18.664  0.00  0.00    +0.000 A 
ATOM      3  C   UNL     1       3.530   2.769  19.182  0.00  0.00    +0.000 A 
ATOM      4  C   UNL     1       4.707   3.511  19.141  0.00  0.00    +0.000 A 
ATOM      5  C   UNL     1       4.763   4.790  18.562  0.00  0.00    +0.000 A 
ATOM      6  C   UNL     1       3.567   5.352  18.069  0.00  0.00    +0.000 A 
ATOM      7  C   UNL     1       2.381   4.575  18.111  0.00  0.00    +0.000 A 
ENDROOT
BRANCH   5   8
ATOM      8  O   UNL     1       5.936   5.526  18.527  0.00  0.00    +0.000 OA
BRANCH   8   9
ATOM      9  C   UNL     1       6.899   5.055  17.565  0.00  0.00    +0.000 C 
BRANCH   9  10
ATOM     10  C   UNL     1       6.923   5.839  16.248  0.00  0.00    +0.000 C 
BRANCH  10  11
ATOM     11  N   UNL     1       6.595   5.141  14.987  0.00  0.00    +0.000 N 
ATOM     12  C   UNL     1       5.530   4.255  15.030  0.00  0.00    +0.000 A 
ATOM     13  C   UNL     1       5.211   3.459  14.008  0.00  0.00    +0.000 A 
ATOM     14  C   UNL     1       6.019   3.525  12.783  0.00  0.00    +0.000 A 
ATOM     15  O   UNL     1       5.798   2.771  11.840  0.00  0.00    +0.000 OA
ATOM     16  N   UNL     1       7.033   4.431  12.797  0.00  0.00    +0.000 N 
ATOM     17  C   UNL     1       7.436   5.184  13.875  0.00  0.00    +0.000 A 
ATOM     18  O   UNL     1       8.496   5.801  13.799  0.00  0.00    +0.000 OA
ATOM     19  H   UNL     1       7.638   4.449  11.990  0.00  0.00    +0.000 HD
ENDBRANCH  10  11
ENDBRANCH   9  10
ENDBRANCH   8   9
ENDBRANCH   5   8
BRANCH   6  20
ATOM     20  C   UNL     1       3.435   6.775  17.563  0.00  0.00    +0.000 C 
BRANCH  20  21
ATOM     21  C   UNL     1       2.594   7.724  18.391  0.00  0.00    +0.000 A 
ATOM     22  C   UNL     1       2.027   8.885  17.839  0.00  0.00    +0.000 A 
ATOM     23  C   UNL     1       1.181   9.701  18.601  0.00  0.00    +0.000 A 
ATOM     24  C   UNL     1       0.890   9.362  19.920  0.00  0.00    +0.000 A 
ATOM     25  C   UNL     1       1.453   8.216  20.481  0.00  0.00    +0.000 A 
ATOM     26  C   UNL     1       2.303   7.406  19.725  0.00  0.00    +0.000 A 
ENDBRANCH  20  21
ENDBRANCH   6  20
TORSDOF 6
ENDMDL
MODEL 4
REMARK VINA RESULT:      -7.7      1.959      4.807
REMARK  Name = 
REMARK  7 active torsions:
REMARK  status: ('A' for Active; 'I' for Inactive)
REMARK    1  A    between atoms: C_1  and  C_2
REMARK    2  A    between atoms: C_5  and  O_6
REMARK    3  A    between atoms: O_6  and  C_7
REMARK    4  A    between atoms: C_7  and  C_8
REMARK    5  A    between atoms: C_8  and  N_9
REMARK    6  A    between atoms: C_17  and  C_18
REMARK    7  A    between atoms: C_18  and  C_19
REMARK                            x       y       z     vdW  Elec       q    Type
REMARK                         _______ _______ _______ _____ _____    ______ ____
ROOT
ATOM      1  C   UNL     1       1.786   2.099  18.919  0.00  0.00    +0.000 C 
ATOM      2  C   UNL     1       1.963   3.541  19.265  0.00  0.00    +0.000 A 
ATOM      3  C   UNL     1       1.222   4.119  20.287  0.00  0.00    +0.000 A 
ATOM      4  C   UNL     1       1.359   5.473  20.581  0.00  0.00    +0.000 A 
ATOM      5  C   UNL     1       2.257   6.299  19.884  0.00  0.00    +0.000 A 
ATOM      6  C   UNL     1       2.987   5.740  18.815  0.00  0.00    +0.000 A 
ATOM      7  C   UNL     1       2.840   4.357  18.539  0.00  0.00    +0.000 A 
ENDROOT
BRANCH   5   8
ATOM      8  O   UNL     1       2.386   7.647  20.178  0.00  0.00    +0.000 OA
BRANCH   8   9
ATOM      9  C   UNL     1       1.271   8.202  20.901  0.00  0.00    +0.000 C 
BRANCH   9  10
ATOM     10  C   UNL     1       0.458   9.244  20.122  0.00  0.00    +0.000 C 
BRANCH  10  11
ATOM     11  N   UNL     1       1.154  10.407  19.532  0.00  0.00    +0.000 N 
ATOM     12  C   UNL     1       1.036  11.608  20.213  0.00  0.00    +0.000 A 
ATOM     13  C   UNL     1       1.495  12.762  19.726  0.00  0.00    +0.000 A 
ATOM     14  C   UNL     1       2.158  12.761  18.415  0.00  0.00    +0.000 A 
ATOM     15  O   UNL     1       2.544  13.807  17.903  0.00  0.00    +0.000 OA
ATOM     16  N   UNL     1       2.263  11.547  17.812  0.00  0.00    +0.000 N 
ATOM     17  C   UNL     1       1.707  10.369  18.252  0.00  0.00    +0.000 A 
ATOM     18  O   UNL     1       1.706   9.399  17.497  0.00  0.00    +0.000 OA
ATOM     19  H   UNL     1       2.660  11.533  16.884  0.00  0.00    +0.000 HD
ENDBRANCH  10  11
ENDBRANCH   9  10
ENDBRANCH   8   9
ENDBRANCH   5   8
BRANCH   6  20
ATOM     20  C   UNL     1       3.870   6.536  17.875  0.00  0.00    +0.000 C 
BRANCH  20  21
ATOM     21  C   UNL     1       5.021   5.797  17.223  0.00  0.00    +0.000 A 
ATOM     22  C   UNL     1       5.081   5.599  15.833  0.00  0.00    +0.000 A 
ATOM     23  C   UNL     1       6.198   4.991  15.245  0.00  0.00    +0.000 A 
ATOM     24  C   UNL     1       7.266   4.580  16.038  0.00  0.00    +0.000 A 
ATOM     25  C   UNL     1       7.214   4.766  17.419  0.00  0.00    +0.000 A 
ATOM     26  C   UNL     1       6.098   5.365  18.008  0.00  0.00    +0.000 A 
ENDBRANCH  20  21
ENDBRANCH   6  20
TORSDOF 6
ENDMDL
MODEL 5
REMARK VINA RESULT:      -7.7      2.950      6.159
REMARK  Name = 
REMARK  7 active torsions:
REMARK  status: ('A' for Active; 'I' for Inactive)
REMARK    1  A    between atoms: C_1  and  C_2
REMARK    2  A    between atoms: C_5  and  O_6
REMARK    3  A    between atoms: O_6  and  C_7
REMARK    4  A    between atoms: C_7  and  C_8
REMARK    5  A    between atoms: C_8  and  N_9
REMARK    6  A    between atoms: C_17  and  C_18
REMARK    7  A    between atoms: C_18  and  C_19
REMARK                            x       y       z     vdW  Elec       q    Type
REMARK                         _______ _______ _______ _____ _____    ______ ____
ROOT
ATOM      1  C   UNL     1      -0.121   9.593  21.572  0.00  0.00    +0.000 C 
ATOM      2  C   UNL     1       0.744   9.047  20.483  0.00  0.00    +0.000 A 
ATOM      3  C   UNL     1       0.707   9.597  19.210  0.00  0.00    +0.000 A 
ATOM      4  C   UNL     1       1.483   9.061  18.186  0.00  0.00    +0.000 A 
ATOM      5  C   UNL     1       2.345   7.971  18.397  0.00  0.00    +0.000 A 
ATOM      6  C   UNL     1       2.363   7.372  19.673  0.00  0.00    +0.000 A 
ATOM      7  C   UNL     1       1.573   7.940  20.704  0.00  0.00    +0.000 A 
ENDROOT
BRANCH   5   8
ATOM      8  O   UNL     1       3.112   7.437  17.374  0.00  0.00    +0.000 OA
BRANCH   8   9
ATOM      9  C   UNL     1       4.532   7.504  17.607  0.00  0.00    +0.000 C 
BRANCH   9  10
ATOM     10  C   UNL     1       5.335   6.347  16.999  0.00  0.00    +0.000 C 
BRANCH  10  11
ATOM     11  N   UNL     1       5.068   4.966  17.455  0.00  0.00    +0.000 N 
ATOM     12  C   UNL     1       4.042   4.290  16.812  0.00  0.00    +0.000 A 
ATOM     13  C   UNL     1       3.605   3.095  17.210  0.00  0.00    +0.000 A 
ATOM     14  C   UNL     1       4.236   2.465  18.377  0.00  0.00    +0.000 A 
ATOM     15  O   UNL     1       3.828   1.393  18.813  0.00  0.00    +0.000 OA
ATOM     16  N   UNL     1       5.251   3.168  18.946  0.00  0.00    +0.000 N 
ATOM     17  C   UNL     1       5.645   4.443  18.612  0.00  0.00    +0.000 A 
ATOM     18  O   UNL     1       6.433   5.029  19.350  0.00  0.00    +0.000 OA
ATOM     19  H   UNL     1       5.657   2.783  19.785  0.00  0.00    +0.000 HD
ENDBRANCH  10  11
ENDBRANCH   9  10
ENDBRANCH   8   9
ENDBRANCH   5   8
BRANCH   6  20
ATOM     20  C   UNL     1       3.115   6.099  20.010  0.00  0.00    +0.000 C 
BRANCH  20  21
ATOM     21  C   UNL     1       2.285   4.862  20.284  0.00  0.00    +0.000 A 
ATOM     22  C   UNL     1       1.368   4.363  19.343  0.00  0.00    +0.000 A 
ATOM     23  C   UNL     1       0.677   3.168  19.582  0.00  0.00    +0.000 A 
ATOM     24  C   UNL     1       0.898   2.460  20.760  0.00  0.00    +0.000 A 
ATOM     25  C   UNL     1       1.799   2.949  21.704  0.00  0.00    +0.000 A 
ATOM     26  C   UNL     1       2.484   4.145  21.471  0.00  0.00    +0.000 A 
ENDBRANCH  20  21
ENDBRANCH   6  20
TORSDOF 6
ENDMDL
MODEL 6
REMARK VINA RESULT:      -7.7      3.230      5.475
REMARK  Name = 
REMARK  7 active torsions:
REMARK  status: ('A' for Active; 'I' for Inactive)
REMARK    1  A    between atoms: C_1  and  C_2
REMARK    2  A    between atoms: C_5  and  O_6
REMARK    3  A    between atoms: O_6  and  C_7
REMARK    4  A    between atoms: C_7  and  C_8
REMARK    5  A    between atoms: C_8  and  N_9
REMARK    6  A    between atoms: C_17  and  C_18
REMARK    7  A    between atoms: C_18  and  C_19
REMARK                            x       y       z     vdW  Elec       q    Type
REMARK                         _______ _______ _______ _____ _____    ______ ____
ROOT
ATOM      1  C   UNL     1       7.916   7.921  17.717  0.00  0.00    +0.000 C 
ATOM      2  C   UNL     1       6.850   6.913  17.440  0.00  0.00    +0.000 A 
ATOM      3  C   UNL     1       6.923   6.098  16.318  0.00  0.00    +0.000 A 
ATOM      4  C   UNL     1       5.907   5.187  16.039  0.00  0.00    +0.000 A 
ATOM      5  C   UNL     1       4.791   5.035  16.880  0.00  0.00    +0.000 A 
ATOM      6  C   UNL     1       4.679   5.884  18.000  0.00  0.00    +0.000 A 
ATOM      7  C   UNL     1       5.729   6.797  18.271  0.00  0.00    +0.000 A 
ENDROOT
BRANCH   5   8
ATOM      8  O   UNL     1       3.781   4.130  16.596  0.00  0.00    +0.000 OA
BRANCH   8   9
ATOM      9  C   UNL     1       4.111   2.763  16.907  0.00  0.00    +0.000 C 
BRANCH   9  10
ATOM     10  C   UNL     1       2.959   1.950  17.512  0.00  0.00    +0.000 C 
BRANCH  10  11
ATOM     11  N   UNL     1       2.430   2.326  18.840  0.00  0.00    +0.000 N 
ATOM     12  C   UNL     1       3.348   2.382  19.878  0.00  0.00    +0.000 A 
ATOM     13  C   UNL     1       2.990   2.574  21.148  0.00  0.00    +0.000 A 
ATOM     14  C   UNL     1       1.564   2.737  21.462  0.00  0.00    +0.000 A 
ATOM     15  O   UNL     1       1.184   2.859  22.623  0.00  0.00    +0.000 OA
ATOM     16  N   UNL     1       0.720   2.698  20.398  0.00  0.00    +0.000 N 
ATOM     17  C   UNL     1       1.062   2.400  19.099  0.00  0.00    +0.000 A 
ATOM     18  O   UNL     1       0.164   2.195  18.286  0.00  0.00    +0.000 OA
ATOM     19  H   UNL     1      -0.268   2.747  20.598  0.00  0.00    +0.000 HD
ENDBRANCH  10  11
ENDBRANCH   9  10
ENDBRANCH   8   9
ENDBRANCH   5   8
BRANCH   6  20
ATOM     20  C   UNL     1       3.465   5.949  18.905  0.00  0.00    +0.000 C 
BRANCH  20  21
ATOM     21  C   UNL     1       2.691   7.251  18.925  0.00  0.00    +0.000 A 
ATOM     22  C   UNL     1       2.570   8.058  17.781  0.00  0.00    +0.000 A 
ATOM     23  C   UNL     1       1.776   9.212  17.800  0.00  0.00    +0.000 A 
ATOM     24  C   UNL     1       1.094   9.569  18.960  0.00  0.00    +0.000 A 
ATOM     25  C   UNL     1       1.213   8.781  20.103  0.00  0.00    +0.000 A 
ATOM     26  C   UNL     1       2.010   7.633  20.089  0.00  0.00    +0.000 A 
ENDBRANCH  20  21
ENDBRANCH   6  20
TORSDOF 6
ENDMDL
MODEL 7
REMARK VINA RESULT:      -7.7      1.493      1.944
REMARK  Name = 
REMARK  7 active torsions:
REMARK  status: ('A' for Active; 'I' for Inactive)
REMARK    1  A    between atoms: C_1  and  C_2
REMARK    2  A    between atoms: C_5  and  O_6
REMARK    3  A    between atoms: O_6  and  C_7
REMARK    4  A    between atoms: C_7  and  C_8
REMARK    5  A    between atoms: C_8  and  N_9
REMARK    6  A    between atoms: C_17  and  C_18
REMARK    7  A    between atoms: C_18  and  C_19
REMARK                            x       y       z     vdW  Elec       q    Type
REMARK                         _______ _______ _______ _____ _____    ______ ____
ROOT
ATOM      1  C   UNL     1       7.607   5.109  18.160  0.00  0.00    +0.000 C 
ATOM      2  C   UNL     1       6.242   5.689  17.995  0.00  0.00    +0.000 A 
ATOM      3  C   UNL     1       5.947   6.504  16.910  0.00  0.00    +0.000 A 
ATOM      4  C   UNL     1       4.685   7.078  16.780  0.00  0.00    +0.000 A 
ATOM      5  C   UNL     1       3.659   6.842  17.712  0.00  0.00    +0.000 A 
ATOM      6  C   UNL     1       3.953   6.051  18.841  0.00  0.00    +0.000 A 
ATOM      7  C   UNL     1       5.241   5.469  18.950  0.00  0.00    +0.000 A 
ENDROOT
BRANCH   5   8
ATOM      8  O   UNL     1       2.406   7.418  17.580  0.00  0.00    +0.000 OA
BRANCH   8   9
ATOM      9  C   UNL     1       2.387   8.841  17.801  0.00  0.00    +0.000 C 
BRANCH   9  10
ATOM     10  C   UNL     1       1.029   9.400  18.246  0.00  0.00    +0.000 C 
BRANCH  10  11
ATOM     11  N   UNL     1       0.810   9.711  19.674  0.00  0.00    +0.000 N 
ATOM     12  C   UNL     1       1.215   8.748  20.586  0.00  0.00    +0.000 A 
ATOM     13  C   UNL     1       0.957   8.836  21.891  0.00  0.00    +0.000 A 
ATOM     14  C   UNL     1       0.214  10.002  22.387  0.00  0.00    +0.000 A 
ATOM     15  O   UNL     1      -0.096  10.096  23.571  0.00  0.00    +0.000 OA
ATOM     16  N   UNL     1      -0.132  10.921  21.446  0.00  0.00    +0.000 N 
ATOM     17  C   UNL     1       0.038  10.797  20.087  0.00  0.00    +0.000 A 
ATOM     18  O   UNL     1      -0.513  11.609  19.348  0.00  0.00    +0.000 OA
ATOM     19  H   UNL     1      -0.695  11.698  21.755  0.00  0.00    +0.000 HD
ENDBRANCH  10  11
ENDBRANCH   9  10
ENDBRANCH   8   9
ENDBRANCH   5   8
BRANCH   6  20
ATOM     20  C   UNL     1       3.006   5.838  20.006  0.00  0.00    +0.000 C 
BRANCH  20  21
ATOM     21  C   UNL     1       2.192   4.560  20.006  0.00  0.00    +0.000 A 
ATOM     22  C   UNL     1       1.682   4.008  18.819  0.00  0.00    +0.000 A 
ATOM     23  C   UNL     1       1.008   2.780  18.833  0.00  0.00    +0.000 A 
ATOM     24  C   UNL     1       0.843   2.090  20.031  0.00  0.00    +0.000 A 
ATOM     25  C   UNL     1       1.339   2.632  21.216  0.00  0.00    +0.000 A 
ATOM     26  C   UNL     1       2.004   3.861  21.205  0.00  0.00    +0.000 A 
ENDBRANCH  20  21
ENDBRANCH   6  20
TORSDOF 6
ENDMDL
MODEL 8
REMARK VINA RESULT:      -7.6      2.411      5.572
REMARK  Name = 
REMARK  7 active torsions:
REMARK  status: ('A' for Active; 'I' for Inactive)
REMARK    1  A    between atoms: C_1  and  C_2
REMARK    2  A    between atoms: C_5  and  O_6
REMARK    3  A    between atoms: O_6  and  C_7
REMARK    4  A    between atoms: C_7  and  C_8
REMARK    5  A    between atoms: C_8  and  N_9
REMARK    6  A    between atoms: C_17  and  C_18
REMARK    7  A    between atoms: C_18  and  C_19
REMARK                            x       y       z     vdW  Elec       q    Type
REMARK                         _______ _______ _______ _____ _____    ______ ____
ROOT
ATOM      1  C   UNL     1       8.411   7.838  18.457  0.00  0.00    +0.000 C 
ATOM      2  C   UNL     1       7.460   6.713  18.211  0.00  0.00    +0.000 A 
ATOM      3  C   UNL     1       7.363   5.660  19.110  0.00  0.00    +0.000 A 
ATOM      4  C   UNL     1       6.506   4.592  18.858  0.00  0.00    +0.000 A 
ATOM      5  C   UNL     1       5.695   4.542  17.712  0.00  0.00    +0.000 A 
ATOM      6  C   UNL     1       5.811   5.581  16.766  0.00  0.00    +0.000 A 
ATOM      7  C   UNL     1       6.682   6.664  17.047  0.00  0.00    +0.000 A 
ENDROOT
BRANCH   5   8
ATOM      8  O   UNL     1       4.847   3.475  17.463  0.00  0.00    +0.000 OA
BRANCH   8   9
ATOM      9  C   UNL     1       4.160   2.985  18.631  0.00  0.00    +0.000 C 
BRANCH   9  10
ATOM     10  C   UNL     1       2.682   3.387  18.718  0.00  0.00    +0.000 C 
BRANCH  10  11
ATOM     11  N   UNL     1       2.332   4.754  19.161  0.00  0.00    +0.000 N 
ATOM     12  C   UNL     1       2.433   5.756  18.208  0.00  0.00    +0.000 A 
ATOM     13  C   UNL     1       2.280   7.048  18.502  0.00  0.00    +0.000 A 
ATOM     14  C   UNL     1       1.991   7.427  19.891  0.00  0.00    +0.000 A 
ATOM     15  O   UNL     1       1.900   8.607  20.217  0.00  0.00    +0.000 OA
ATOM     16  N   UNL     1       1.881   6.396  20.770  0.00  0.00    +0.000 N 
ATOM     17  C   UNL     1       2.134   5.070  20.504  0.00  0.00    +0.000 A 
ATOM     18  O   UNL     1       2.199   4.283  21.445  0.00  0.00    +0.000 OA
ATOM     19  H   UNL     1       1.743   6.637  21.740  0.00  0.00    +0.000 HD
ENDBRANCH  10  11
ENDBRANCH   9  10
ENDBRANCH   8   9
ENDBRANCH   5   8
BRANCH   6  20
ATOM     20  C   UNL     1       5.125   5.588  15.414  0.00  0.00    +0.000 C 
BRANCH  20  21
ATOM     21  C   UNL     1       5.847   4.902  14.273  0.00  0.00    +0.000 A 
ATOM     22  C   UNL     1       5.249   3.867  13.535  0.00  0.00    +0.000 A 
ATOM     23  C   UNL     1       5.901   3.308  12.428  0.00  0.00    +0.000 A 
ATOM     24  C   UNL     1       7.154   3.780  12.046  0.00  0.00    +0.000 A 
ATOM     25  C   UNL     1       7.760   4.802  12.776  0.00  0.00    +0.000 A 
ATOM     26  C   UNL     1       7.114   5.355  13.885  0.00  0.00    +0.000 A 
ENDBRANCH  20  21
ENDBRANCH   6  20
TORSDOF 6
ENDMDL
MODEL 9
REMARK VINA RESULT:      -7.5      1.083      1.916
REMARK  Name = 
REMARK  7 active torsions:
REMARK  status: ('A' for Active; 'I' for Inactive)
REMARK    1  A    between atoms: C_1  and  C_2
REMARK    2  A    between atoms: C_5  and  O_6
REMARK    3  A    between atoms: O_6  and  C_7
REMARK    4  A    between atoms: C_7  and  C_8
REMARK    5  A    between atoms: C_8  and  N_9
REMARK    6  A    between atoms: C_17  and  C_18
REMARK    7  A    between atoms: C_18  and  C_19
REMARK                            x       y       z     vdW  Elec       q    Type
REMARK                         _______ _______ _______ _____ _____    ______ ____
ROOT
ATOM      1  C   UNL     1       6.045   4.607  14.298  0.00  0.00    +0.000 C 
ATOM      2  C   UNL     1       5.453   5.031  15.601  0.00  0.00    +0.000 A 
ATOM      3  C   UNL     1       5.212   6.372  15.866  0.00  0.00    +0.000 A 
ATOM      4  C   UNL     1       4.699   6.768  17.098  0.00  0.00    +0.000 A 
ATOM      5  C   UNL     1       4.381   5.842  18.106  0.00  0.00    +0.000 A 
ATOM      6  C   UNL     1       4.657   4.479  17.871  0.00  0.00    +0.000 A 
ATOM      7  C   UNL     1       5.172   4.096  16.606  0.00  0.00    +0.000 A 
ENDROOT
BRANCH   5   8
ATOM      8  O   UNL     1       3.874   6.241  19.331  0.00  0.00    +0.000 OA
BRANCH   8   9
ATOM      9  C   UNL     1       2.447   6.443  19.340  0.00  0.00    +0.000 C 
BRANCH   9  10
ATOM     10  C   UNL     1       1.940   7.368  20.455  0.00  0.00    +0.000 C 
BRANCH  10  11
ATOM     11  N   UNL     1       1.471   8.726  20.107  0.00  0.00    +0.000 N 
ATOM     12  C   UNL     1       1.563   9.088  18.772  0.00  0.00    +0.000 A 
ATOM     13  C   UNL     1       1.305  10.323  18.340  0.00  0.00    +0.000 A 
ATOM     14  C   UNL     1       0.904  11.344  19.318  0.00  0.00    +0.000 A 
ATOM     15  O   UNL     1       0.713  12.506  18.973  0.00  0.00    +0.000 OA
ATOM     16  N   UNL     1       0.809  10.918  20.605  0.00  0.00    +0.000 N 
ATOM     17  C   UNL     1       1.168   9.678  21.080  0.00  0.00    +0.000 A 
ATOM     18  O   UNL     1       1.227   9.507  22.295  0.00  0.00    +0.000 OA
ATOM     19  H   UNL     1       0.595  11.616  21.301  0.00  0.00    +0.000 HD
ENDBRANCH  10  11
ENDBRANCH   9  10
ENDBRANCH   8   9
ENDBRANCH   5   8
BRANCH   6  20
ATOM     20  C   UNL     1       4.519   3.387  18.913  0.00  0.00    +0.000 C 
BRANCH  20  21
ATOM     21  C   UNL     1       3.115   3.041  19.364  0.00  0.00    +0.000 A 
ATOM     22  C   UNL     1       2.752   3.042  20.721  0.00  0.00    +0.000 A 
ATOM     23  C   UNL     1       1.427   2.806  21.108  0.00  0.00    +0.000 A 
ATOM     24  C   UNL     1       0.451   2.570  20.143  0.00  0.00    +0.000 A 
ATOM     25  C   UNL     1       0.801   2.559  18.793  0.00  0.00    +0.000 A 
ATOM     26  C   UNL     1       2.124   2.787  18.406  0.00  0.00    +0.000 A 
ENDBRANCH  20  21
ENDBRANCH   6  20
TORSDOF 6
ENDMDL
