MODEL 1
REMARK VINA RESULT:      -8.4      0.000      0.000
REMARK  Name = 
REMARK  7 active torsions:
REMARK  status: ('A' for Active; 'I' for Inactive)
REMARK    1  A    between atoms: C_1  and  C_2
REMARK    2  A    between atoms: C_2  and  N_3
REMARK    3  A    between atoms: C_6  and  S_7
REMARK    4  A    between atoms: S_7  and  C_10
REMARK    5  A    between atoms: C_15  and  N_16
REMARK    6  A    between atoms: N_19  and  C_20
REMARK    7  A    between atoms: C_28  and  O_29
REMARK                            x       y       z     vdW  Elec       q    Type
REMARK                         _______ _______ _______ _____ _____    ______ ____
ROOT
ATOM      1  C   UNL     1       5.867   5.072  17.525  0.00  0.00    +0.000 A 
ATOM      2  C   UNL     1       6.023   5.241  16.145  0.00  0.00    +0.000 A 
ATOM      3 CL   UNL     1       5.197   4.380  14.904  0.00  0.00    +0.000 Cl
ATOM      4  C   UNL     1       6.992   6.128  15.668  0.00  0.00    +0.000 A 
ATOM      5  C   UNL     1       7.742   6.912  16.542  0.00  0.00    +0.000 A 
ATOM      6  C   UNL     1       7.604   6.800  17.922  0.00  0.00    +0.000 A 
ATOM      7  C   UNL     1       6.681   5.835  18.397  0.00  0.00    +0.000 A 
ENDROOT
BRANCH   6   8
ATOM      8  N   UNL     1       8.391   7.618  18.803  0.00  0.00    +0.000 N 
ATOM      9  C   UNL     1       8.591   8.978  18.612  0.00  0.00    +0.000 C 
ATOM     10  O   UNL     1       8.208   9.613  17.643  0.00  0.00    +0.000 OA
ATOM     11  N   UNL     1       9.327   9.596  19.628  0.00  0.00    +0.000 N 
ATOM     12  H   UNL     1       8.900   7.176  19.549  0.00  0.00    +0.000 HD
ATOM     13  H   UNL     1      10.126   9.057  19.927  0.00  0.00    +0.000 HD
BRANCH  11  14
ATOM     14  C   UNL     1       9.583  11.001  19.478  0.00  0.00    +0.000 A 
ATOM     15  C   UNL     1      10.203  11.473  18.309  0.00  0.00    +0.000 A 
ATOM     16  C   UNL     1      10.537  12.825  18.167  0.00  0.00    +0.000 A 
ATOM     17  C   UNL     1      10.261  13.718  19.199  0.00  0.00    +0.000 A 
ATOM     18  C   UNL     1       9.635  13.256  20.356  0.00  0.00    +0.000 A 
ATOM     19  F   UNL     1       9.402  14.134  21.342  0.00  0.00    +0.000 F 
ATOM     20  C   UNL     1       9.279  11.909  20.500  0.00  0.00    +0.000 A 
ATOM     21 CL   UNL     1       8.548  11.375  21.972  0.00  0.00    +0.000 Cl
ENDBRANCH  11  14
ENDBRANCH   6   8
BRANCH   1  22
ATOM     22  S   UNL     1       4.593   4.002  18.215  0.00  0.00    +0.000 S 
ATOM     23  O   UNL     1       5.023   3.575  19.528  0.00  0.00    +0.000 OA
ATOM     24  O   UNL     1       4.341   2.946  17.234  0.00  0.00    +0.000 OA
BRANCH  22  28
ATOM     25  N   UNL     1       1.259   3.880  20.397  0.00  0.00    +0.000 NA
ATOM     26  C   UNL     1       2.449   4.664  20.748  0.00  0.00    +0.000 C 
ATOM     27  C   UNL     1       2.811   5.655  19.649  0.00  0.00    +0.000 C 
ATOM     28  C   UNL     1       3.080   4.966  18.324  0.00  0.00    +0.000 C 
ATOM     29  C   UNL     1       1.849   4.106  17.981  0.00  0.00    +0.000 C 
ATOM     30  C   UNL     1       1.451   3.160  19.123  0.00  0.00    +0.000 C 
BRANCH  25  32
ATOM     31  C   UNL     1       2.175   2.166  21.985  0.00  0.00    +0.000 C 
ATOM     32  C   UNL     1       0.944   2.911  21.470  0.00  0.00    +0.000 C 
ENDBRANCH  25  32
ENDBRANCH  22  28
ENDBRANCH   1  22
BRANCH   7  33
ATOM     33  O   UNL     1       6.715   5.466  19.720  0.00  0.00    +0.000 OA
ATOM     34  H   UNL     1       6.001   5.908  20.195  0.00  0.00    +0.000 HD
ENDBRANCH   7  33
TORSDOF 6
ENDMDL
MODEL 2
REMARK VINA RESULT:      -8.4      1.252      1.862
REMARK  Name = 
REMARK  7 active torsions:
REMARK  status: ('A' for Active; 'I' for Inactive)
REMARK    1  A    between atoms: C_1  and  C_2
REMARK    2  A    between atoms: C_2  and  N_3
REMARK    3  A    between atoms: C_6  and  S_7
REMARK    4  A    between atoms: S_7  and  C_10
REMARK    5  A    between atoms: C_15  and  N_16
REMARK    6  A    between atoms: N_19  and  C_20
REMARK    7  A    between atoms: C_28  and  O_29
REMARK                            x       y       z     vdW  Elec       q    Type
REMARK                         _______ _______ _______ _____ _____    ______ ____
ROOT
ATOM      1  C   UNL     1       5.574   4.876  18.072  0.00  0.00    +0.000 A 
ATOM      2  C   UNL     1       5.569   4.873  16.673  0.00  0.00    +0.000 A 
ATOM      3 CL   UNL     1       4.551   3.934  15.650  0.00  0.00    +0.000 Cl
ATOM      4  C   UNL     1       6.518   5.632  15.982  0.00  0.00    +0.000 A 
ATOM      5  C   UNL     1       7.410   6.458  16.661  0.00  0.00    +0.000 A 
ATOM      6  C   UNL     1       7.436   6.517  18.052  0.00  0.00    +0.000 A 
ATOM      7  C   UNL     1       6.528   5.678  18.744  0.00  0.00    +0.000 A 
ENDROOT
BRANCH   6   8
ATOM      8  N   UNL     1       8.368   7.375  18.729  0.00  0.00    +0.000 N 
ATOM      9  C   UNL     1       8.450   8.743  18.507  0.00  0.00    +0.000 C 
ATOM     10  O   UNL     1       7.819   9.355  17.661  0.00  0.00    +0.000 OA
ATOM     11  N   UNL     1       9.374   9.400  19.326  0.00  0.00    +0.000 N 
ATOM     12  H   UNL     1       9.059   6.962  19.330  0.00  0.00    +0.000 HD
ATOM     13  H   UNL     1      10.246   8.902  19.425  0.00  0.00    +0.000 HD
BRANCH  11  14
ATOM     14  C   UNL     1       9.519  10.816  19.131  0.00  0.00    +0.000 A 
ATOM     15  C   UNL     1       9.991  11.303  17.902  0.00  0.00    +0.000 A 
ATOM     16  C   UNL     1      10.217  12.670  17.708  0.00  0.00    +0.000 A 
ATOM     17  C   UNL     1       9.981  13.564  18.748  0.00  0.00    +0.000 A 
ATOM     18  C   UNL     1       9.502  13.087  19.968  0.00  0.00    +0.000 A 
ATOM     19  F   UNL     1       9.306  13.969  20.959  0.00  0.00    +0.000 F 
ATOM     20  C   UNL     1       9.253  11.723  20.165  0.00  0.00    +0.000 A 
ATOM     21 CL   UNL     1       8.704  11.173  21.709  0.00  0.00    +0.000 Cl
ENDBRANCH  11  14
ENDBRANCH   6   8
BRANCH   1  22
ATOM     22  S   UNL     1       4.338   3.981  19.030  0.00  0.00    +0.000 S 
ATOM     23  O   UNL     1       4.505   4.331  20.423  0.00  0.00    +0.000 OA
ATOM     24  O   UNL     1       4.474   2.565  18.690  0.00  0.00    +0.000 OA
BRANCH  22  28
ATOM     25  N   UNL     1       1.625   6.708  20.076  0.00  0.00    +0.000 NA
ATOM     26  C   UNL     1       2.682   6.932  19.083  0.00  0.00    +0.000 C 
ATOM     27  C   UNL     1       2.604   5.924  17.943  0.00  0.00    +0.000 C 
ATOM     28  C   UNL     1       2.720   4.494  18.436  0.00  0.00    +0.000 C 
ATOM     29  C   UNL     1       1.640   4.276  19.511  0.00  0.00    +0.000 C 
ATOM     30  C   UNL     1       1.685   5.338  20.619  0.00  0.00    +0.000 C 
BRANCH  25  32
ATOM     31  C   UNL     1       0.514   8.591  21.308  0.00  0.00    +0.000 C 
ATOM     32  C   UNL     1       1.738   7.685  21.181  0.00  0.00    +0.000 C 
ENDBRANCH  25  32
ENDBRANCH  22  28
ENDBRANCH   1  22
BRANCH   7  33
ATOM     33  O   UNL     1       6.704   5.462  20.089  0.00  0.00    +0.000 OA
ATOM     34  H   UNL     1       6.280   4.632  20.340  0.00  0.00    +0.000 HD
ENDBRANCH   7  33
TORSDOF 6
ENDMDL
MODEL 3
REMARK VINA RESULT:      -8.2      0.895      1.074
REMARK  Name = 
REMARK  7 active torsions:
REMARK  status: ('A' for Active; 'I' for Inactive)
REMARK    1  A    between atoms: C_1  and  C_2
REMARK    2  A    between atoms: C_2  and  N_3
REMARK    3  A    between atoms: C_6  and  S_7
REMARK    4  A    between atoms: S_7  and  C_10
REMARK    5  A    between atoms: C_15  and  N_16
REMARK    6  A    between atoms: N_19  and  C_20
REMARK    7  A    between atoms: C_28  and  O_29
REMARK                            x       y       z     vdW  Elec       q    Type
REMARK                         _______ _______ _______ _____ _____    ______ ____
ROOT
ATOM      1  C   UNL     1       6.003   5.205  17.948  0.00  0.00    +0.000 A 
ATOM      2  C   UNL     1       5.987   5.337  16.555  0.00  0.00    +0.000 A 
ATOM      3 CL   UNL     1       5.030   4.430  15.448  0.00  0.00    +0.000 Cl
ATOM      4  C   UNL     1       6.875   6.224  15.940  0.00  0.00    +0.000 A 
ATOM      5  C   UNL     1       7.711   7.042  16.695  0.00  0.00    +0.000 A 
ATOM      6  C   UNL     1       7.744   6.968  18.085  0.00  0.00    +0.000 A 
ATOM      7  C   UNL     1       6.903   6.004  18.694  0.00  0.00    +0.000 A 
ENDROOT
BRANCH   6   8
ATOM      8  N   UNL     1       8.619   7.821  18.840  0.00  0.00    +0.000 N 
ATOM      9  C   UNL     1       8.682   9.198  18.670  0.00  0.00    +0.000 C 
ATOM     10  O   UNL     1       8.085   9.826  17.812  0.00  0.00    +0.000 OA
ATOM     11  N   UNL     1       9.545   9.844  19.560  0.00  0.00    +0.000 N 
ATOM     12  H   UNL     1       9.285   7.402  19.465  0.00  0.00    +0.000 HD
ATOM     13  H   UNL     1      10.422   9.361  19.689  0.00  0.00    +0.000 HD
BRANCH  11  14
ATOM     14  C   UNL     1       9.669  11.269  19.421  0.00  0.00    +0.000 A 
ATOM     15  C   UNL     1      10.252  11.806  18.262  0.00  0.00    +0.000 A 
ATOM     16  C   UNL     1      10.457  13.184  18.131  0.00  0.00    +0.000 A 
ATOM     17  C   UNL     1      10.089  14.039  19.166  0.00  0.00    +0.000 A 
ATOM     18  C   UNL     1       9.499  13.512  20.315  0.00  0.00    +0.000 A 
ATOM     19  F   UNL     1       9.176  14.357  21.304  0.00  0.00    +0.000 F 
ATOM     20  C   UNL     1       9.271  12.136  20.447  0.00  0.00    +0.000 A 
ATOM     21 CL   UNL     1       8.581  11.524  21.908  0.00  0.00    +0.000 Cl
ENDBRANCH  11  14
ENDBRANCH   6   8
BRANCH   1  22
ATOM     22  S   UNL     1       4.841   4.137  18.817  0.00  0.00    +0.000 S 
ATOM     23  O   UNL     1       4.295   4.875  19.933  0.00  0.00    +0.000 OA
ATOM     24  O   UNL     1       5.552   2.899  19.136  0.00  0.00    +0.000 OA
BRANCH  22  28
ATOM     25  N   UNL     1       1.064   2.888  19.066  0.00  0.00    +0.000 NA
ATOM     26  C   UNL     1       1.463   4.295  18.948  0.00  0.00    +0.000 C 
ATOM     27  C   UNL     1       2.285   4.540  17.689  0.00  0.00    +0.000 C 
ATOM     28  C   UNL     1       3.544   3.693  17.654  0.00  0.00    +0.000 C 
ATOM     29  C   UNL     1       3.125   2.220  17.826  0.00  0.00    +0.000 C 
ATOM     30  C   UNL     1       2.240   1.997  19.060  0.00  0.00    +0.000 C 
BRANCH  25  32
ATOM     31  C   UNL     1       1.148   2.720  21.569  0.00  0.00    +0.000 C 
ATOM     32  C   UNL     1       0.287   2.674  20.307  0.00  0.00    +0.000 C 
ENDBRANCH  25  32
ENDBRANCH  22  28
ENDBRANCH   1  22
BRANCH   7  33
ATOM     33  O   UNL     1       7.105   5.673  20.011  0.00  0.00    +0.000 OA
ATOM     34  H   UNL     1       6.289   5.310  20.380  0.00  0.00    +0.000 HD
ENDBRANCH   7  33
TORSDOF 6
ENDMDL
MODEL 4
REMARK VINA RESULT:      -8.2      7.094     10.839
REMARK  Name = 
REMARK  7 active torsions:
REMARK  status: ('A' for Active; 'I' for Inactive)
REMARK    1  A    between atoms: C_1  and  C_2
REMARK    2  A    between atoms: C_2  and  N_3
REMARK    3  A    between atoms: C_6  and  S_7
REMARK    4  A    between atoms: S_7  and  C_10
REMARK    5  A    between atoms: C_15  and  N_16
REMARK    6  A    between atoms: N_19  and  C_20
REMARK    7  A    between atoms: C_28  and  O_29
REMARK                            x       y       z     vdW  Elec       q    Type
REMARK                         _______ _______ _______ _____ _____    ______ ____
ROOT
ATOM      1  C   UNL     1      -0.479  11.421  21.172  0.00  0.00    +0.000 A 
ATOM      2  C   UNL     1      -1.168  11.356  22.388  0.00  0.00    +0.000 A 
ATOM      3 CL   UNL     1      -2.339  12.476  22.967  0.00  0.00    +0.000 Cl
ATOM      4  C   UNL     1      -0.855  10.344  23.300  0.00  0.00    +0.000 A 
ATOM      5  C   UNL     1       0.065   9.348  22.982  0.00  0.00    +0.000 A 
ATOM      6  C   UNL     1       0.756   9.353  21.773  0.00  0.00    +0.000 A 
ATOM      7  C   UNL     1       0.496  10.432  20.892  0.00  0.00    +0.000 A 
ENDROOT
BRANCH   6   8
ATOM      8  N   UNL     1       1.703   8.316  21.470  0.00  0.00    +0.000 N 
ATOM      9  C   UNL     1       1.346   7.081  20.947  0.00  0.00    +0.000 C 
ATOM     10  O   UNL     1       0.200   6.698  20.773  0.00  0.00    +0.000 OA
ATOM     11  N   UNL     1       2.430   6.248  20.656  0.00  0.00    +0.000 N 
ATOM     12  H   UNL     1       2.666   8.448  21.727  0.00  0.00    +0.000 HD
ATOM     13  H   UNL     1       3.140   6.250  21.374  0.00  0.00    +0.000 HD
BRANCH  11  14
ATOM     14  C   UNL     1       2.124   4.947  20.130  0.00  0.00    +0.000 A 
ATOM     15  C   UNL     1       1.668   3.938  20.994  0.00  0.00    +0.000 A 
ATOM     16  C   UNL     1       1.436   2.640  20.526  0.00  0.00    +0.000 A 
ATOM     17  C   UNL     1       1.668   2.336  19.187  0.00  0.00    +0.000 A 
ATOM     18  C   UNL     1       2.110   3.337  18.323  0.00  0.00    +0.000 A 
ATOM     19  F   UNL     1       2.346   3.009  17.044  0.00  0.00    +0.000 F 
ATOM     20  C   UNL     1       2.325   4.644  18.777  0.00  0.00    +0.000 A 
ATOM     21 CL   UNL     1       2.919   5.840  17.679  0.00  0.00    +0.000 Cl
ENDBRANCH  11  14
ENDBRANCH   6   8
BRANCH   1  22
ATOM     22  S   UNL     1      -0.876  12.651  19.917  0.00  0.00    +0.000 S 
ATOM     23  O   UNL     1      -2.299  12.598  19.666  0.00  0.00    +0.000 OA
ATOM     24  O   UNL     1      -0.000  12.395  18.774  0.00  0.00    +0.000 OA
BRANCH  22  28
ATOM     25  N   UNL     1       2.334  15.004  19.712  0.00  0.00    +0.000 NA
ATOM     26  C   UNL     1       1.190  15.086  18.797  0.00  0.00    +0.000 C 
ATOM     27  C   UNL     1      -0.111  15.342  19.549  0.00  0.00    +0.000 C 
ATOM     28  C   UNL     1      -0.404  14.258  20.570  0.00  0.00    +0.000 C 
ATOM     29  C   UNL     1       0.818  14.142  21.499  0.00  0.00    +0.000 C 
ATOM     30  C   UNL     1       2.132  13.953  20.727  0.00  0.00    +0.000 C 
BRANCH  25  32
ATOM     31  C   UNL     1       3.604  15.400  17.584  0.00  0.00    +0.000 C 
ATOM     32  C   UNL     1       3.579  14.733  18.959  0.00  0.00    +0.000 C 
ENDBRANCH  25  32
ENDBRANCH  22  28
ENDBRANCH   1  22
BRANCH   7  33
ATOM     33  O   UNL     1       1.347  10.660  19.839  0.00  0.00    +0.000 OA
ATOM     34  H   UNL     1       0.894  11.187  19.168  0.00  0.00    +0.000 HD
ENDBRANCH   7  33
TORSDOF 6
ENDMDL
MODEL 5
REMARK VINA RESULT:      -8.1      4.905      7.349
REMARK  Name = 
REMARK  7 active torsions:
REMARK  status: ('A' for Active; 'I' for Inactive)
REMARK    1  A    between atoms: C_1  and  C_2
REMARK    2  A    between atoms: C_2  and  N_3
REMARK    3  A    between atoms: C_6  and  S_7
REMARK    4  A    between atoms: S_7  and  C_10
REMARK    5  A    between atoms: C_15  and  N_16
REMARK    6  A    between atoms: N_19  and  C_20
REMARK    7  A    between atoms: C_28  and  O_29
REMARK                            x       y       z     vdW  Elec       q    Type
REMARK                         _______ _______ _______ _____ _____    ______ ____
ROOT
ATOM      1  C   UNL     1       2.879   4.980  18.475  0.00  0.00    +0.000 A 
ATOM      2  C   UNL     1       2.150   3.874  18.927  0.00  0.00    +0.000 A 
ATOM      3 CL   UNL     1       2.081   2.318  18.195  0.00  0.00    +0.000 Cl
ATOM      4  C   UNL     1       1.312   4.013  20.038  0.00  0.00    +0.000 A 
ATOM      5  C   UNL     1       1.259   5.207  20.754  0.00  0.00    +0.000 A 
ATOM      6  C   UNL     1       1.987   6.326  20.359  0.00  0.00    +0.000 A 
ATOM      7  C   UNL     1       2.766   6.202  19.182  0.00  0.00    +0.000 A 
ENDROOT
BRANCH   6   8
ATOM      8  N   UNL     1       1.913   7.547  21.113  0.00  0.00    +0.000 N 
ATOM      9  C   UNL     1       1.235   8.678  20.678  0.00  0.00    +0.000 C 
ATOM     10  O   UNL     1       0.710   8.801  19.583  0.00  0.00    +0.000 OA
ATOM     11  N   UNL     1       1.225   9.729  21.599  0.00  0.00    +0.000 N 
ATOM     12  H   UNL     1       2.449   7.627  21.960  0.00  0.00    +0.000 HD
ATOM     13  H   UNL     1       2.119   9.878  22.045  0.00  0.00    +0.000 HD
BRANCH  11  14
ATOM     14  C   UNL     1       0.555  10.934  21.199  0.00  0.00    +0.000 A 
ATOM     15  C   UNL     1       1.067  11.693  20.133  0.00  0.00    +0.000 A 
ATOM     16  C   UNL     1       0.482  12.911  19.770  0.00  0.00    +0.000 A 
ATOM     17  C   UNL     1      -0.618  13.388  20.477  0.00  0.00    +0.000 A 
ATOM     18  C   UNL     1      -1.137  12.633  21.529  0.00  0.00    +0.000 A 
ATOM     19  F   UNL     1      -2.183  13.129  22.207  0.00  0.00    +0.000 F 
ATOM     20  C   UNL     1      -0.571  11.403  21.887  0.00  0.00    +0.000 A 
ATOM     21 CL   UNL     1      -1.220  10.526  23.228  0.00  0.00    +0.000 Cl
ENDBRANCH  11  14
ENDBRANCH   6   8
BRANCH   1  22
ATOM     22  S   UNL     1       4.032   4.860  17.096  0.00  0.00    +0.000 S 
ATOM     23  O   UNL     1       4.377   6.199  16.677  0.00  0.00    +0.000 OA
ATOM     24  O   UNL     1       3.410   3.999  16.090  0.00  0.00    +0.000 OA
BRANCH  22  28
ATOM     25  N   UNL     1       7.649   5.870  18.431  0.00  0.00    +0.000 NA
ATOM     26  C   UNL     1       6.481   5.656  19.292  0.00  0.00    +0.000 C 
ATOM     27  C   UNL     1       5.906   4.256  19.119  0.00  0.00    +0.000 C 
ATOM     28  C   UNL     1       5.487   3.984  17.685  0.00  0.00    +0.000 C 
ATOM     29  C   UNL     1       6.702   4.255  16.779  0.00  0.00    +0.000 C 
ATOM     30  C   UNL     1       7.316   5.643  17.012  0.00  0.00    +0.000 C 
BRANCH  25  32
ATOM     31  C   UNL     1       7.696   8.207  17.516  0.00  0.00    +0.000 C 
ATOM     32  C   UNL     1       8.173   7.244  18.603  0.00  0.00    +0.000 C 
ENDBRANCH  25  32
ENDBRANCH  22  28
ENDBRANCH   1  22
BRANCH   7  33
ATOM     33  O   UNL     1       3.257   7.333  18.578  0.00  0.00    +0.000 OA
ATOM     34  H   UNL     1       2.622   7.650  17.924  0.00  0.00    +0.000 HD
ENDBRANCH   7  33
TORSDOF 6
ENDMDL
MODEL 6
REMARK VINA RESULT:      -8.1      7.186      9.987
REMARK  Name = 
REMARK  7 active torsions:
REMARK  status: ('A' for Active; 'I' for Inactive)
REMARK    1  A    between atoms: C_1  and  C_2
REMARK    2  A    between atoms: C_2  and  N_3
REMARK    3  A    between atoms: C_6  and  S_7
REMARK    4  A    between atoms: S_7  and  C_10
REMARK    5  A    between atoms: C_15  and  N_16
REMARK    6  A    between atoms: N_19  and  C_20
REMARK    7  A    between atoms: C_28  and  O_29
REMARK                            x       y       z     vdW  Elec       q    Type
REMARK                         _______ _______ _______ _____ _____    ______ ____
ROOT
ATOM      1  C   UNL     1      -0.713  10.986  19.821  0.00  0.00    +0.000 A 
ATOM      2  C   UNL     1      -0.738  10.891  21.217  0.00  0.00    +0.000 A 
ATOM      3 CL   UNL     1      -1.754  11.776  22.288  0.00  0.00    +0.000 Cl
ATOM      4  C   UNL     1       0.188  10.070  21.866  0.00  0.00    +0.000 A 
ATOM      5  C   UNL     1       1.075   9.276  21.143  0.00  0.00    +0.000 A 
ATOM      6  C   UNL     1       1.121   9.314  19.752  0.00  0.00    +0.000 A 
ATOM      7  C   UNL     1       0.238  10.215  19.107  0.00  0.00    +0.000 A 
ENDROOT
BRANCH   6   8
ATOM      8  N   UNL     1       2.048   8.488  19.030  0.00  0.00    +0.000 N 
ATOM      9  C   UNL     1       2.266   7.148  19.317  0.00  0.00    +0.000 C 
ATOM     10  O   UNL     1       1.776   6.544  20.258  0.00  0.00    +0.000 OA
ATOM     11  N   UNL     1       3.153   6.512  18.443  0.00  0.00    +0.000 N 
ATOM     12  H   UNL     1       2.639   8.914  18.336  0.00  0.00    +0.000 HD
ATOM     13  H   UNL     1       3.967   7.069  18.226  0.00  0.00    +0.000 HD
BRANCH  11  14
ATOM     14  C   UNL     1       3.434   5.127  18.700  0.00  0.00    +0.000 A 
ATOM     15  C   UNL     1       4.604   4.773  19.393  0.00  0.00    +0.000 A 
ATOM     16  C   UNL     1       4.944   3.430  19.590  0.00  0.00    +0.000 A 
ATOM     17  C   UNL     1       4.121   2.427  19.088  0.00  0.00    +0.000 A 
ATOM     18  C   UNL     1       2.952   2.773  18.410  0.00  0.00    +0.000 A 
ATOM     19  F   UNL     1       2.191   1.786  17.917  0.00  0.00    +0.000 F 
ATOM     20  C   UNL     1       2.593   4.114  18.225  0.00  0.00    +0.000 A 
ATOM     21 CL   UNL     1       1.160   4.496  17.336  0.00  0.00    +0.000 Cl
ENDBRANCH  11  14
ENDBRANCH   6   8
BRANCH   1  22
ATOM     22  S   UNL     1      -1.919  11.967  18.911  0.00  0.00    +0.000 S 
ATOM     23  O   UNL     1      -1.316  12.382  17.664  0.00  0.00    +0.000 OA
ATOM     24  O   UNL     1      -2.369  13.033  19.806  0.00  0.00    +0.000 OA
BRANCH  22  28
ATOM     25  N   UNL     1      -3.557  10.187  15.743  0.00  0.00    +0.000 NA
ATOM     26  C   UNL     1      -2.577   9.553  16.632  0.00  0.00    +0.000 C 
ATOM     27  C   UNL     1      -3.065   9.527  18.076  0.00  0.00    +0.000 C 
ATOM     28  C   UNL     1      -3.348  10.919  18.609  0.00  0.00    +0.000 C 
ATOM     29  C   UNL     1      -4.341  11.599  17.647  0.00  0.00    +0.000 C 
ATOM     30  C   UNL     1      -3.871  11.558  16.186  0.00  0.00    +0.000 C 
BRANCH  25  32
ATOM     31  C   UNL     1      -4.120   9.883  13.316  0.00  0.00    +0.000 C 
ATOM     32  C   UNL     1      -3.049  10.219  14.354  0.00  0.00    +0.000 C 
ENDBRANCH  25  32
ENDBRANCH  22  28
ENDBRANCH   1  22
BRANCH   7  33
ATOM     33  O   UNL     1       0.437  10.521  17.783  0.00  0.00    +0.000 OA
ATOM     34  H   UNL     1       0.931  11.348  17.715  0.00  0.00    +0.000 HD
ENDBRANCH   7  33
TORSDOF 6
ENDMDL
MODEL 7
REMARK VINA RESULT:      -8.0      8.088     10.517
REMARK  Name = 
REMARK  7 active torsions:
REMARK  status: ('A' for Active; 'I' for Inactive)
REMARK    1  A    between atoms: C_1  and  C_2
REMARK    2  A    between atoms: C_2  and  N_3
REMARK    3  A    between atoms: C_6  and  S_7
REMARK    4  A    between atoms: S_7  and  C_10
REMARK    5  A    between atoms: C_15  and  N_16
REMARK    6  A    between atoms: N_19  and  C_20
REMARK    7  A    between atoms: C_28  and  O_29
REMARK                            x       y       z     vdW  Elec       q    Type
REMARK                         _______ _______ _______ _____ _____    ______ ____
ROOT
ATOM      1  C   UNL     1      -0.006  11.323  20.882  0.00  0.00    +0.000 A 
ATOM      2  C   UNL     1       0.086  11.718  19.543  0.00  0.00    +0.000 A 
ATOM      3 CL   UNL     1      -0.515  13.179  18.858  0.00  0.00    +0.000 Cl
ATOM      4  C   UNL     1       0.644  10.843  18.606  0.00  0.00    +0.000 A 
ATOM      5  C   UNL     1       1.188   9.622  18.998  0.00  0.00    +0.000 A 
ATOM      6  C   UNL     1       1.145   9.196  20.323  0.00  0.00    +0.000 A 
ATOM      7  C   UNL     1       0.500  10.052  21.249  0.00  0.00    +0.000 A 
ENDROOT
BRANCH   6   8
ATOM      8  N   UNL     1       1.711   7.931  20.701  0.00  0.00    +0.000 N 
ATOM      9  C   UNL     1       2.215   7.013  19.789  0.00  0.00    +0.000 C 
ATOM     10  O   UNL     1       2.154   7.126  18.575  0.00  0.00    +0.000 OA
ATOM     11  N   UNL     1       2.788   5.881  20.375  0.00  0.00    +0.000 N 
ATOM     12  H   UNL     1       1.666   7.648  21.664  0.00  0.00    +0.000 HD
ATOM     13  H   UNL     1       2.245   5.510  21.142  0.00  0.00    +0.000 HD
BRANCH  11  14
ATOM     14  C   UNL     1       3.310   4.884  19.482  0.00  0.00    +0.000 A 
ATOM     15  C   UNL     1       4.604   5.031  18.958  0.00  0.00    +0.000 A 
ATOM     16  C   UNL     1       5.112   4.119  18.026  0.00  0.00    +0.000 A 
ATOM     17  C   UNL     1       4.323   3.053  17.602  0.00  0.00    +0.000 A 
ATOM     18  C   UNL     1       3.041   2.895  18.129  0.00  0.00    +0.000 A 
ATOM     19  F   UNL     1       2.297   1.873  17.685  0.00  0.00    +0.000 F 
ATOM     20  C   UNL     1       2.532   3.792  19.077  0.00  0.00    +0.000 A 
ATOM     21 CL   UNL     1       0.921   3.583  19.665  0.00  0.00    +0.000 Cl
ENDBRANCH  11  14
ENDBRANCH   6   8
BRANCH   1  22
ATOM     22  S   UNL     1      -0.645  12.423  22.157  0.00  0.00    +0.000 S 
ATOM     23  O   UNL     1       0.190  13.602  22.197  0.00  0.00    +0.000 OA
ATOM     24  O   UNL     1      -0.735  11.642  23.391  0.00  0.00    +0.000 OA
BRANCH  22  28
ATOM     25  N   UNL     1      -3.530  14.720  23.670  0.00  0.00    +0.000 NA
ATOM     26  C   UNL     1      -2.551  15.171  22.675  0.00  0.00    +0.000 C 
ATOM     27  C   UNL     1      -2.600  14.317  21.413  0.00  0.00    +0.000 C 
ATOM     28  C   UNL     1      -2.331  12.852  21.704  0.00  0.00    +0.000 C 
ATOM     29  C   UNL     1      -3.329  12.394  22.784  0.00  0.00    +0.000 C 
ATOM     30  C   UNL     1      -3.320  13.303  24.021  0.00  0.00    +0.000 C 
BRANCH  25  32
ATOM     31  C   UNL     1      -4.444  16.708  24.900  0.00  0.00    +0.000 C 
ATOM     32  C   UNL     1      -3.445  15.551  24.891  0.00  0.00    +0.000 C 
ENDBRANCH  25  32
ENDBRANCH  22  28
ENDBRANCH   1  22
BRANCH   7  33
ATOM     33  O   UNL     1       0.159   9.567  22.488  0.00  0.00    +0.000 OA
ATOM     34  H   UNL     1       0.383   8.629  22.539  0.00  0.00    +0.000 HD
ENDBRANCH   7  33
TORSDOF 6
ENDMDL
MODEL 8
REMARK VINA RESULT:      -8.0      4.999      7.454
REMARK  Name = 
REMARK  7 active torsions:
REMARK  status: ('A' for Active; 'I' for Inactive)
REMARK    1  A    between atoms: C_1  and  C_2
REMARK    2  A    between atoms: C_2  and  N_3
REMARK    3  A    between atoms: C_6  and  S_7
REMARK    4  A    between atoms: S_7  and  C_10
REMARK    5  A    between atoms: C_15  and  N_16
REMARK    6  A    between atoms: N_19  and  C_20
REMARK    7  A    between atoms: C_28  and  O_29
REMARK                            x       y       z     vdW  Elec       q    Type
REMARK                         _______ _______ _______ _____ _____    ______ ____
ROOT
ATOM      1  C   UNL     1       3.094   4.553  19.050  0.00  0.00    +0.000 A 
ATOM      2  C   UNL     1       2.039   3.638  19.124  0.00  0.00    +0.000 A 
ATOM      3 CL   UNL     1       1.932   2.125  18.311  0.00  0.00    +0.000 Cl
ATOM      4  C   UNL     1       0.894   3.969  19.855  0.00  0.00    +0.000 A 
ATOM      5  C   UNL     1       0.823   5.155  20.582  0.00  0.00    +0.000 A 
ATOM      6  C   UNL     1       1.858   6.085  20.562  0.00  0.00    +0.000 A 
ATOM      7  C   UNL     1       2.978   5.780  19.750  0.00  0.00    +0.000 A 
ENDROOT
BRANCH   6   8
ATOM      8  N   UNL     1       1.759   7.302  21.319  0.00  0.00    +0.000 N 
ATOM      9  C   UNL     1       1.205   8.473  20.819  0.00  0.00    +0.000 C 
ATOM     10  O   UNL     1       0.828   8.635  19.670  0.00  0.00    +0.000 OA
ATOM     11  N   UNL     1       1.140   9.516  21.748  0.00  0.00    +0.000 N 
ATOM     12  H   UNL     1       2.189   7.346  22.227  0.00  0.00    +0.000 HD
ATOM     13  H   UNL     1       1.978   9.611  22.303  0.00  0.00    +0.000 HD
BRANCH  11  14
ATOM     14  C   UNL     1       0.593  10.761  21.285  0.00  0.00    +0.000 A 
ATOM     15  C   UNL     1       1.217  11.443  20.228  0.00  0.00    +0.000 A 
ATOM     16  C   UNL     1       0.755  12.695  19.806  0.00  0.00    +0.000 A 
ATOM     17  C   UNL     1      -0.333  13.282  20.446  0.00  0.00    +0.000 A 
ATOM     18  C   UNL     1      -0.963  12.604  21.489  0.00  0.00    +0.000 A 
ATOM     19  F   UNL     1      -1.994  13.203  22.102  0.00  0.00    +0.000 F 
ATOM     20  C   UNL     1      -0.521  11.341  21.905  0.00  0.00    +0.000 A 
ATOM     21 CL   UNL     1      -1.304  10.560  23.233  0.00  0.00    +0.000 Cl
ENDBRANCH  11  14
ENDBRANCH   6   8
BRANCH   1  22
ATOM     22  S   UNL     1       4.629   4.169  18.190  0.00  0.00    +0.000 S 
ATOM     23  O   UNL     1       4.310   3.365  17.031  0.00  0.00    +0.000 OA
ATOM     24  O   UNL     1       5.534   3.571  19.172  0.00  0.00    +0.000 OA
BRANCH  22  28
ATOM     25  N   UNL     1       6.790   5.468  15.102  0.00  0.00    +0.000 NA
ATOM     26  C   UNL     1       5.327   5.548  15.179  0.00  0.00    +0.000 C 
ATOM     27  C   UNL     1       4.871   6.337  16.400  0.00  0.00    +0.000 C 
ATOM     28  C   UNL     1       5.375   5.728  17.695  0.00  0.00    +0.000 C 
ATOM     29  C   UNL     1       6.907   5.602  17.593  0.00  0.00    +0.000 C 
ATOM     30  C   UNL     1       7.356   4.865  16.324  0.00  0.00    +0.000 C 
BRANCH  25  32
ATOM     31  C   UNL     1       6.086   3.790  13.375  0.00  0.00    +0.000 C 
ATOM     32  C   UNL     1       7.203   4.678  13.922  0.00  0.00    +0.000 C 
ENDBRANCH  25  32
ENDBRANCH  22  28
ENDBRANCH   1  22
BRANCH   7  33
ATOM     33  O   UNL     1       3.881   6.770  19.450  0.00  0.00    +0.000 OA
ATOM     34  H   UNL     1       4.202   6.650  18.548  0.00  0.00    +0.000 HD
ENDBRANCH   7  33
TORSDOF 6
ENDMDL
MODEL 9
REMARK VINA RESULT:      -8.0      7.579     10.827
REMARK  Name = 
REMARK  7 active torsions:
REMARK  status: ('A' for Active; 'I' for Inactive)
REMARK    1  A    between atoms: C_1  and  C_2
REMARK    2  A    between atoms: C_2  and  N_3
REMARK    3  A    between atoms: C_6  and  S_7
REMARK    4  A    between atoms: S_7  and  C_10
REMARK    5  A    between atoms: C_15  and  N_16
REMARK    6  A    between atoms: N_19  and  C_20
REMARK    7  A    between atoms: C_28  and  O_29
REMARK                            x       y       z     vdW  Elec       q    Type
REMARK                         _______ _______ _______ _____ _____    ______ ____
ROOT
ATOM      1  C   UNL     1      -0.442  11.170  20.919  0.00  0.00    +0.000 A 
ATOM      2  C   UNL     1      -1.055  11.247  22.174  0.00  0.00    +0.000 A 
ATOM      3 CL   UNL     1      -2.202  12.424  22.687  0.00  0.00    +0.000 Cl
ATOM      4  C   UNL     1      -0.677  10.352  23.179  0.00  0.00    +0.000 A 
ATOM      5  C   UNL     1       0.233   9.329  22.925  0.00  0.00    +0.000 A 
ATOM      6  C   UNL     1       0.850   9.193  21.684  0.00  0.00    +0.000 A 
ATOM      7  C   UNL     1       0.525  10.158  20.699  0.00  0.00    +0.000 A 
ENDROOT
BRANCH   6   8
ATOM      8  N   UNL     1       1.788   8.131  21.448  0.00  0.00    +0.000 N 
ATOM      9  C   UNL     1       1.431   6.894  20.928  0.00  0.00    +0.000 C 
ATOM     10  O   UNL     1       0.288   6.533  20.700  0.00  0.00    +0.000 OA
ATOM     11  N   UNL     1       2.511   6.033  20.708  0.00  0.00    +0.000 N 
ATOM     12  H   UNL     1       2.739   8.247  21.753  0.00  0.00    +0.000 HD
ATOM     13  H   UNL     1       3.182   6.033  21.462  0.00  0.00    +0.000 HD
BRANCH  11  14
ATOM     14  C   UNL     1       2.204   4.730  20.188  0.00  0.00    +0.000 A 
ATOM     15  C   UNL     1       1.778   3.716  21.062  0.00  0.00    +0.000 A 
ATOM     16  C   UNL     1       1.546   2.416  20.598  0.00  0.00    +0.000 A 
ATOM     17  C   UNL     1       1.748   2.116  19.254  0.00  0.00    +0.000 A 
ATOM     18  C   UNL     1       2.159   3.122  18.380  0.00  0.00    +0.000 A 
ATOM     19  F   UNL     1       2.368   2.797  17.096  0.00  0.00    +0.000 F 
ATOM     20  C   UNL     1       2.374   4.430  18.831  0.00  0.00    +0.000 A 
ATOM     21 CL   UNL     1       2.930   5.632  17.720  0.00  0.00    +0.000 Cl
ENDBRANCH  11  14
ENDBRANCH   6   8
BRANCH   1  22
ATOM     22  S   UNL     1      -0.927  12.241  19.555  0.00  0.00    +0.000 S 
ATOM     23  O   UNL     1      -2.185  12.865  19.895  0.00  0.00    +0.000 OA
ATOM     24  O   UNL     1      -0.908  11.425  18.341  0.00  0.00    +0.000 OA
BRANCH  22  28
ATOM     25  N   UNL     1      -0.023  15.745  21.227  0.00  0.00    +0.000 NA
ATOM     26  C   UNL     1       0.506  14.453  21.679  0.00  0.00    +0.000 C 
ATOM     27  C   UNL     1       1.249  13.730  20.562  0.00  0.00    +0.000 C 
ATOM     28  C   UNL     1       0.363  13.478  19.356  0.00  0.00    +0.000 C 
ATOM     29  C   UNL     1      -0.228  14.829  18.913  0.00  0.00    +0.000 C 
ATOM     30  C   UNL     1      -0.915  15.579  20.064  0.00  0.00    +0.000 C 
BRANCH  25  32
ATOM     31  C   UNL     1      -0.777  15.598  23.617  0.00  0.00    +0.000 C 
ATOM     32  C   UNL     1      -0.759  16.413  22.324  0.00  0.00    +0.000 C 
ENDBRANCH  25  32
ENDBRANCH  22  28
ENDBRANCH   1  22
BRANCH   7  33
ATOM     33  O   UNL     1       1.309  10.263  19.576  0.00  0.00    +0.000 OA
ATOM     34  H   UNL     1       2.155   9.824  19.733  0.00  0.00    +0.000 HD
ENDBRANCH   7  33
TORSDOF 6
ENDMDL
