MODEL 1
REMARK VINA RESULT:      -9.2      0.000      0.000
REMARK  Name = 
REMARK  3 active torsions:
REMARK  status: ('A' for Active; 'I' for Inactive)
REMARK    1  A    between atoms: C_1  and  C_2
REMARK    2  A    between atoms: C_11  and  C_12
REMARK    3  A    between atoms: C_16  and  C_17
REMARK                            x       y       z     vdW  Elec       q    Type
REMARK                         _______ _______ _______ _____ _____    ______ ____
ROOT
ATOM      1  C   UNL     1      -0.273  12.328  18.474  0.00  0.00    +0.000 C 
ATOM      2  C   UNL     1      -0.509  12.134  19.921  0.00  0.00    +0.000 A 
ATOM      3  N   UNL     1      -1.139  13.022  20.669  0.00  0.00    +0.000 NA
ATOM      4  N   UNL     1      -1.264  12.526  21.933  0.00  0.00    +0.000 NA
ATOM      5  C   UNL     1      -0.708  11.340  21.945  0.00  0.00    +0.000 A 
ATOM      6  N   UNL     1      -0.200  11.026  20.695  0.00  0.00    +0.000 N 
ATOM      7  C   UNL     1       0.453   9.790  20.446  0.00  0.00    +0.000 A 
ATOM      8  C   UNL     1       1.211   9.526  19.313  0.00  0.00    +0.000 A 
ATOM      9  F   UNL     1       1.441  10.439  18.367  0.00  0.00    +0.000 F 
ATOM     10  C   UNL     1       1.834   8.288  19.145  0.00  0.00    +0.000 A 
ATOM     11  C   UNL     1       1.750   7.272  20.111  0.00  0.00    +0.000 A 
ATOM     12  C   UNL     1       0.982   7.542  21.254  0.00  0.00    +0.000 A 
ATOM     13  C   UNL     1       0.341   8.783  21.434  0.00  0.00    +0.000 A 
ATOM     14  C   UNL     1      -0.535   8.984  22.652  0.00  0.00    +0.000 C 
ATOM     15  C   UNL     1      -0.530  10.439  23.107  0.00  0.00    +0.000 C 
ENDROOT
BRANCH  11  16
ATOM     16  C   UNL     1       2.460   5.991  19.926  0.00  0.00    +0.000 A 
ATOM     17  C   UNL     1       2.225   4.861  20.705  0.00  0.00    +0.000 A 
ATOM     18  N   UNL     1       2.850   3.669  20.545  0.00  0.00    +0.000 NA
ATOM     19  C   UNL     1       3.757   3.582  19.541  0.00  0.00    +0.000 A 
ATOM     20  C   UNL     1       4.099   4.628  18.688  0.00  0.00    +0.000 A 
ATOM     21  C   UNL     1       3.437   5.843  18.927  0.00  0.00    +0.000 A 
BRANCH  20  22
ATOM     22  C   UNL     1       5.103   4.514  17.610  0.00  0.00    +0.000 A 
ATOM     23  C   UNL     1       4.711   4.276  16.277  0.00  0.00    +0.000 A 
ATOM     24  C   UNL     1       5.638   4.259  15.232  0.00  0.00    +0.000 A 
ATOM     25  C   UNL     1       6.987   4.455  15.501  0.00  0.00    +0.000 A 
ATOM     26  C   UNL     1       7.408   4.653  16.813  0.00  0.00    +0.000 A 
ATOM     27  C   UNL     1       6.475   4.683  17.856  0.00  0.00    +0.000 A 
ENDBRANCH  20  22
ENDBRANCH  11  16
TORSDOF 2
ENDMDL
MODEL 2
REMARK VINA RESULT:      -9.2      2.590      8.854
REMARK  Name = 
REMARK  3 active torsions:
REMARK  status: ('A' for Active; 'I' for Inactive)
REMARK    1  A    between atoms: C_1  and  C_2
REMARK    2  A    between atoms: C_11  and  C_12
REMARK    3  A    between atoms: C_16  and  C_17
REMARK                            x       y       z     vdW  Elec       q    Type
REMARK                         _______ _______ _______ _____ _____    ______ ____
ROOT
ATOM      1  C   UNL     1       2.639   3.594  20.787  0.00  0.00    +0.000 C 
ATOM      2  C   UNL     1       3.727   3.975  19.861  0.00  0.00    +0.000 A 
ATOM      3  N   UNL     1       4.721   3.162  19.551  0.00  0.00    +0.000 NA
ATOM      4  N   UNL     1       5.518   3.770  18.626  0.00  0.00    +0.000 NA
ATOM      5  C   UNL     1       5.003   4.950  18.381  0.00  0.00    +0.000 A 
ATOM      6  N   UNL     1       3.860   5.151  19.138  0.00  0.00    +0.000 N 
ATOM      7  C   UNL     1       3.113   6.355  19.052  0.00  0.00    +0.000 A 
ATOM      8  C   UNL     1       2.133   6.728  19.962  0.00  0.00    +0.000 A 
ATOM      9  F   UNL     1       1.835   6.003  21.042  0.00  0.00    +0.000 F 
ATOM     10  C   UNL     1       1.450   7.937  19.818  0.00  0.00    +0.000 A 
ATOM     11  C   UNL     1       1.733   8.836  18.777  0.00  0.00    +0.000 A 
ATOM     12  C   UNL     1       2.723   8.455  17.859  0.00  0.00    +0.000 A 
ATOM     13  C   UNL     1       3.416   7.236  17.986  0.00  0.00    +0.000 A 
ATOM     14  C   UNL     1       4.419   6.849  16.921  0.00  0.00    +0.000 C 
ATOM     15  C   UNL     1       5.549   6.007  17.500  0.00  0.00    +0.000 C 
ENDROOT
BRANCH  11  16
ATOM     16  C   UNL     1       1.026  10.128  18.680  0.00  0.00    +0.000 A 
ATOM     17  C   UNL     1       1.650  11.362  18.846  0.00  0.00    +0.000 A 
ATOM     18  N   UNL     1       1.028  12.562  18.745  0.00  0.00    +0.000 NA
ATOM     19  C   UNL     1      -0.294  12.544  18.446  0.00  0.00    +0.000 A 
ATOM     20  C   UNL     1      -1.050  11.389  18.258  0.00  0.00    +0.000 A 
ATOM     21  C   UNL     1      -0.351  10.181  18.407  0.00  0.00    +0.000 A 
BRANCH  20  22
ATOM     22  C   UNL     1      -2.494  11.395  17.948  0.00  0.00    +0.000 A 
ATOM     23  C   UNL     1      -3.438  11.841  18.896  0.00  0.00    +0.000 A 
ATOM     24  C   UNL     1      -4.797  11.943  18.587  0.00  0.00    +0.000 A 
ATOM     25  C   UNL     1      -5.248  11.573  17.325  0.00  0.00    +0.000 A 
ATOM     26  C   UNL     1      -4.344  11.092  16.383  0.00  0.00    +0.000 A 
ATOM     27  C   UNL     1      -2.982  11.004  16.691  0.00  0.00    +0.000 A 
ENDBRANCH  20  22
ENDBRANCH  11  16
TORSDOF 2
ENDMDL
MODEL 3
REMARK VINA RESULT:      -8.9      2.475      8.622
REMARK  Name = 
REMARK  3 active torsions:
REMARK  status: ('A' for Active; 'I' for Inactive)
REMARK    1  A    between atoms: C_1  and  C_2
REMARK    2  A    between atoms: C_11  and  C_12
REMARK    3  A    between atoms: C_16  and  C_17
REMARK                            x       y       z     vdW  Elec       q    Type
REMARK                         _______ _______ _______ _____ _____    ______ ____
ROOT
ATOM      1  C   UNL     1       5.730   5.185  17.287  0.00  0.00    +0.000 C 
ATOM      2  C   UNL     1       4.789   4.565  18.245  0.00  0.00    +0.000 A 
ATOM      3  N   UNL     1       4.934   3.331  18.694  0.00  0.00    +0.000 NA
ATOM      4  N   UNL     1       3.957   3.077  19.611  0.00  0.00    +0.000 NA
ATOM      5  C   UNL     1       3.225   4.159  19.714  0.00  0.00    +0.000 A 
ATOM      6  N   UNL     1       3.695   5.149  18.866  0.00  0.00    +0.000 N 
ATOM      7  C   UNL     1       3.073   6.423  18.792  0.00  0.00    +0.000 A 
ATOM      8  C   UNL     1       3.318   7.351  17.789  0.00  0.00    +0.000 A 
ATOM      9  F   UNL     1       4.133   7.106  16.761  0.00  0.00    +0.000 F 
ATOM     10  C   UNL     1       2.655   8.579  17.777  0.00  0.00    +0.000 A 
ATOM     11  C   UNL     1       1.701   8.923  18.749  0.00  0.00    +0.000 A 
ATOM     12  C   UNL     1       1.458   7.984  19.762  0.00  0.00    +0.000 A 
ATOM     13  C   UNL     1       2.124   6.744  19.793  0.00  0.00    +0.000 A 
ATOM     14  C   UNL     1       1.872   5.806  20.954  0.00  0.00    +0.000 C 
ATOM     15  C   UNL     1       2.005   4.348  20.531  0.00  0.00    +0.000 C 
ENDROOT
BRANCH  11  16
ATOM     16  C   UNL     1       0.983  10.211  18.681  0.00  0.00    +0.000 A 
ATOM     17  C   UNL     1       1.598  11.446  18.866  0.00  0.00    +0.000 A 
ATOM     18  N   UNL     1       0.966  12.643  18.793  0.00  0.00    +0.000 NA
ATOM     19  C   UNL     1      -0.358  12.619  18.504  0.00  0.00    +0.000 A 
ATOM     20  C   UNL     1      -1.106  11.463  18.300  0.00  0.00    +0.000 A 
ATOM     21  C   UNL     1      -0.397  10.257  18.420  0.00  0.00    +0.000 A 
BRANCH  20  22
ATOM     22  C   UNL     1      -2.553  11.462  18.001  0.00  0.00    +0.000 A 
ATOM     23  C   UNL     1      -3.491  11.908  18.955  0.00  0.00    +0.000 A 
ATOM     24  C   UNL     1      -4.852  12.004  18.656  0.00  0.00    +0.000 A 
ATOM     25  C   UNL     1      -5.312  11.629  17.399  0.00  0.00    +0.000 A 
ATOM     26  C   UNL     1      -4.414  11.148  16.451  0.00  0.00    +0.000 A 
ATOM     27  C   UNL     1      -3.049  11.066  16.748  0.00  0.00    +0.000 A 
ENDBRANCH  20  22
ENDBRANCH  11  16
TORSDOF 2
ENDMDL
MODEL 4
REMARK VINA RESULT:      -8.8      1.102      2.264
REMARK  Name = 
REMARK  3 active torsions:
REMARK  status: ('A' for Active; 'I' for Inactive)
REMARK    1  A    between atoms: C_1  and  C_2
REMARK    2  A    between atoms: C_11  and  C_12
REMARK    3  A    between atoms: C_16  and  C_17
REMARK                            x       y       z     vdW  Elec       q    Type
REMARK                         _______ _______ _______ _____ _____    ______ ____
ROOT
ATOM      1  C   UNL     1      -1.185  11.005  23.153  0.00  0.00    +0.000 C 
ATOM      2  C   UNL     1      -1.079  11.505  21.766  0.00  0.00    +0.000 A 
ATOM      3  N   UNL     1      -1.599  12.655  21.377  0.00  0.00    +0.000 NA
ATOM      4  N   UNL     1      -1.273  12.870  20.071  0.00  0.00    +0.000 NA
ATOM      5  C   UNL     1      -0.555  11.848  19.674  0.00  0.00    +0.000 A 
ATOM      6  N   UNL     1      -0.395  10.935  20.702  0.00  0.00    +0.000 N 
ATOM      7  C   UNL     1       0.348   9.737  20.525  0.00  0.00    +0.000 A 
ATOM      8  C   UNL     1       0.322   8.668  21.412  0.00  0.00    +0.000 A 
ATOM      9  F   UNL     1      -0.453   8.648  22.498  0.00  0.00    +0.000 F 
ATOM     10  C   UNL     1       1.070   7.518  21.162  0.00  0.00    +0.000 A 
ATOM     11  C   UNL     1       1.855   7.373  20.005  0.00  0.00    +0.000 A 
ATOM     12  C   UNL     1       1.880   8.455  19.113  0.00  0.00    +0.000 A 
ATOM     13  C   UNL     1       1.136   9.626  19.355  0.00  0.00    +0.000 A 
ATOM     14  C   UNL     1       1.265  10.787  18.393  0.00  0.00    +0.000 C 
ATOM     15  C   UNL     1      -0.027  11.591  18.314  0.00  0.00    +0.000 C 
ENDROOT
BRANCH  11  16
ATOM     16  C   UNL     1       2.598   6.124  19.747  0.00  0.00    +0.000 A 
ATOM     17  C   UNL     1       2.438   4.963  20.499  0.00  0.00    +0.000 A 
ATOM     18  N   UNL     1       3.095   3.799  20.273  0.00  0.00    +0.000 NA
ATOM     19  C   UNL     1       3.955   3.774  19.225  0.00  0.00    +0.000 A 
ATOM     20  C   UNL     1       4.221   4.857  18.391  0.00  0.00    +0.000 A 
ATOM     21  C   UNL     1       3.530   6.040  18.699  0.00  0.00    +0.000 A 
BRANCH  20  22
ATOM     22  C   UNL     1       5.175   4.810  17.263  0.00  0.00    +0.000 A 
ATOM     23  C   UNL     1       4.878   4.086  16.091  0.00  0.00    +0.000 A 
ATOM     24  C   UNL     1       5.725   4.108  14.980  0.00  0.00    +0.000 A 
ATOM     25  C   UNL     1       6.906   4.838  15.027  0.00  0.00    +0.000 A 
ATOM     26  C   UNL     1       7.245   5.531  16.186  0.00  0.00    +0.000 A 
ATOM     27  C   UNL     1       6.388   5.518  17.292  0.00  0.00    +0.000 A 
ENDBRANCH  20  22
ENDBRANCH  11  16
TORSDOF 2
ENDMDL
MODEL 5
REMARK VINA RESULT:      -8.7      2.488      8.604
REMARK  Name = 
REMARK  3 active torsions:
REMARK  status: ('A' for Active; 'I' for Inactive)
REMARK    1  A    between atoms: C_1  and  C_2
REMARK    2  A    between atoms: C_11  and  C_12
REMARK    3  A    between atoms: C_16  and  C_17
REMARK                            x       y       z     vdW  Elec       q    Type
REMARK                         _______ _______ _______ _____ _____    ______ ____
ROOT
ATOM      1  C   UNL     1       5.230   6.209  16.342  0.00  0.00    +0.000 C 
ATOM      2  C   UNL     1       4.633   5.282  17.328  0.00  0.00    +0.000 A 
ATOM      3  N   UNL     1       5.024   4.027  17.458  0.00  0.00    +0.000 NA
ATOM      4  N   UNL     1       4.342   3.456  18.491  0.00  0.00    +0.000 NA
ATOM      5  C   UNL     1       3.540   4.369  18.982  0.00  0.00    +0.000 A 
ATOM      6  N   UNL     1       3.669   5.559  18.285  0.00  0.00    +0.000 N 
ATOM      7  C   UNL     1       2.907   6.707  18.626  0.00  0.00    +0.000 A 
ATOM      8  C   UNL     1       2.787   7.829  17.816  0.00  0.00    +0.000 A 
ATOM      9  F   UNL     1       3.344   7.910  16.606  0.00  0.00    +0.000 F 
ATOM     10  C   UNL     1       2.008   8.915  18.215  0.00  0.00    +0.000 A 
ATOM     11  C   UNL     1       1.293   8.918  19.424  0.00  0.00    +0.000 A 
ATOM     12  C   UNL     1       1.417   7.784  20.240  0.00  0.00    +0.000 A 
ATOM     13  C   UNL     1       2.206   6.683  19.856  0.00  0.00    +0.000 A 
ATOM     14  C   UNL     1       2.360   5.522  20.814  0.00  0.00    +0.000 C 
ATOM     15  C   UNL     1       2.548   4.206  20.069  0.00  0.00    +0.000 C 
ENDROOT
BRANCH  11  16
ATOM     16  C   UNL     1       0.439  10.064  19.795  0.00  0.00    +0.000 A 
ATOM     17  C   UNL     1       0.770  10.982  20.788  0.00  0.00    +0.000 A 
ATOM     18  N   UNL     1       0.013  12.051  21.137  0.00  0.00    +0.000 NA
ATOM     19  C   UNL     1      -1.141  12.234  20.450  0.00  0.00    +0.000 A 
ATOM     20  C   UNL     1      -1.604  11.397  19.438  0.00  0.00    +0.000 A 
ATOM     21  C   UNL     1      -0.787  10.293  19.148  0.00  0.00    +0.000 A 
BRANCH  20  22
ATOM     22  C   UNL     1      -2.874  11.609  18.713  0.00  0.00    +0.000 A 
ATOM     23  C   UNL     1      -3.030  11.174  17.381  0.00  0.00    +0.000 A 
ATOM     24  C   UNL     1      -4.253  11.281  16.713  0.00  0.00    +0.000 A 
ATOM     25  C   UNL     1      -5.345  11.851  17.357  0.00  0.00    +0.000 A 
ATOM     26  C   UNL     1      -5.208  12.326  18.658  0.00  0.00    +0.000 A 
ATOM     27  C   UNL     1      -3.987  12.205  19.329  0.00  0.00    +0.000 A 
ENDBRANCH  20  22
ENDBRANCH  11  16
TORSDOF 2
ENDMDL
MODEL 6
REMARK VINA RESULT:      -8.7      2.019      8.162
REMARK  Name = 
REMARK  3 active torsions:
REMARK  status: ('A' for Active; 'I' for Inactive)
REMARK    1  A    between atoms: C_1  and  C_2
REMARK    2  A    between atoms: C_11  and  C_12
REMARK    3  A    between atoms: C_16  and  C_17
REMARK                            x       y       z     vdW  Elec       q    Type
REMARK                         _______ _______ _______ _____ _____    ______ ____
ROOT
ATOM      1  C   UNL     1       4.792   4.377  16.825  0.00  0.00    +0.000 C 
ATOM      2  C   UNL     1       3.944   3.510  17.672  0.00  0.00    +0.000 A 
ATOM      3  N   UNL     1       4.000   2.191  17.628  0.00  0.00    +0.000 NA
ATOM      4  N   UNL     1       3.158   1.680  18.570  0.00  0.00    +0.000 NA
ATOM      5  C   UNL     1       2.595   2.693  19.182  0.00  0.00    +0.000 A 
ATOM      6  N   UNL     1       3.046   3.893  18.657  0.00  0.00    +0.000 N 
ATOM      7  C   UNL     1       2.587   5.142  19.152  0.00  0.00    +0.000 A 
ATOM      8  C   UNL     1       2.785   6.355  18.505  0.00  0.00    +0.000 A 
ATOM      9  F   UNL     1       3.389   6.452  17.319  0.00  0.00    +0.000 F 
ATOM     10  C   UNL     1       2.290   7.541  19.049  0.00  0.00    +0.000 A 
ATOM     11  C   UNL     1       1.555   7.565  20.245  0.00  0.00    +0.000 A 
ATOM     12  C   UNL     1       1.358   6.338  20.897  0.00  0.00    +0.000 A 
ATOM     13  C   UNL     1       1.857   5.134  20.365  0.00  0.00    +0.000 A 
ATOM     14  C   UNL     1       1.677   3.855  21.153  0.00  0.00    +0.000 C 
ATOM     15  C   UNL     1       1.554   2.646  20.234  0.00  0.00    +0.000 C 
ENDROOT
BRANCH  11  16
ATOM     16  C   UNL     1       1.004   8.831  20.770  0.00  0.00    +0.000 A 
ATOM     17  C   UNL     1       0.252   8.918  21.938  0.00  0.00    +0.000 A 
ATOM     18  N   UNL     1      -0.251  10.067  22.450  0.00  0.00    +0.000 NA
ATOM     19  C   UNL     1       0.020  11.210  21.772  0.00  0.00    +0.000 A 
ATOM     20  C   UNL     1       0.752  11.276  20.590  0.00  0.00    +0.000 A 
ATOM     21  C   UNL     1       1.217  10.046  20.098  0.00  0.00    +0.000 A 
BRANCH  20  22
ATOM     22  C   UNL     1       1.021  12.533  19.860  0.00  0.00    +0.000 A 
ATOM     23  C   UNL     1       0.237  13.683  20.084  0.00  0.00    +0.000 A 
ATOM     24  C   UNL     1       0.536  14.904  19.474  0.00  0.00    +0.000 A 
ATOM     25  C   UNL     1       1.614  14.996  18.603  0.00  0.00    +0.000 A 
ATOM     26  C   UNL     1       2.381  13.867  18.332  0.00  0.00    +0.000 A 
ATOM     27  C   UNL     1       2.088  12.648  18.955  0.00  0.00    +0.000 A 
ENDBRANCH  20  22
ENDBRANCH  11  16
TORSDOF 2
ENDMDL
MODEL 7
REMARK VINA RESULT:      -8.6      2.655      8.522
REMARK  Name = 
REMARK  3 active torsions:
REMARK  status: ('A' for Active; 'I' for Inactive)
REMARK    1  A    between atoms: C_1  and  C_2
REMARK    2  A    between atoms: C_11  and  C_12
REMARK    3  A    between atoms: C_16  and  C_17
REMARK                            x       y       z     vdW  Elec       q    Type
REMARK                         _______ _______ _______ _____ _____    ______ ____
ROOT
ATOM      1  C   UNL     1       2.583   3.676  20.787  0.00  0.00    +0.000 C 
ATOM      2  C   UNL     1       3.666   4.051  19.853  0.00  0.00    +0.000 A 
ATOM      3  N   UNL     1       4.654   3.233  19.537  0.00  0.00    +0.000 NA
ATOM      4  N   UNL     1       5.446   3.836  18.604  0.00  0.00    +0.000 NA
ATOM      5  C   UNL     1       4.933   5.016  18.359  0.00  0.00    +0.000 A 
ATOM      6  N   UNL     1       3.798   5.224  19.125  0.00  0.00    +0.000 N 
ATOM      7  C   UNL     1       3.054   6.431  19.041  0.00  0.00    +0.000 A 
ATOM      8  C   UNL     1       2.082   6.810  19.958  0.00  0.00    +0.000 A 
ATOM      9  F   UNL     1       1.790   6.089  21.042  0.00  0.00    +0.000 F 
ATOM     10  C   UNL     1       1.402   8.020  19.815  0.00  0.00    +0.000 A 
ATOM     11  C   UNL     1       1.680   8.915  18.769  0.00  0.00    +0.000 A 
ATOM     12  C   UNL     1       2.662   8.528  17.845  0.00  0.00    +0.000 A 
ATOM     13  C   UNL     1       3.351   7.307  17.970  0.00  0.00    +0.000 A 
ATOM     14  C   UNL     1       4.345   6.913  16.898  0.00  0.00    +0.000 C 
ATOM     15  C   UNL     1       5.477   6.069  17.471  0.00  0.00    +0.000 C 
ENDROOT
BRANCH  11  16
ATOM     16  C   UNL     1       0.977  10.209  18.673  0.00  0.00    +0.000 A 
ATOM     17  C   UNL     1      -0.410  10.333  18.656  0.00  0.00    +0.000 A 
ATOM     18  N   UNL     1      -1.081  11.508  18.586  0.00  0.00    +0.000 NA
ATOM     19  C   UNL     1      -0.333  12.638  18.544  0.00  0.00    +0.000 A 
ATOM     20  C   UNL     1       1.059  12.670  18.548  0.00  0.00    +0.000 A 
ATOM     21  C   UNL     1       1.690  11.417  18.591  0.00  0.00    +0.000 A 
BRANCH  20  22
ATOM     22  C   UNL     1       1.852  13.915  18.486  0.00  0.00    +0.000 A 
ATOM     23  C   UNL     1       3.224  13.885  18.161  0.00  0.00    +0.000 A 
ATOM     24  C   UNL     1       3.966  15.058  18.005  0.00  0.00    +0.000 A 
ATOM     25  C   UNL     1       3.357  16.293  18.197  0.00  0.00    +0.000 A 
ATOM     26  C   UNL     1       2.013  16.351  18.557  0.00  0.00    +0.000 A 
ATOM     27  C   UNL     1       1.269  15.175  18.698  0.00  0.00    +0.000 A 
ENDBRANCH  20  22
ENDBRANCH  11  16
TORSDOF 2
ENDMDL
MODEL 8
REMARK VINA RESULT:      -8.6      1.906      8.434
REMARK  Name = 
REMARK  3 active torsions:
REMARK  status: ('A' for Active; 'I' for Inactive)
REMARK    1  A    between atoms: C_1  and  C_2
REMARK    2  A    between atoms: C_11  and  C_12
REMARK    3  A    between atoms: C_16  and  C_17
REMARK                            x       y       z     vdW  Elec       q    Type
REMARK                         _______ _______ _______ _____ _____    ______ ____
ROOT
ATOM      1  C   UNL     1       4.714   6.086  16.589  0.00  0.00    +0.000 C 
ATOM      2  C   UNL     1       4.070   5.001  17.361  0.00  0.00    +0.000 A 
ATOM      3  N   UNL     1       4.325   3.722  17.148  0.00  0.00    +0.000 NA
ATOM      4  N   UNL     1       3.638   2.976  18.060  0.00  0.00    +0.000 NA
ATOM      5  C   UNL     1       2.970   3.807  18.821  0.00  0.00    +0.000 A 
ATOM      6  N   UNL     1       3.194   5.117  18.429  0.00  0.00    +0.000 N 
ATOM      7  C   UNL     1       2.582   6.209  19.099  0.00  0.00    +0.000 A 
ATOM      8  C   UNL     1       2.546   7.505  18.601  0.00  0.00    +0.000 A 
ATOM      9  F   UNL     1       3.045   7.835  17.409  0.00  0.00    +0.000 F 
ATOM     10  C   UNL     1       1.914   8.524  19.314  0.00  0.00    +0.000 A 
ATOM     11  C   UNL     1       1.268   8.290  20.539  0.00  0.00    +0.000 A 
ATOM     12  C   UNL     1       1.307   6.980  21.040  0.00  0.00    +0.000 A 
ATOM     13  C   UNL     1       1.948   5.942  20.337  0.00  0.00    +0.000 A 
ATOM     14  C   UNL     1       2.021   4.568  20.966  0.00  0.00    +0.000 C 
ATOM     15  C   UNL     1       2.023   3.471  19.909  0.00  0.00    +0.000 C 
ENDROOT
BRANCH  11  16
ATOM     16  C   UNL     1       0.566   9.381  21.245  0.00  0.00    +0.000 A 
ATOM     17  C   UNL     1       0.064   9.263  22.538  0.00  0.00    +0.000 A 
ATOM     18  N   UNL     1      -0.568  10.252  23.215  0.00  0.00    +0.000 NA
ATOM     19  C   UNL     1      -0.701  11.442  22.579  0.00  0.00    +0.000 A 
ATOM     20  C   UNL     1      -0.255  11.705  21.286  0.00  0.00    +0.000 A 
ATOM     21  C   UNL     1       0.363  10.628  20.631  0.00  0.00    +0.000 A 
BRANCH  20  22
ATOM     22  C   UNL     1      -0.426  13.006  20.607  0.00  0.00    +0.000 A 
ATOM     23  C   UNL     1      -1.349  13.958  21.086  0.00  0.00    +0.000 A 
ATOM     24  C   UNL     1      -1.455  15.228  20.514  0.00  0.00    +0.000 A 
ATOM     25  C   UNL     1      -0.655  15.568  19.430  0.00  0.00    +0.000 A 
ATOM     26  C   UNL     1       0.238  14.634  18.912  0.00  0.00    +0.000 A 
ATOM     27  C   UNL     1       0.352  13.367  19.495  0.00  0.00    +0.000 A 
ENDBRANCH  20  22
ENDBRANCH  11  16
TORSDOF 2
ENDMDL
MODEL 9
REMARK VINA RESULT:      -8.6      1.239      2.548
REMARK  Name = 
REMARK  3 active torsions:
REMARK  status: ('A' for Active; 'I' for Inactive)
REMARK    1  A    between atoms: C_1  and  C_2
REMARK    2  A    between atoms: C_11  and  C_12
REMARK    3  A    between atoms: C_16  and  C_17
REMARK                            x       y       z     vdW  Elec       q    Type
REMARK                         _______ _______ _______ _____ _____    ______ ____
ROOT
ATOM      1  C   UNL     1      -0.718  10.509  23.092  0.00  0.00    +0.000 C 
ATOM      2  C   UNL     1      -0.704  11.069  21.723  0.00  0.00    +0.000 A 
ATOM      3  N   UNL     1      -1.272  12.221  21.414  0.00  0.00    +0.000 NA
ATOM      4  N   UNL     1      -1.027  12.498  20.102  0.00  0.00    +0.000 NA
ATOM      5  C   UNL     1      -0.312  11.511  19.621  0.00  0.00    +0.000 A 
ATOM      6  N   UNL     1      -0.072  10.560  20.599  0.00  0.00    +0.000 N 
ATOM      7  C   UNL     1       0.685   9.389  20.329  0.00  0.00    +0.000 A 
ATOM      8  C   UNL     1       0.735   8.284  21.169  0.00  0.00    +0.000 A 
ATOM      9  F   UNL     1       0.026   8.201  22.296  0.00  0.00    +0.000 F 
ATOM     10  C   UNL     1       1.493   7.163  20.828  0.00  0.00    +0.000 A 
ATOM     11  C   UNL     1       2.211   7.086  19.623  0.00  0.00    +0.000 A 
ATOM     12  C   UNL     1       2.160   8.204  18.778  0.00  0.00    +0.000 A 
ATOM     13  C   UNL     1       1.407   9.346  19.112  0.00  0.00    +0.000 A 
ATOM     14  C   UNL     1       1.453  10.548  18.194  0.00  0.00    +0.000 C 
ATOM     15  C   UNL     1       0.142  11.323  18.224  0.00  0.00    +0.000 C 
ENDROOT
BRANCH  11  16
ATOM     16  C   UNL     1       2.965   5.867  19.269  0.00  0.00    +0.000 A 
ATOM     17  C   UNL     1       2.916   4.689  20.010  0.00  0.00    +0.000 A 
ATOM     18  N   UNL     1       3.584   3.551  19.699  0.00  0.00    +0.000 NA
ATOM     19  C   UNL     1       4.339   3.573  18.573  0.00  0.00    +0.000 A 
ATOM     20  C   UNL     1       4.488   4.678  17.738  0.00  0.00    +0.000 A 
ATOM     21  C   UNL     1       3.794   5.831  18.135  0.00  0.00    +0.000 A 
BRANCH  20  22
ATOM     22  C   UNL     1       5.330   4.682  16.524  0.00  0.00    +0.000 A 
ATOM     23  C   UNL     1       6.614   5.264  16.533  0.00  0.00    +0.000 A 
ATOM     24  C   UNL     1       7.460   5.193  15.424  0.00  0.00    +0.000 A 
ATOM     25  C   UNL     1       7.028   4.559  14.265  0.00  0.00    +0.000 A 
ATOM     26  C   UNL     1       5.750   4.010  14.214  0.00  0.00    +0.000 A 
ATOM     27  C   UNL     1       4.910   4.070  15.331  0.00  0.00    +0.000 A 
ENDBRANCH  20  22
ENDBRANCH  11  16
TORSDOF 2
ENDMDL
