MODEL 1
REMARK VINA RESULT:      -8.3      0.000      0.000
REMARK  Name = 
REMARK  6 active torsions:
REMARK  status: ('A' for Active; 'I' for Inactive)
REMARK    1  A    between atoms: C_1  and  C_2
REMARK    2  A    between atoms: C_4  and  O_5
REMARK    3  A    between atoms: O_5  and  C_6
REMARK    4  A    between atoms: C_6  and  C_7
REMARK    5  A    between atoms: C_10  and  C_11
REMARK    6  A    between atoms: C_11  and  N_12
REMARK                            x       y       z     vdW  Elec       q    Type
REMARK                         _______ _______ _______ _____ _____    ______ ____
ROOT
ATOM      1  C   UNL     1       7.443   7.527  17.836  0.00  0.00    +0.000 A 
ATOM      2  C   UNL     1       6.221   7.416  17.158  0.00  0.00    +0.000 A 
ATOM      3  C   UNL     1       5.418   6.273  17.327  0.00  0.00    +0.000 A 
ATOM      4  C   UNL     1       5.820   5.232  18.157  0.00  0.00    +0.000 A 
ATOM      5  C   UNL     1       7.042   5.365  18.841  0.00  0.00    +0.000 A 
ATOM      6  C   UNL     1       7.847   6.505  18.679  0.00  0.00    +0.000 A 
ENDROOT
BRANCH   1   7
ATOM      7  C   UNL     1       8.313   8.746  17.699  0.00  0.00    +0.000 C 
BRANCH   7   8
ATOM      8  O   UNL     1       8.662   9.185  19.013  0.00  0.00    +0.000 OA
BRANCH   8  12
ATOM      9  C   UNL     1      11.063  12.993  16.974  0.00  0.00    +0.000 C 
ATOM     10  C   UNL     1      10.595  12.256  18.196  0.00  0.00    +0.000 A 
ATOM     11  C   UNL     1       9.854  11.073  18.004  0.00  0.00    +0.000 A 
ATOM     12  C   UNL     1       9.389  10.347  19.098  0.00  0.00    +0.000 A 
ATOM     13  C   UNL     1       9.654  10.781  20.387  0.00  0.00    +0.000 A 
ATOM     14  C   UNL     1      10.390  11.957  20.598  0.00  0.00    +0.000 A 
ATOM     15  C   UNL     1      10.857  12.684  19.501  0.00  0.00    +0.000 A 
ATOM     16 CL   UNL     1      11.768  14.118  19.805  0.00  0.00    +0.000 Cl
ENDBRANCH   8  12
ENDBRANCH   7   8
ENDBRANCH   1   7
BRANCH   4  17
ATOM     17  C   UNL     1       4.954   3.987  18.345  0.00  0.00    +0.000 C 
BRANCH  17  18
ATOM     18  N   UNL     1       3.522   4.243  18.614  0.00  0.00    +0.000 NA
ATOM     19  C   UNL     1       2.674   3.098  18.248  0.00  0.00    +0.000 C 
ATOM     20  C   UNL     1       1.199   3.311  18.593  0.00  0.00    +0.000 C 
ATOM     21  C   UNL     1       1.026   3.710  20.051  0.00  0.00    +0.000 C 
ATOM     22  C   UNL     1       1.843   4.957  20.346  0.00  0.00    +0.000 C 
ATOM     23  C   UNL     1       3.320   4.763  19.982  0.00  0.00    +0.000 C 
ENDBRANCH  17  18
ENDBRANCH   4  17
TORSDOF 5
ENDMDL
MODEL 2
REMARK VINA RESULT:      -8.2      0.339      1.057
REMARK  Name = 
REMARK  6 active torsions:
REMARK  status: ('A' for Active; 'I' for Inactive)
REMARK    1  A    between atoms: C_1  and  C_2
REMARK    2  A    between atoms: C_4  and  O_5
REMARK    3  A    between atoms: O_5  and  C_6
REMARK    4  A    between atoms: C_6  and  C_7
REMARK    5  A    between atoms: C_10  and  C_11
REMARK    6  A    between atoms: C_11  and  N_12
REMARK                            x       y       z     vdW  Elec       q    Type
REMARK                         _______ _______ _______ _____ _____    ______ ____
ROOT
ATOM      1  C   UNL     1       7.466   7.509  17.894  0.00  0.00    +0.000 A 
ATOM      2  C   UNL     1       7.887   6.447  18.707  0.00  0.00    +0.000 A 
ATOM      3  C   UNL     1       7.103   5.283  18.815  0.00  0.00    +0.000 A 
ATOM      4  C   UNL     1       5.898   5.166  18.129  0.00  0.00    +0.000 A 
ATOM      5  C   UNL     1       5.498   6.234  17.306  0.00  0.00    +0.000 A 
ATOM      6  C   UNL     1       6.278   7.397  17.192  0.00  0.00    +0.000 A 
ENDROOT
BRANCH   1   7
ATOM      7  C   UNL     1       8.292   8.755  17.736  0.00  0.00    +0.000 C 
BRANCH   7   8
ATOM      8  O   UNL     1       8.794   9.115  19.024  0.00  0.00    +0.000 OA
BRANCH   8  12
ATOM      9  C   UNL     1      11.106  13.000  17.028  0.00  0.00    +0.000 C 
ATOM     10  C   UNL     1      10.578  12.282  18.237  0.00  0.00    +0.000 A 
ATOM     11  C   UNL     1       9.942  11.042  18.037  0.00  0.00    +0.000 A 
ATOM     12  C   UNL     1       9.427  10.330  19.118  0.00  0.00    +0.000 A 
ATOM     13  C   UNL     1       9.538  10.836  20.404  0.00  0.00    +0.000 A 
ATOM     14  C   UNL     1      10.167  12.071  20.622  0.00  0.00    +0.000 A 
ATOM     15  C   UNL     1      10.684  12.784  19.538  0.00  0.00    +0.000 A 
ATOM     16 CL   UNL     1      11.460  14.292  19.854  0.00  0.00    +0.000 Cl
ENDBRANCH   8  12
ENDBRANCH   7   8
ENDBRANCH   1   7
BRANCH   4  17
ATOM     17  C   UNL     1       5.041   3.905  18.242  0.00  0.00    +0.000 C 
BRANCH  17  18
ATOM     18  N   UNL     1       3.616   4.133  18.572  0.00  0.00    +0.000 NA
ATOM     19  C   UNL     1       2.716   3.332  17.728  0.00  0.00    +0.000 C 
ATOM     20  C   UNL     1       1.243   3.491  18.106  0.00  0.00    +0.000 C 
ATOM     21  C   UNL     1       1.022   3.229  19.589  0.00  0.00    +0.000 C 
ATOM     22  C   UNL     1       1.903   4.154  20.413  0.00  0.00    +0.000 C 
ATOM     23  C   UNL     1       3.380   4.021  20.026  0.00  0.00    +0.000 C 
ENDBRANCH  17  18
ENDBRANCH   4  17
TORSDOF 5
ENDMDL
MODEL 3
REMARK VINA RESULT:      -7.8      0.972      1.299
REMARK  Name = 
REMARK  6 active torsions:
REMARK  status: ('A' for Active; 'I' for Inactive)
REMARK    1  A    between atoms: C_1  and  C_2
REMARK    2  A    between atoms: C_4  and  O_5
REMARK    3  A    between atoms: O_5  and  C_6
REMARK    4  A    between atoms: C_6  and  C_7
REMARK    5  A    between atoms: C_10  and  C_11
REMARK    6  A    between atoms: C_11  and  N_12
REMARK                            x       y       z     vdW  Elec       q    Type
REMARK                         _______ _______ _______ _____ _____    ______ ____
ROOT
ATOM      1  C   UNL     1       7.613   6.945  18.214  0.00  0.00    +0.000 A 
ATOM      2  C   UNL     1       6.784   7.209  17.114  0.00  0.00    +0.000 A 
ATOM      3  C   UNL     1       5.816   6.270  16.716  0.00  0.00    +0.000 A 
ATOM      4  C   UNL     1       5.665   5.065  17.394  0.00  0.00    +0.000 A 
ATOM      5  C   UNL     1       6.494   4.822  18.504  0.00  0.00    +0.000 A 
ATOM      6  C   UNL     1       7.461   5.757  18.909  0.00  0.00    +0.000 A 
ENDROOT
BRANCH   1   7
ATOM      7  C   UNL     1       8.640   7.939  18.683  0.00  0.00    +0.000 C 
BRANCH   7   8
ATOM      8  O   UNL     1       8.272   9.222  18.176  0.00  0.00    +0.000 OA
BRANCH   8  12
ATOM      9  C   UNL     1      11.198  13.074  17.159  0.00  0.00    +0.000 C 
ATOM     10  C   UNL     1      10.513  12.191  18.163  0.00  0.00    +0.000 A 
ATOM     11  C   UNL     1       9.724  11.131  17.674  0.00  0.00    +0.000 A 
ATOM     12  C   UNL     1       9.061  10.280  18.555  0.00  0.00    +0.000 A 
ATOM     13  C   UNL     1       9.173  10.467  19.924  0.00  0.00    +0.000 A 
ATOM     14  C   UNL     1       9.954  11.518  20.429  0.00  0.00    +0.000 A 
ATOM     15  C   UNL     1      10.620  12.370  19.546  0.00  0.00    +0.000 A 
ATOM     16 CL   UNL     1      11.579  13.641  20.211  0.00  0.00    +0.000 Cl
ENDBRANCH   8  12
ENDBRANCH   7   8
ENDBRANCH   1   7
BRANCH   4  17
ATOM     17  C   UNL     1       4.616   4.039  16.966  0.00  0.00    +0.000 C 
BRANCH  17  18
ATOM     18  N   UNL     1       3.621   3.678  18.001  0.00  0.00    +0.000 NA
ATOM     19  C   UNL     1       2.414   4.516  17.926  0.00  0.00    +0.000 C 
ATOM     20  C   UNL     1       1.340   4.107  18.936  0.00  0.00    +0.000 C 
ATOM     21  C   UNL     1       1.016   2.624  18.827  0.00  0.00    +0.000 C 
ATOM     22  C   UNL     1       2.283   1.805  19.013  0.00  0.00    +0.000 C 
ATOM     23  C   UNL     1       3.376   2.222  18.022  0.00  0.00    +0.000 C 
ENDBRANCH  17  18
ENDBRANCH   4  17
TORSDOF 5
ENDMDL
MODEL 4
REMARK VINA RESULT:      -7.7      1.154      1.936
REMARK  Name = 
REMARK  6 active torsions:
REMARK  status: ('A' for Active; 'I' for Inactive)
REMARK    1  A    between atoms: C_1  and  C_2
REMARK    2  A    between atoms: C_4  and  O_5
REMARK    3  A    between atoms: O_5  and  C_6
REMARK    4  A    between atoms: C_6  and  C_7
REMARK    5  A    between atoms: C_10  and  C_11
REMARK    6  A    between atoms: C_11  and  N_12
REMARK                            x       y       z     vdW  Elec       q    Type
REMARK                         _______ _______ _______ _____ _____    ______ ____
ROOT
ATOM      1  C   UNL     1       7.261   7.168  17.711  0.00  0.00    +0.000 A 
ATOM      2  C   UNL     1       7.558   6.062  18.519  0.00  0.00    +0.000 A 
ATOM      3  C   UNL     1       6.622   5.023  18.669  0.00  0.00    +0.000 A 
ATOM      4  C   UNL     1       5.387   5.074  18.031  0.00  0.00    +0.000 A 
ATOM      5  C   UNL     1       5.111   6.183  17.211  0.00  0.00    +0.000 A 
ATOM      6  C   UNL     1       6.042   7.222  17.055  0.00  0.00    +0.000 A 
ENDROOT
BRANCH   1   7
ATOM      7  C   UNL     1       8.249   8.283  17.507  0.00  0.00    +0.000 C 
BRANCH   7   8
ATOM      8  O   UNL     1       8.016   9.265  18.517  0.00  0.00    +0.000 OA
BRANCH   8  12
ATOM      9  C   UNL     1      12.061  11.833  19.730  0.00  0.00    +0.000 C 
ATOM     10  C   UNL     1      10.747  11.742  19.008  0.00  0.00    +0.000 A 
ATOM     11  C   UNL     1      10.020  10.541  19.119  0.00  0.00    +0.000 A 
ATOM     12  C   UNL     1       8.797  10.394  18.468  0.00  0.00    +0.000 A 
ATOM     13  C   UNL     1       8.283  11.431  17.706  0.00  0.00    +0.000 A 
ATOM     14  C   UNL     1       8.994  12.634  17.583  0.00  0.00    +0.000 A 
ATOM     15  C   UNL     1      10.220  12.782  18.236  0.00  0.00    +0.000 A 
ATOM     16 CL   UNL     1      11.054  14.282  18.067  0.00  0.00    +0.000 Cl
ENDBRANCH   8  12
ENDBRANCH   7   8
ENDBRANCH   1   7
BRANCH   4  17
ATOM     17  C   UNL     1       4.364   3.949  18.190  0.00  0.00    +0.000 C 
BRANCH  17  18
ATOM     18  N   UNL     1       3.539   4.008  19.417  0.00  0.00    +0.000 NA
ATOM     19  C   UNL     1       2.190   4.532  19.154  0.00  0.00    +0.000 C 
ATOM     20  C   UNL     1       1.294   4.526  20.394  0.00  0.00    +0.000 C 
ATOM     21  C   UNL     1       1.259   3.151  21.043  0.00  0.00    +0.000 C 
ATOM     22  C   UNL     1       2.671   2.705  21.385  0.00  0.00    +0.000 C 
ATOM     23  C   UNL     1       3.585   2.729  20.155  0.00  0.00    +0.000 C 
ENDBRANCH  17  18
ENDBRANCH   4  17
TORSDOF 5
ENDMDL
MODEL 5
REMARK VINA RESULT:      -7.7      0.819      1.935
REMARK  Name = 
REMARK  6 active torsions:
REMARK  status: ('A' for Active; 'I' for Inactive)
REMARK    1  A    between atoms: C_1  and  C_2
REMARK    2  A    between atoms: C_4  and  O_5
REMARK    3  A    between atoms: O_5  and  C_6
REMARK    4  A    between atoms: C_6  and  C_7
REMARK    5  A    between atoms: C_10  and  C_11
REMARK    6  A    between atoms: C_11  and  N_12
REMARK                            x       y       z     vdW  Elec       q    Type
REMARK                         _______ _______ _______ _____ _____    ______ ____
ROOT
ATOM      1  C   UNL     1       7.332   7.314  17.797  0.00  0.00    +0.000 A 
ATOM      2  C   UNL     1       7.689   6.327  18.725  0.00  0.00    +0.000 A 
ATOM      3  C   UNL     1       6.903   5.168  18.864  0.00  0.00    +0.000 A 
ATOM      4  C   UNL     1       5.758   4.983  18.095  0.00  0.00    +0.000 A 
ATOM      5  C   UNL     1       5.422   5.976  17.158  0.00  0.00    +0.000 A 
ATOM      6  C   UNL     1       6.205   7.134  17.012  0.00  0.00    +0.000 A 
ENDROOT
BRANCH   1   7
ATOM      7  C   UNL     1       8.164   8.552  17.604  0.00  0.00    +0.000 C 
BRANCH   7   8
ATOM      8  O   UNL     1       8.861   8.806  18.825  0.00  0.00    +0.000 OA
BRANCH   8  12
ATOM      9  C   UNL     1       9.465  12.570  21.970  0.00  0.00    +0.000 C 
ATOM     10  C   UNL     1       9.466  12.037  20.566  0.00  0.00    +0.000 A 
ATOM     11  C   UNL     1       9.159  10.675  20.382  0.00  0.00    +0.000 A 
ATOM     12  C   UNL     1       9.149  10.120  19.105  0.00  0.00    +0.000 A 
ATOM     13  C   UNL     1       9.438  10.905  18.000  0.00  0.00    +0.000 A 
ATOM     14  C   UNL     1       9.746  12.264  18.164  0.00  0.00    +0.000 A 
ATOM     15  C   UNL     1       9.756  12.820  19.445  0.00  0.00    +0.000 A 
ATOM     16 CL   UNL     1      10.130  14.498  19.599  0.00  0.00    +0.000 Cl
ENDBRANCH   8  12
ENDBRANCH   7   8
ENDBRANCH   1   7
BRANCH   4  17
ATOM     17  C   UNL     1       4.899   3.727  18.241  0.00  0.00    +0.000 C 
BRANCH  17  18
ATOM     18  N   UNL     1       3.538   3.947  18.780  0.00  0.00    +0.000 NA
ATOM     19  C   UNL     1       2.925   2.701  19.266  0.00  0.00    +0.000 C 
ATOM     20  C   UNL     1       1.550   2.919  19.900  0.00  0.00    +0.000 C 
ATOM     21  C   UNL     1       1.604   3.990  20.979  0.00  0.00    +0.000 C 
ATOM     22  C   UNL     1       2.150   5.283  20.397  0.00  0.00    +0.000 C 
ATOM     23  C   UNL     1       3.517   5.073  19.736  0.00  0.00    +0.000 C 
ENDBRANCH  17  18
ENDBRANCH   4  17
TORSDOF 5
ENDMDL
MODEL 6
REMARK VINA RESULT:      -7.7      1.092      2.076
REMARK  Name = 
REMARK  6 active torsions:
REMARK  status: ('A' for Active; 'I' for Inactive)
REMARK    1  A    between atoms: C_1  and  C_2
REMARK    2  A    between atoms: C_4  and  O_5
REMARK    3  A    between atoms: O_5  and  C_6
REMARK    4  A    between atoms: C_6  and  C_7
REMARK    5  A    between atoms: C_10  and  C_11
REMARK    6  A    between atoms: C_11  and  N_12
REMARK                            x       y       z     vdW  Elec       q    Type
REMARK                         _______ _______ _______ _____ _____    ______ ____
ROOT
ATOM      1  C   UNL     1       7.421   7.096  18.030  0.00  0.00    +0.000 A 
ATOM      2  C   UNL     1       7.544   5.805  18.563  0.00  0.00    +0.000 A 
ATOM      3  C   UNL     1       6.593   4.817  18.251  0.00  0.00    +0.000 A 
ATOM      4  C   UNL     1       5.514   5.098  17.419  0.00  0.00    +0.000 A 
ATOM      5  C   UNL     1       5.414   6.394  16.880  0.00  0.00    +0.000 A 
ATOM      6  C   UNL     1       6.362   7.384  17.186  0.00  0.00    +0.000 A 
ENDROOT
BRANCH   1   7
ATOM      7  C   UNL     1       8.434   8.169  18.322  0.00  0.00    +0.000 C 
BRANCH   7   8
ATOM      8  O   UNL     1       7.925   9.402  17.813  0.00  0.00    +0.000 OA
BRANCH   8  12
ATOM      9  C   UNL     1      11.710  11.724  19.983  0.00  0.00    +0.000 C 
ATOM     10  C   UNL     1      10.482  11.767  19.119  0.00  0.00    +0.000 A 
ATOM     11  C   UNL     1       9.800  10.556  18.889  0.00  0.00    +0.000 A 
ATOM     12  C   UNL     1       8.657  10.530  18.093  0.00  0.00    +0.000 A 
ATOM     13  C   UNL     1       8.178  11.698  17.522  0.00  0.00    +0.000 A 
ATOM     14  C   UNL     1       8.845  12.913  17.739  0.00  0.00    +0.000 A 
ATOM     15  C   UNL     1       9.990  12.939  18.538  0.00  0.00    +0.000 A 
ATOM     16 CL   UNL     1      10.771  14.458  18.788  0.00  0.00    +0.000 Cl
ENDBRANCH   8  12
ENDBRANCH   7   8
ENDBRANCH   1   7
BRANCH   4  17
ATOM     17  C   UNL     1       4.476   4.030  17.075  0.00  0.00    +0.000 C 
BRANCH  17  18
ATOM     18  N   UNL     1       3.637   3.572  18.205  0.00  0.00    +0.000 NA
ATOM     19  C   UNL     1       3.037   4.696  18.941  0.00  0.00    +0.000 C 
ATOM     20  C   UNL     1       2.101   4.243  20.063  0.00  0.00    +0.000 C 
ATOM     21  C   UNL     1       1.051   3.270  19.547  0.00  0.00    +0.000 C 
ATOM     22  C   UNL     1       1.730   2.081  18.887  0.00  0.00    +0.000 C 
ATOM     23  C   UNL     1       2.689   2.524  17.776  0.00  0.00    +0.000 C 
ENDBRANCH  17  18
ENDBRANCH   4  17
TORSDOF 5
ENDMDL
MODEL 7
REMARK VINA RESULT:      -7.6      5.129      6.663
REMARK  Name = 
REMARK  6 active torsions:
REMARK  status: ('A' for Active; 'I' for Inactive)
REMARK    1  A    between atoms: C_1  and  C_2
REMARK    2  A    between atoms: C_4  and  O_5
REMARK    3  A    between atoms: O_5  and  C_6
REMARK    4  A    between atoms: C_6  and  C_7
REMARK    5  A    between atoms: C_10  and  C_11
REMARK    6  A    between atoms: C_11  and  N_12
REMARK                            x       y       z     vdW  Elec       q    Type
REMARK                         _______ _______ _______ _____ _____    ______ ____
ROOT
ATOM      1  C   UNL     1       5.986   6.235  17.720  0.00  0.00    +0.000 A 
ATOM      2  C   UNL     1       4.902   6.950  17.191  0.00  0.00    +0.000 A 
ATOM      3  C   UNL     1       3.655   6.927  17.841  0.00  0.00    +0.000 A 
ATOM      4  C   UNL     1       3.468   6.194  19.008  0.00  0.00    +0.000 A 
ATOM      5  C   UNL     1       4.570   5.495  19.534  0.00  0.00    +0.000 A 
ATOM      6  C   UNL     1       5.819   5.516  18.891  0.00  0.00    +0.000 A 
ENDROOT
BRANCH   1   7
ATOM      7  C   UNL     1       7.340   6.259  17.066  0.00  0.00    +0.000 C 
BRANCH   7   8
ATOM      8  O   UNL     1       7.622   4.941  16.593  0.00  0.00    +0.000 OA
BRANCH   8  12
ATOM      9  C   UNL     1       7.460   4.892  11.653  0.00  0.00    +0.000 C 
ATOM     10  C   UNL     1       6.868   4.500  12.977  0.00  0.00    +0.000 A 
ATOM     11  C   UNL     1       7.539   4.917  14.144  0.00  0.00    +0.000 A 
ATOM     12  C   UNL     1       7.042   4.581  15.401  0.00  0.00    +0.000 A 
ATOM     13  C   UNL     1       5.880   3.834  15.516  0.00  0.00    +0.000 A 
ATOM     14  C   UNL     1       5.199   3.410  14.365  0.00  0.00    +0.000 A 
ATOM     15  C   UNL     1       5.697   3.747  13.104  0.00  0.00    +0.000 A 
ATOM     16 CL   UNL     1       4.821   3.214  11.716  0.00  0.00    +0.000 Cl
ENDBRANCH   8  12
ENDBRANCH   7   8
ENDBRANCH   1   7
BRANCH   4  17
ATOM     17  C   UNL     1       2.115   6.163  19.719  0.00  0.00    +0.000 C 
BRANCH  17  18
ATOM     18  N   UNL     1       1.476   4.832  19.813  0.00  0.00    +0.000 NA
ATOM     19  C   UNL     1       1.591   4.071  18.559  0.00  0.00    +0.000 C 
ATOM     20  C   UNL     1       1.008   2.661  18.660  0.00  0.00    +0.000 C 
ATOM     21  C   UNL     1       1.592   1.906  19.844  0.00  0.00    +0.000 C 
ATOM     22  C   UNL     1       1.354   2.690  21.125  0.00  0.00    +0.000 C 
ATOM     23  C   UNL     1       1.914   4.113  21.027  0.00  0.00    +0.000 C 
ENDBRANCH  17  18
ENDBRANCH   4  17
TORSDOF 5
ENDMDL
MODEL 8
REMARK VINA RESULT:      -7.6      1.033      1.482
REMARK  Name = 
REMARK  6 active torsions:
REMARK  status: ('A' for Active; 'I' for Inactive)
REMARK    1  A    between atoms: C_1  and  C_2
REMARK    2  A    between atoms: C_4  and  O_5
REMARK    3  A    between atoms: O_5  and  C_6
REMARK    4  A    between atoms: C_6  and  C_7
REMARK    5  A    between atoms: C_10  and  C_11
REMARK    6  A    between atoms: C_11  and  N_12
REMARK                            x       y       z     vdW  Elec       q    Type
REMARK                         _______ _______ _______ _____ _____    ______ ____
ROOT
ATOM      1  C   UNL     1       7.268   6.801  17.966  0.00  0.00    +0.000 A 
ATOM      2  C   UNL     1       7.328   5.479  18.429  0.00  0.00    +0.000 A 
ATOM      3  C   UNL     1       6.303   4.570  18.107  0.00  0.00    +0.000 A 
ATOM      4  C   UNL     1       5.214   4.962  17.337  0.00  0.00    +0.000 A 
ATOM      5  C   UNL     1       5.177   6.287  16.868  0.00  0.00    +0.000 A 
ATOM      6  C   UNL     1       6.198   7.199  17.183  0.00  0.00    +0.000 A 
ENDROOT
BRANCH   1   7
ATOM      7  C   UNL     1       8.359   7.792  18.269  0.00  0.00    +0.000 C 
BRANCH   7   8
ATOM      8  O   UNL     1       7.933   9.071  17.797  0.00  0.00    +0.000 OA
BRANCH   8  12
ATOM      9  C   UNL     1       9.240  13.836  17.722  0.00  0.00    +0.000 C 
ATOM     10  C   UNL     1       9.261  12.493  18.394  0.00  0.00    +0.000 A 
ATOM     11  C   UNL     1       8.584  11.433  17.761  0.00  0.00    +0.000 A 
ATOM     12  C   UNL     1       8.563  10.165  18.337  0.00  0.00    +0.000 A 
ATOM     13  C   UNL     1       9.212   9.934  19.540  0.00  0.00    +0.000 A 
ATOM     14  C   UNL     1       9.892  10.978  20.185  0.00  0.00    +0.000 A 
ATOM     15  C   UNL     1       9.913  12.249  19.607  0.00  0.00    +0.000 A 
ATOM     16 CL   UNL     1      10.770  13.501  20.429  0.00  0.00    +0.000 Cl
ENDBRANCH   8  12
ENDBRANCH   7   8
ENDBRANCH   1   7
BRANCH   4  17
ATOM     17  C   UNL     1       4.097   3.980  16.984  0.00  0.00    +0.000 C 
BRANCH  17  18
ATOM     18  N   UNL     1       2.869   4.092  17.803  0.00  0.00    +0.000 NA
ATOM     19  C   UNL     1       2.161   2.808  17.920  0.00  0.00    +0.000 C 
ATOM     20  C   UNL     1       0.933   2.884  18.829  0.00  0.00    +0.000 C 
ATOM     21  C   UNL     1       1.287   3.470  20.187  0.00  0.00    +0.000 C 
ATOM     22  C   UNL     1       1.922   4.839  20.010  0.00  0.00    +0.000 C 
ATOM     23  C   UNL     1       3.140   4.780  19.081  0.00  0.00    +0.000 C 
ENDBRANCH  17  18
ENDBRANCH   4  17
TORSDOF 5
ENDMDL
MODEL 9
REMARK VINA RESULT:      -7.6      6.765      9.086
REMARK  Name = 
REMARK  6 active torsions:
REMARK  status: ('A' for Active; 'I' for Inactive)
REMARK    1  A    between atoms: C_1  and  C_2
REMARK    2  A    between atoms: C_4  and  O_5
REMARK    3  A    between atoms: O_5  and  C_6
REMARK    4  A    between atoms: C_6  and  C_7
REMARK    5  A    between atoms: C_10  and  C_11
REMARK    6  A    between atoms: C_11  and  N_12
REMARK                            x       y       z     vdW  Elec       q    Type
REMARK                         _______ _______ _______ _____ _____    ______ ____
ROOT
ATOM      1  C   UNL     1       1.093   9.241  19.705  0.00  0.00    +0.000 A 
ATOM      2  C   UNL     1       1.547   9.283  18.379  0.00  0.00    +0.000 A 
ATOM      3  C   UNL     1       2.338   8.238  17.868  0.00  0.00    +0.000 A 
ATOM      4  C   UNL     1       2.692   7.153  18.663  0.00  0.00    +0.000 A 
ATOM      5  C   UNL     1       2.216   7.119  19.986  0.00  0.00    +0.000 A 
ATOM      6  C   UNL     1       1.423   8.158  20.501  0.00  0.00    +0.000 A 
ENDROOT
BRANCH   1   7
ATOM      7  C   UNL     1       0.224  10.328  20.275  0.00  0.00    +0.000 C 
BRANCH   7   8
ATOM      8  O   UNL     1      -0.029  11.276  19.236  0.00  0.00    +0.000 OA
BRANCH   8  12
ATOM      9  C   UNL     1      -3.337  10.108  15.756  0.00  0.00    +0.000 C 
ATOM     10  C   UNL     1      -3.004  10.771  17.062  0.00  0.00    +0.000 A 
ATOM     11  C   UNL     1      -1.671  10.699  17.511  0.00  0.00    +0.000 A 
ATOM     12  C   UNL     1      -1.300  11.291  18.717  0.00  0.00    +0.000 A 
ATOM     13  C   UNL     1      -2.241  11.960  19.484  0.00  0.00    +0.000 A 
ATOM     14  C   UNL     1      -3.573  12.041  19.052  0.00  0.00    +0.000 A 
ATOM     15  C   UNL     1      -3.944  11.448  17.844  0.00  0.00    +0.000 A 
ATOM     16 CL   UNL     1      -5.591  11.582  17.345  0.00  0.00    +0.000 Cl
ENDBRANCH   8  12
ENDBRANCH   7   8
ENDBRANCH   1   7
BRANCH   4  17
ATOM     17  C   UNL     1       3.552   6.014  18.116  0.00  0.00    +0.000 C 
BRANCH  17  18
ATOM     18  N   UNL     1       3.204   4.662  18.607  0.00  0.00    +0.000 NA
ATOM     19  C   UNL     1       2.217   3.995  17.744  0.00  0.00    +0.000 C 
ATOM     20  C   UNL     1       1.903   2.565  18.189  0.00  0.00    +0.000 C 
ATOM     21  C   UNL     1       3.175   1.745  18.345  0.00  0.00    +0.000 C 
ATOM     22  C   UNL     1       4.114   2.430  19.324  0.00  0.00    +0.000 C 
ATOM     23  C   UNL     1       4.417   3.872  18.902  0.00  0.00    +0.000 C 
ENDBRANCH  17  18
ENDBRANCH   4  17
TORSDOF 5
ENDMDL
