MODEL 1
REMARK VINA RESULT:      -7.5      0.000      0.000
REMARK  Name = 
REMARK  6 active torsions:
REMARK  status: ('A' for Active; 'I' for Inactive)
REMARK    1  A    between atoms: C_2  and  C_3
REMARK    2  A    between atoms: N_7  and  C_8
REMARK    3  A    between atoms: C_8  and  C_9
REMARK    4  A    between atoms: C_9  and  C_10
REMARK    5  A    between atoms: C_10  and  N_11
REMARK    6  A    between atoms: C_10  and  C_12
REMARK                            x       y       z     vdW  Elec       q    Type
REMARK                         _______ _______ _______ _____ _____    ______ ____
ROOT
ATOM      1  C   UNL     1       5.331   6.289  17.892  0.00  0.00    +0.000 C 
ENDROOT
BRANCH   1   2
ATOM      2  C   UNL     1       6.572   7.056  17.414  0.00  0.00    +0.000 C 
BRANCH   2   7
ATOM      3  C   UNL     1       6.068   3.889  13.406  0.00  0.00    +0.000 A 
ATOM      4  C   UNL     1       5.197   4.067  14.475  0.00  0.00    +0.000 A 
ATOM      5  C   UNL     1       5.589   4.869  15.546  0.00  0.00    +0.000 A 
ATOM      6  C   UNL     1       6.833   5.487  15.514  0.00  0.00    +0.000 A 
ATOM      7  N   UNL     1       7.367   6.199  16.561  0.00  0.00    +0.000 N 
ATOM      8  N   UNL     1       7.674   5.330  14.470  0.00  0.00    +0.000 NA
ATOM      9  C   UNL     1       7.287   4.540  13.448  0.00  0.00    +0.000 A 
ATOM     10  H   UNL     1       8.219   6.635  16.188  0.00  0.00    +0.000 HD
BRANCH   3  12
ATOM     11  N   UNL     1       5.466   2.375  11.413  0.00  0.00    +0.000 NA
ATOM     12  C   UNL     1       5.734   3.054  12.309  0.00  0.00    +0.000 C 
ENDBRANCH   3  12
ENDBRANCH   2   7
ENDBRANCH   1   2
BRANCH   1  13
ATOM     13  C   UNL     1       5.465   5.544  19.227  0.00  0.00    +0.000 C 
BRANCH  13  14
ATOM     14  C   UNL     1       4.848   4.117  19.219  0.00  0.00    +0.000 C 
ATOM     15  O   UNL     1       5.503   3.197  18.707  0.00  0.00    +0.000 OA
ATOM     16  N   UNL     1       3.600   3.893  19.785  0.00  0.00    +0.000 N 
ATOM     17  C   UNL     1       3.191   2.504  20.015  0.00  0.00    +0.000 C 
ATOM     18  C   UNL     1       1.705   2.278  19.754  0.00  0.00    +0.000 C 
ATOM     19  C   UNL     1       0.843   3.299  20.487  0.00  0.00    +0.000 C 
ATOM     20  C   UNL     1       1.303   4.716  20.160  0.00  0.00    +0.000 C 
ATOM     21  C   UNL     1       2.789   4.904  20.459  0.00  0.00    +0.000 C 
ENDBRANCH  13  14
BRANCH  13  22
ATOM     22  N   UNL     1       6.893   5.442  19.624  0.00  0.00    +0.000 NA
ATOM     23  H   UNL     1       6.985   4.585  20.180  0.00  0.00    +0.000 HD
ATOM     24  H   UNL     1       7.067   6.169  20.323  0.00  0.00    +0.000 HD
ENDBRANCH  13  22
ENDBRANCH   1  13
TORSDOF 6
ENDMDL
MODEL 2
REMARK VINA RESULT:      -7.4      4.621      7.130
REMARK  Name = 
REMARK  6 active torsions:
REMARK  status: ('A' for Active; 'I' for Inactive)
REMARK    1  A    between atoms: C_2  and  C_3
REMARK    2  A    between atoms: N_7  and  C_8
REMARK    3  A    between atoms: C_8  and  C_9
REMARK    4  A    between atoms: C_9  and  C_10
REMARK    5  A    between atoms: C_10  and  N_11
REMARK    6  A    between atoms: C_10  and  C_12
REMARK                            x       y       z     vdW  Elec       q    Type
REMARK                         _______ _______ _______ _____ _____    ______ ____
ROOT
ATOM      1  C   UNL     1       7.798   7.076  17.540  0.00  0.00    +0.000 C 
ENDROOT
BRANCH   1   2
ATOM      2  C   UNL     1       7.760   8.591  17.782  0.00  0.00    +0.000 C 
BRANCH   2   7
ATOM      3  C   UNL     1      10.367  12.620  19.603  0.00  0.00    +0.000 A 
ATOM      4  C   UNL     1      10.090  12.303  18.278  0.00  0.00    +0.000 A 
ATOM      5  C   UNL     1       9.495  11.079  17.980  0.00  0.00    +0.000 A 
ATOM      6  C   UNL     1       9.175  10.208  19.015  0.00  0.00    +0.000 A 
ATOM      7  N   UNL     1       8.697   8.933  18.831  0.00  0.00    +0.000 N 
ATOM      8  N   UNL     1       9.426  10.520  20.304  0.00  0.00    +0.000 NA
ATOM      9  C   UNL     1      10.016  11.702  20.575  0.00  0.00    +0.000 A 
ATOM     10  H   UNL     1       8.434   8.602  19.767  0.00  0.00    +0.000 HD
BRANCH   3  12
ATOM     11  N   UNL     1      11.530  14.826  20.243  0.00  0.00    +0.000 NA
ATOM     12  C   UNL     1      11.006  13.836  19.957  0.00  0.00    +0.000 C 
ENDBRANCH   3  12
ENDBRANCH   2   7
ENDBRANCH   1   2
BRANCH   1  13
ATOM     13  C   UNL     1       7.043   6.206  18.555  0.00  0.00    +0.000 C 
BRANCH  13  14
ATOM     14  C   UNL     1       6.316   4.985  17.925  0.00  0.00    +0.000 C 
ATOM     15  O   UNL     1       6.985   4.186  17.253  0.00  0.00    +0.000 OA
ATOM     16  N   UNL     1       4.955   4.802  18.128  0.00  0.00    +0.000 N 
ATOM     17  C   UNL     1       4.376   3.504  17.769  0.00  0.00    +0.000 C 
ATOM     18  C   UNL     1       2.980   3.630  17.168  0.00  0.00    +0.000 C 
ATOM     19  C   UNL     1       2.067   4.486  18.040  0.00  0.00    +0.000 C 
ATOM     20  C   UNL     1       2.721   5.832  18.330  0.00  0.00    +0.000 C 
ATOM     21  C   UNL     1       4.105   5.660  18.951  0.00  0.00    +0.000 C 
ENDBRANCH  13  14
BRANCH  13  22
ATOM     22  N   UNL     1       7.970   5.716  19.608  0.00  0.00    +0.000 NA
ATOM     23  H   UNL     1       7.394   5.240  20.311  0.00  0.00    +0.000 HD
ATOM     24  H   UNL     1       8.304   6.534  20.124  0.00  0.00    +0.000 HD
ENDBRANCH  13  22
ENDBRANCH   1  13
TORSDOF 6
ENDMDL
MODEL 3
REMARK VINA RESULT:      -7.2      3.761      7.163
REMARK  Name = 
REMARK  6 active torsions:
REMARK  status: ('A' for Active; 'I' for Inactive)
REMARK    1  A    between atoms: C_2  and  C_3
REMARK    2  A    between atoms: N_7  and  C_8
REMARK    3  A    between atoms: C_8  and  C_9
REMARK    4  A    between atoms: C_9  and  C_10
REMARK    5  A    between atoms: C_10  and  N_11
REMARK    6  A    between atoms: C_10  and  C_12
REMARK                            x       y       z     vdW  Elec       q    Type
REMARK                         _______ _______ _______ _____ _____    ______ ____
ROOT
ATOM      1  C   UNL     1       3.209   4.096  19.806  0.00  0.00    +0.000 C 
ENDROOT
BRANCH   1   2
ATOM      2  C   UNL     1       2.675   5.301  19.019  0.00  0.00    +0.000 C 
BRANCH   2   7
ATOM      3  C   UNL     1       1.051  10.171  19.032  0.00  0.00    +0.000 A 
ATOM      4  C   UNL     1       1.647   9.466  17.992  0.00  0.00    +0.000 A 
ATOM      5  C   UNL     1       2.157   8.192  18.236  0.00  0.00    +0.000 A 
ATOM      6  C   UNL     1       2.043   7.646  19.509  0.00  0.00    +0.000 A 
ATOM      7  N   UNL     1       2.611   6.454  19.891  0.00  0.00    +0.000 N 
ATOM      8  N   UNL     1       1.449   8.319  20.517  0.00  0.00    +0.000 NA
ATOM      9  C   UNL     1       0.974   9.556  20.269  0.00  0.00    +0.000 A 
ATOM     10  H   UNL     1       2.240   6.263  20.829  0.00  0.00    +0.000 HD
BRANCH   3  12
ATOM     11  N   UNL     1       0.142  12.556  18.700  0.00  0.00    +0.000 NA
ATOM     12  C   UNL     1       0.550  11.484  18.846  0.00  0.00    +0.000 C 
ENDBRANCH   3  12
ENDBRANCH   2   7
ENDBRANCH   1   2
BRANCH   1  13
ATOM     13  C   UNL     1       4.381   3.335  19.173  0.00  0.00    +0.000 C 
BRANCH  13  14
ATOM     14  C   UNL     1       5.584   4.237  18.781  0.00  0.00    +0.000 C 
ATOM     15  O   UNL     1       6.162   4.868  19.679  0.00  0.00    +0.000 OA
ATOM     16  N   UNL     1       5.996   4.316  17.458  0.00  0.00    +0.000 N 
ATOM     17  C   UNL     1       7.295   4.937  17.179  0.00  0.00    +0.000 C 
ATOM     18  C   UNL     1       7.287   5.766  15.899  0.00  0.00    +0.000 C 
ATOM     19  C   UNL     1       6.721   4.979  14.722  0.00  0.00    +0.000 C 
ATOM     20  C   UNL     1       5.353   4.405  15.076  0.00  0.00    +0.000 C 
ATOM     21  C   UNL     1       5.412   3.564  16.349  0.00  0.00    +0.000 C 
ENDBRANCH  13  14
BRANCH  13  22
ATOM     22  N   UNL     1       4.864   2.270  20.090  0.00  0.00    +0.000 NA
ATOM     23  H   UNL     1       4.435   2.451  21.004  0.00  0.00    +0.000 HD
ATOM     24  H   UNL     1       5.853   2.457  20.279  0.00  0.00    +0.000 HD
ENDBRANCH  13  22
ENDBRANCH   1  13
TORSDOF 6
ENDMDL
MODEL 4
REMARK VINA RESULT:      -7.1      3.780      6.383
REMARK  Name = 
REMARK  6 active torsions:
REMARK  status: ('A' for Active; 'I' for Inactive)
REMARK    1  A    between atoms: C_2  and  C_3
REMARK    2  A    between atoms: N_7  and  C_8
REMARK    3  A    between atoms: C_8  and  C_9
REMARK    4  A    between atoms: C_9  and  C_10
REMARK    5  A    between atoms: C_10  and  N_11
REMARK    6  A    between atoms: C_10  and  C_12
REMARK                            x       y       z     vdW  Elec       q    Type
REMARK                         _______ _______ _______ _____ _____    ______ ____
ROOT
ATOM      1  C   UNL     1       5.063   6.090  17.639  0.00  0.00    +0.000 C 
ENDROOT
BRANCH   1   2
ATOM      2  C   UNL     1       3.612   6.587  17.568  0.00  0.00    +0.000 C 
BRANCH   2   7
ATOM      3  C   UNL     1       0.197   9.974  19.362  0.00  0.00    +0.000 A 
ATOM      4  C   UNL     1       0.758   9.909  18.092  0.00  0.00    +0.000 A 
ATOM      5  C   UNL     1       1.786   9.001  17.846  0.00  0.00    +0.000 A 
ATOM      6  C   UNL     1       2.217   8.167  18.870  0.00  0.00    +0.000 A 
ATOM      7  N   UNL     1       3.296   7.321  18.774  0.00  0.00    +0.000 N 
ATOM      8  N   UNL     1       1.664   8.214  20.100  0.00  0.00    +0.000 NA
ATOM      9  C   UNL     1       0.680   9.108  20.327  0.00  0.00    +0.000 A 
ATOM     10  H   UNL     1       3.275   6.753  19.630  0.00  0.00    +0.000 HD
BRANCH   3  12
ATOM     11  N   UNL     1      -1.660  11.664  19.927  0.00  0.00    +0.000 NA
ATOM     12  C   UNL     1      -0.825  10.905  19.676  0.00  0.00    +0.000 C 
ENDBRANCH   3  12
ENDBRANCH   2   7
ENDBRANCH   1   2
BRANCH   1  13
ATOM     13  C   UNL     1       5.294   4.771  18.387  0.00  0.00    +0.000 C 
BRANCH  13  14
ATOM     14  C   UNL     1       4.249   3.667  18.062  0.00  0.00    +0.000 C 
ATOM     15  O   UNL     1       4.408   2.992  17.035  0.00  0.00    +0.000 OA
ATOM     16  N   UNL     1       3.177   3.448  18.917  0.00  0.00    +0.000 N 
ATOM     17  C   UNL     1       2.391   2.224  18.732  0.00  0.00    +0.000 C 
ATOM     18  C   UNL     1       0.901   2.441  18.973  0.00  0.00    +0.000 C 
ATOM     19  C   UNL     1       0.641   3.139  20.303  0.00  0.00    +0.000 C 
ATOM     20  C   UNL     1       1.459   4.422  20.398  0.00  0.00    +0.000 C 
ATOM     21  C   UNL     1       2.946   4.156  20.175  0.00  0.00    +0.000 C 
ENDBRANCH  13  14
BRANCH  13  22
ATOM     22  N   UNL     1       6.652   4.241  18.096  0.00  0.00    +0.000 NA
ATOM     23  H   UNL     1       6.640   3.918  17.122  0.00  0.00    +0.000 HD
ATOM     24  H   UNL     1       6.752   3.362  18.611  0.00  0.00    +0.000 HD
ENDBRANCH  13  22
ENDBRANCH   1  13
TORSDOF 6
ENDMDL
MODEL 5
REMARK VINA RESULT:      -7.0      4.321      6.785
REMARK  Name = 
REMARK  6 active torsions:
REMARK  status: ('A' for Active; 'I' for Inactive)
REMARK    1  A    between atoms: C_2  and  C_3
REMARK    2  A    between atoms: N_7  and  C_8
REMARK    3  A    between atoms: C_8  and  C_9
REMARK    4  A    between atoms: C_9  and  C_10
REMARK    5  A    between atoms: C_10  and  N_11
REMARK    6  A    between atoms: C_10  and  C_12
REMARK                            x       y       z     vdW  Elec       q    Type
REMARK                         _______ _______ _______ _____ _____    ______ ____
ROOT
ATOM      1  C   UNL     1       7.274   6.802  17.318  0.00  0.00    +0.000 C 
ENDROOT
BRANCH   1   2
ATOM      2  C   UNL     1       8.166   7.658  18.227  0.00  0.00    +0.000 C 
BRANCH   2   7
ATOM      3  C   UNL     1      10.085  12.282  19.360  0.00  0.00    +0.000 A 
ATOM      4  C   UNL     1       9.924  11.188  20.203  0.00  0.00    +0.000 A 
ATOM      5  C   UNL     1       9.240  10.066  19.739  0.00  0.00    +0.000 A 
ATOM      6  C   UNL     1       8.749  10.057  18.439  0.00  0.00    +0.000 A 
ATOM      7  N   UNL     1       7.963   9.058  17.919  0.00  0.00    +0.000 N 
ATOM      8  N   UNL     1       8.919  11.109  17.613  0.00  0.00    +0.000 NA
ATOM      9  C   UNL     1       9.569  12.194  18.080  0.00  0.00    +0.000 A 
ATOM     10  H   UNL     1       7.878   9.269  16.918  0.00  0.00    +0.000 HD
BRANCH   3  12
ATOM     11  N   UNL     1      11.277  14.423  20.149  0.00  0.00    +0.000 NA
ATOM     12  C   UNL     1      10.739  13.463  19.794  0.00  0.00    +0.000 C 
ENDBRANCH   3  12
ENDBRANCH   2   7
ENDBRANCH   1   2
BRANCH   1  13
ATOM     13  C   UNL     1       6.785   5.470  17.904  0.00  0.00    +0.000 C 
BRANCH  13  14
ATOM     14  C   UNL     1       5.495   4.919  17.233  0.00  0.00    +0.000 C 
ATOM     15  O   UNL     1       5.515   4.705  16.012  0.00  0.00    +0.000 OA
ATOM     16  N   UNL     1       4.364   4.669  17.997  0.00  0.00    +0.000 N 
ATOM     17  C   UNL     1       3.284   3.886  17.387  0.00  0.00    +0.000 C 
ATOM     18  C   UNL     1       1.899   4.378  17.796  0.00  0.00    +0.000 C 
ATOM     19  C   UNL     1       1.775   4.516  19.309  0.00  0.00    +0.000 C 
ATOM     20  C   UNL     1       2.906   5.379  19.858  0.00  0.00    +0.000 C 
ATOM     21  C   UNL     1       4.273   4.837  19.446  0.00  0.00    +0.000 C 
ENDBRANCH  13  14
BRANCH  13  22
ATOM     22  N   UNL     1       7.849   4.438  17.807  0.00  0.00    +0.000 NA
ATOM     23  H   UNL     1       7.529   3.746  17.121  0.00  0.00    +0.000 HD
ATOM     24  H   UNL     1       7.832   3.900  18.678  0.00  0.00    +0.000 HD
ENDBRANCH  13  22
ENDBRANCH   1  13
TORSDOF 6
ENDMDL
MODEL 6
REMARK VINA RESULT:      -7.0      3.784      6.283
REMARK  Name = 
REMARK  6 active torsions:
REMARK  status: ('A' for Active; 'I' for Inactive)
REMARK    1  A    between atoms: C_2  and  C_3
REMARK    2  A    between atoms: N_7  and  C_8
REMARK    3  A    between atoms: C_8  and  C_9
REMARK    4  A    between atoms: C_9  and  C_10
REMARK    5  A    between atoms: C_10  and  N_11
REMARK    6  A    between atoms: C_10  and  C_12
REMARK                            x       y       z     vdW  Elec       q    Type
REMARK                         _______ _______ _______ _____ _____    ______ ____
ROOT
ATOM      1  C   UNL     1       4.735   5.507  16.724  0.00  0.00    +0.000 C 
ENDROOT
BRANCH   1   2
ATOM      2  C   UNL     1       4.442   6.619  17.739  0.00  0.00    +0.000 C 
BRANCH   2   7
ATOM      3  C   UNL     1       0.760   9.659  19.624  0.00  0.00    +0.000 A 
ATOM      4  C   UNL     1       1.324   8.530  20.207  0.00  0.00    +0.000 A 
ATOM      5  C   UNL     1       2.209   7.750  19.464  0.00  0.00    +0.000 A 
ATOM      6  C   UNL     1       2.522   8.127  18.164  0.00  0.00    +0.000 A 
ATOM      7  N   UNL     1       3.286   7.374  17.305  0.00  0.00    +0.000 N 
ATOM      8  N   UNL     1       1.991   9.232  17.601  0.00  0.00    +0.000 NA
ATOM      9  C   UNL     1       1.125   9.969  18.326  0.00  0.00    +0.000 A 
ATOM     10  H   UNL     1       3.447   7.972  16.486  0.00  0.00    +0.000 HD
BRANCH   3  12
ATOM     11  N   UNL     1      -0.939  11.120  20.892  0.00  0.00    +0.000 NA
ATOM     12  C   UNL     1      -0.174  10.466  20.322  0.00  0.00    +0.000 C 
ENDBRANCH   3  12
ENDBRANCH   2   7
ENDBRANCH   1   2
BRANCH   1  13
ATOM     13  C   UNL     1       4.714   4.070  17.263  0.00  0.00    +0.000 C 
BRANCH  13  14
ATOM     14  C   UNL     1       3.286   3.484  17.445  0.00  0.00    +0.000 C 
ATOM     15  O   UNL     1       2.637   3.194  16.430  0.00  0.00    +0.000 OA
ATOM     16  N   UNL     1       2.771   3.286  18.719  0.00  0.00    +0.000 N 
ATOM     17  C   UNL     1       1.559   2.471  18.849  0.00  0.00    +0.000 C 
ATOM     18  C   UNL     1       0.613   2.993  19.927  0.00  0.00    +0.000 C 
ATOM     19  C   UNL     1       1.339   3.225  21.248  0.00  0.00    +0.000 C 
ATOM     20  C   UNL     1       2.558   4.116  21.034  0.00  0.00    +0.000 C 
ATOM     21  C   UNL     1       3.488   3.544  19.966  0.00  0.00    +0.000 C 
ENDBRANCH  13  14
BRANCH  13  22
ATOM     22  N   UNL     1       5.487   3.169  16.369  0.00  0.00    +0.000 NA
ATOM     23  H   UNL     1       6.181   3.753  15.889  0.00  0.00    +0.000 HD
ATOM     24  H   UNL     1       4.868   2.898  15.601  0.00  0.00    +0.000 HD
ENDBRANCH  13  22
ENDBRANCH   1  13
TORSDOF 6
ENDMDL
MODEL 7
REMARK VINA RESULT:      -7.0      2.636      4.514
REMARK  Name = 
REMARK  6 active torsions:
REMARK  status: ('A' for Active; 'I' for Inactive)
REMARK    1  A    between atoms: C_2  and  C_3
REMARK    2  A    between atoms: N_7  and  C_8
REMARK    3  A    between atoms: C_8  and  C_9
REMARK    4  A    between atoms: C_9  and  C_10
REMARK    5  A    between atoms: C_10  and  N_11
REMARK    6  A    between atoms: C_10  and  C_12
REMARK                            x       y       z     vdW  Elec       q    Type
REMARK                         _______ _______ _______ _____ _____    ______ ____
ROOT
ATOM      1  C   UNL     1       3.676   2.596  17.725  0.00  0.00    +0.000 C 
ENDROOT
BRANCH   1   2
ATOM      2  C   UNL     1       4.404   3.292  16.567  0.00  0.00    +0.000 C 
BRANCH   2   7
ATOM      3  C   UNL     1       7.422   7.261  17.790  0.00  0.00    +0.000 A 
ATOM      4  C   UNL     1       6.421   7.207  16.826  0.00  0.00    +0.000 A 
ATOM      5  C   UNL     1       5.815   5.985  16.541  0.00  0.00    +0.000 A 
ATOM      6  C   UNL     1       6.211   4.850  17.239  0.00  0.00    +0.000 A 
ATOM      7  N   UNL     1       5.767   3.580  16.960  0.00  0.00    +0.000 N 
ATOM      8  N   UNL     1       7.169   4.902  18.188  0.00  0.00    +0.000 NA
ATOM      9  C   UNL     1       7.756   6.088  18.442  0.00  0.00    +0.000 A 
ATOM     10  H   UNL     1       6.129   2.991  17.720  0.00  0.00    +0.000 HD
BRANCH   3  12
ATOM     11  N   UNL     1       8.643   9.459  18.340  0.00  0.00    +0.000 NA
ATOM     12  C   UNL     1       8.096   8.471  18.091  0.00  0.00    +0.000 C 
ENDBRANCH   3  12
ENDBRANCH   2   7
ENDBRANCH   1   2
BRANCH   1  13
ATOM     13  C   UNL     1       4.202   2.894  19.136  0.00  0.00    +0.000 C 
BRANCH  13  14
ATOM     14  C   UNL     1       3.131   3.476  20.101  0.00  0.00    +0.000 C 
ATOM     15  O   UNL     1       2.500   2.689  20.821  0.00  0.00    +0.000 OA
ATOM     16  N   UNL     1       2.905   4.845  20.149  0.00  0.00    +0.000 N 
ATOM     17  C   UNL     1       2.110   5.370  21.263  0.00  0.00    +0.000 C 
ATOM     18  C   UNL     1       1.197   6.518  20.842  0.00  0.00    +0.000 C 
ATOM     19  C   UNL     1       1.960   7.592  20.076  0.00  0.00    +0.000 C 
ATOM     20  C   UNL     1       2.723   6.973  18.911  0.00  0.00    +0.000 C 
ATOM     21  C   UNL     1       3.641   5.846  19.379  0.00  0.00    +0.000 C 
ENDBRANCH  13  14
BRANCH  13  22
ATOM     22  N   UNL     1       4.773   1.665  19.746  0.00  0.00    +0.000 NA
ATOM     23  H   UNL     1       5.189   1.121  18.982  0.00  0.00    +0.000 HD
ATOM     24  H   UNL     1       3.988   1.072  20.028  0.00  0.00    +0.000 HD
ENDBRANCH  13  22
ENDBRANCH   1  13
TORSDOF 6
ENDMDL
MODEL 8
REMARK VINA RESULT:      -7.0      2.114      2.578
REMARK  Name = 
REMARK  6 active torsions:
REMARK  status: ('A' for Active; 'I' for Inactive)
REMARK    1  A    between atoms: C_2  and  C_3
REMARK    2  A    between atoms: N_7  and  C_8
REMARK    3  A    between atoms: C_8  and  C_9
REMARK    4  A    between atoms: C_9  and  C_10
REMARK    5  A    between atoms: C_10  and  N_11
REMARK    6  A    between atoms: C_10  and  C_12
REMARK                            x       y       z     vdW  Elec       q    Type
REMARK                         _______ _______ _______ _____ _____    ______ ____
ROOT
ATOM      1  C   UNL     1       4.035   6.980  17.748  0.00  0.00    +0.000 C 
ENDROOT
BRANCH   1   2
ATOM      2  C   UNL     1       4.880   6.005  18.578  0.00  0.00    +0.000 C 
BRANCH   2   7
ATOM      3  C   UNL     1       6.335   4.123  14.029  0.00  0.00    +0.000 A 
ATOM      4  C   UNL     1       5.235   3.758  14.798  0.00  0.00    +0.000 A 
ATOM      5  C   UNL     1       5.097   4.284  16.082  0.00  0.00    +0.000 A 
ATOM      6  C   UNL     1       6.051   5.175  16.558  0.00  0.00    +0.000 A 
ATOM      7  N   UNL     1       6.078   5.661  17.843  0.00  0.00    +0.000 N 
ATOM      8  N   UNL     1       7.110   5.545  15.809  0.00  0.00    +0.000 NA
ATOM      9  C   UNL     1       7.238   5.016  14.575  0.00  0.00    +0.000 A 
ATOM     10  H   UNL     1       6.807   6.385  17.847  0.00  0.00    +0.000 HD
BRANCH   3  12
ATOM     11  N   UNL     1       6.708   3.154  11.674  0.00  0.00    +0.000 NA
ATOM     12  C   UNL     1       6.542   3.588  12.733  0.00  0.00    +0.000 C 
ENDBRANCH   3  12
ENDBRANCH   2   7
ENDBRANCH   1   2
BRANCH   1  13
ATOM     13  C   UNL     1       2.545   7.064  18.106  0.00  0.00    +0.000 C 
BRANCH  13  14
ATOM     14  C   UNL     1       2.141   6.209  19.340  0.00  0.00    +0.000 C 
ATOM     15  O   UNL     1       2.161   6.744  20.457  0.00  0.00    +0.000 OA
ATOM     16  N   UNL     1       1.760   4.884  19.176  0.00  0.00    +0.000 N 
ATOM     17  C   UNL     1       1.116   4.211  20.307  0.00  0.00    +0.000 C 
ATOM     18  C   UNL     1       1.533   2.749  20.435  0.00  0.00    +0.000 C 
ATOM     19  C   UNL     1       1.383   2.003  19.114  0.00  0.00    +0.000 C 
ATOM     20  C   UNL     1       2.117   2.742  18.001  0.00  0.00    +0.000 C 
ATOM     21  C   UNL     1       1.652   4.193  17.892  0.00  0.00    +0.000 C 
ENDBRANCH  13  14
BRANCH  13  22
ATOM     22  N   UNL     1       2.151   8.475  18.357  0.00  0.00    +0.000 NA
ATOM     23  H   UNL     1       1.129   8.485  18.448  0.00  0.00    +0.000 HD
ATOM     24  H   UNL     1       2.292   8.990  17.483  0.00  0.00    +0.000 HD
ENDBRANCH  13  22
ENDBRANCH   1  13
TORSDOF 6
ENDMDL
MODEL 9
REMARK VINA RESULT:      -6.8      2.027      7.068
REMARK  Name = 
REMARK  6 active torsions:
REMARK  status: ('A' for Active; 'I' for Inactive)
REMARK    1  A    between atoms: C_2  and  C_3
REMARK    2  A    between atoms: N_7  and  C_8
REMARK    3  A    between atoms: C_8  and  C_9
REMARK    4  A    between atoms: C_9  and  C_10
REMARK    5  A    between atoms: C_10  and  N_11
REMARK    6  A    between atoms: C_10  and  C_12
REMARK                            x       y       z     vdW  Elec       q    Type
REMARK                         _______ _______ _______ _____ _____    ______ ____
ROOT
ATOM      1  C   UNL     1       5.459   6.152  17.795  0.00  0.00    +0.000 C 
ENDROOT
BRANCH   1   2
ATOM      2  C   UNL     1       4.219   6.713  17.087  0.00  0.00    +0.000 C 
BRANCH   2   7
ATOM      3  C   UNL     1       1.969   3.830  20.688  0.00  0.00    +0.000 A 
ATOM      4  C   UNL     1       2.531   3.418  19.485  0.00  0.00    +0.000 A 
ATOM      5  C   UNL     1       2.959   4.378  18.570  0.00  0.00    +0.000 A 
ATOM      6  C   UNL     1       2.832   5.725  18.887  0.00  0.00    +0.000 A 
ATOM      7  N   UNL     1       3.111   6.752  18.017  0.00  0.00    +0.000 N 
ATOM      8  N   UNL     1       2.303   6.128  20.061  0.00  0.00    +0.000 NA
ATOM      9  C   UNL     1       1.879   5.189  20.929  0.00  0.00    +0.000 A 
ATOM     10  H   UNL     1       3.050   7.610  18.577  0.00  0.00    +0.000 HD
BRANCH   3  12
ATOM     11  N   UNL     1       1.082   2.135  22.411  0.00  0.00    +0.000 NA
ATOM     12  C   UNL     1       1.482   2.895  21.638  0.00  0.00    +0.000 C 
ENDBRANCH   3  12
ENDBRANCH   2   7
ENDBRANCH   1   2
BRANCH   1  13
ATOM     13  C   UNL     1       6.191   5.008  17.081  0.00  0.00    +0.000 C 
BRANCH  13  14
ATOM     14  C   UNL     1       7.069   5.467  15.883  0.00  0.00    +0.000 C 
ATOM     15  O   UNL     1       7.826   6.435  16.048  0.00  0.00    +0.000 OA
ATOM     16  N   UNL     1       7.003   4.794  14.671  0.00  0.00    +0.000 N 
ATOM     17  C   UNL     1       8.043   5.070  13.676  0.00  0.00    +0.000 C 
ATOM     18  C   UNL     1       7.503   5.084  12.249  0.00  0.00    +0.000 C 
ATOM     19  C   UNL     1       6.683   3.834  11.946  0.00  0.00    +0.000 C 
ATOM     20  C   UNL     1       5.597   3.644  12.999  0.00  0.00    +0.000 C 
ATOM     21  C   UNL     1       6.184   3.612  14.408  0.00  0.00    +0.000 C 
ENDBRANCH  13  14
BRANCH  13  22
ATOM     22  N   UNL     1       7.047   4.261  18.039  0.00  0.00    +0.000 NA
ATOM     23  H   UNL     1       6.458   4.033  18.847  0.00  0.00    +0.000 HD
ATOM     24  H   UNL     1       7.709   4.931  18.441  0.00  0.00    +0.000 HD
ENDBRANCH  13  22
ENDBRANCH   1  13
TORSDOF 6
ENDMDL
