MODEL 1
REMARK VINA RESULT:      -7.2      0.000      0.000
REMARK  Name = 
REMARK  8 active torsions:
REMARK  status: ('A' for Active; 'I' for Inactive)
REMARK    1  A    between atoms: C_1  and  O_2
REMARK    2  A    between atoms: O_2  and  C_3
REMARK    3  A    between atoms: C_5  and  O_6
REMARK    4  A    between atoms: O_6  and  C_7
REMARK    5  A    between atoms: C_20  and  O_21
REMARK    6  A    between atoms: O_21  and  C_22
REMARK    7  A    between atoms: C_23  and  O_24
REMARK    8  A    between atoms: O_24  and  C_25
REMARK                            x       y       z     vdW  Elec       q    Type
REMARK                         _______ _______ _______ _____ _____    ______ ____
ROOT
ATOM      1  C   UNL     1       1.851   3.661  19.471  0.00  0.00    +0.000 A 
ATOM      2  N   UNL     1       2.668   3.063  18.627  0.00  0.00    +0.000 NA
ATOM      3  C   UNL     1       3.395   3.912  17.911  0.00  0.00    +0.000 A 
ATOM      4  N   UNL     1       3.336   5.240  17.979  0.00  0.00    +0.000 NA
ATOM      5  C   UNL     1       2.493   5.737  18.879  0.00  0.00    +0.000 A 
ATOM      6  N   UNL     1       2.314   7.093  18.974  0.00  0.00    +0.000 N 
ATOM      7  C   UNL     1       3.005   8.029  18.085  0.00  0.00    +0.000 C 
ATOM      8  C   UNL     1       2.062   9.217  17.761  0.00  0.00    +0.000 C 
ATOM      9  N   UNL     1       1.532   9.798  19.002  0.00  0.00    +0.000 N 
ATOM     10  C   UNL     1       1.490  11.152  19.201  0.00  0.00    +0.000 A 
ATOM     11  N   UNL     1       1.997  11.946  18.248  0.00  0.00    +0.000 NA
ATOM     12  C   UNL     1       1.996  13.264  18.460  0.00  0.00    +0.000 A 
ATOM     13  N   UNL     1       2.565  14.026  17.429  0.00  0.00    +0.000 N 
ATOM     14  C   UNL     1       1.509  13.855  19.622  0.00  0.00    +0.000 A 
ATOM     15  C   UNL     1       1.515  15.249  19.880  0.00  0.00    +0.000 A 
ATOM     16  C   UNL     1       1.020  15.776  21.075  0.00  0.00    +0.000 A 
ATOM     17  C   UNL     1       0.531  14.882  22.037  0.00  0.00    +0.000 A 
ATOM     18  C   UNL     1       0.528  13.499  21.756  0.00  0.00    +0.000 A 
ATOM     19  C   UNL     1       1.006  12.964  20.562  0.00  0.00    +0.000 A 
ATOM     20  N   UNL     1       0.987  11.638  20.348  0.00  0.00    +0.000 NA
ATOM     21  C   UNL     1       0.867   8.864  19.912  0.00  0.00    +0.000 C 
ATOM     22  C   UNL     1       1.804   7.675  20.224  0.00  0.00    +0.000 C 
ATOM     23  N   UNL     1       1.741   4.967  19.657  0.00  0.00    +0.000 NA
ATOM     24  H   UNL     1       2.810  13.371  16.690  0.00  0.00    +0.000 HD
ATOM     25  H   UNL     1       1.923  14.736  17.097  0.00  0.00    +0.000 HD
ENDROOT
BRANCH   1  27
ATOM     26  C   UNL     1       1.473   2.677  21.560  0.00  0.00    +0.000 C 
ATOM     27  O   UNL     1       0.988   2.911  20.247  0.00  0.00    +0.000 OA
ENDBRANCH   1  27
BRANCH   3  28
ATOM     28  O   UNL     1       4.293   3.420  16.987  0.00  0.00    +0.000 OA
ATOM     29  C   UNL     1       5.337   4.339  16.677  0.00  0.00    +0.000 C 
ENDBRANCH   3  28
BRANCH  16  30
ATOM     30  O   UNL     1       0.994  17.116  21.342  0.00  0.00    +0.000 OA
ATOM     31  C   UNL     1       0.806  18.025  20.266  0.00  0.00    +0.000 C 
ENDBRANCH  16  30
BRANCH  17  32
ATOM     32  O   UNL     1       0.028  15.166  23.282  0.00  0.00    +0.000 OA
ATOM     33  C   UNL     1      -1.144  14.491  23.721  0.00  0.00    +0.000 C 
ENDBRANCH  17  32
TORSDOF 4
ENDMDL
MODEL 2
REMARK VINA RESULT:      -7.2      1.913      2.107
REMARK  Name = 
REMARK  8 active torsions:
REMARK  status: ('A' for Active; 'I' for Inactive)
REMARK    1  A    between atoms: C_1  and  O_2
REMARK    2  A    between atoms: O_2  and  C_3
REMARK    3  A    between atoms: C_5  and  O_6
REMARK    4  A    between atoms: O_6  and  C_7
REMARK    5  A    between atoms: C_20  and  O_21
REMARK    6  A    between atoms: O_21  and  C_22
REMARK    7  A    between atoms: C_23  and  O_24
REMARK    8  A    between atoms: O_24  and  C_25
REMARK                            x       y       z     vdW  Elec       q    Type
REMARK                         _______ _______ _______ _____ _____    ______ ____
ROOT
ATOM      1  C   UNL     1       2.824   4.586  19.729  0.00  0.00    +0.000 A 
ATOM      2  N   UNL     1       3.535   4.299  18.656  0.00  0.00    +0.000 NA
ATOM      3  C   UNL     1       3.716   5.342  17.854  0.00  0.00    +0.000 A 
ATOM      4  N   UNL     1       3.239   6.569  18.049  0.00  0.00    +0.000 NA
ATOM      5  C   UNL     1       2.553   6.752  19.173  0.00  0.00    +0.000 A 
ATOM      6  N   UNL     1       1.965   7.964  19.427  0.00  0.00    +0.000 N 
ATOM      7  C   UNL     1       2.039   9.075  18.474  0.00  0.00    +0.000 C 
ATOM      8  C   UNL     1       0.703   9.863  18.505  0.00  0.00    +0.000 C 
ATOM      9  N   UNL     1       0.364  10.234  19.885  0.00  0.00    +0.000 N 
ATOM     10  C   UNL     1      -0.072  11.494  20.204  0.00  0.00    +0.000 A 
ATOM     11  N   UNL     1      -0.134  12.406  19.225  0.00  0.00    +0.000 NA
ATOM     12  C   UNL     1      -0.518  13.645  19.543  0.00  0.00    +0.000 A 
ATOM     13  N   UNL     1      -0.534  14.548  18.470  0.00  0.00    +0.000 N 
ATOM     14  C   UNL     1      -0.841  14.041  20.837  0.00  0.00    +0.000 A 
ATOM     15  C   UNL     1      -1.232  15.353  21.204  0.00  0.00    +0.000 A 
ATOM     16  C   UNL     1      -1.534  15.687  22.526  0.00  0.00    +0.000 A 
ATOM     17  C   UNL     1      -1.419  14.686  23.500  0.00  0.00    +0.000 A 
ATOM     18  C   UNL     1      -1.037  13.384  23.112  0.00  0.00    +0.000 A 
ATOM     19  C   UNL     1      -0.747  13.038  21.794  0.00  0.00    +0.000 A 
ATOM     20  N   UNL     1      -0.380  11.785  21.479  0.00  0.00    +0.000 NA
ATOM     21  C   UNL     1       0.319   9.136  20.851  0.00  0.00    +0.000 C 
ATOM     22  C   UNL     1       1.646   8.344  20.810  0.00  0.00    +0.000 C 
ATOM     23  N   UNL     1       2.340   5.776  20.048  0.00  0.00    +0.000 NA
ATOM     24  H   UNL     1      -0.293  14.013  17.640  0.00  0.00    +0.000 HD
ATOM     25  H   UNL     1      -1.440  14.992  18.375  0.00  0.00    +0.000 HD
ENDROOT
BRANCH   1  27
ATOM     26  C   UNL     1       1.108   3.347  20.727  0.00  0.00    +0.000 C 
ATOM     27  O   UNL     1       2.503   3.590  20.632  0.00  0.00    +0.000 OA
ENDBRANCH   1  27
BRANCH   3  28
ATOM     28  O   UNL     1       4.444   5.182  16.693  0.00  0.00    +0.000 OA
ATOM     29  C   UNL     1       5.082   6.381  16.263  0.00  0.00    +0.000 C 
ENDBRANCH   3  28
BRANCH  16  30
ATOM     30  O   UNL     1      -1.932  16.938  22.905  0.00  0.00    +0.000 OA
ATOM     31  C   UNL     1      -0.940  17.911  23.202  0.00  0.00    +0.000 C 
ENDBRANCH  16  30
BRANCH  17  32
ATOM     32  O   UNL     1      -1.633  14.788  24.852  0.00  0.00    +0.000 OA
ATOM     33  C   UNL     1      -2.969  14.802  25.339  0.00  0.00    +0.000 C 
ENDBRANCH  17  32
TORSDOF 4
ENDMDL
MODEL 3
REMARK VINA RESULT:      -7.0      2.304      2.541
REMARK  Name = 
REMARK  8 active torsions:
REMARK  status: ('A' for Active; 'I' for Inactive)
REMARK    1  A    between atoms: C_1  and  O_2
REMARK    2  A    between atoms: O_2  and  C_3
REMARK    3  A    between atoms: C_5  and  O_6
REMARK    4  A    between atoms: O_6  and  C_7
REMARK    5  A    between atoms: C_20  and  O_21
REMARK    6  A    between atoms: O_21  and  C_22
REMARK    7  A    between atoms: C_23  and  O_24
REMARK    8  A    between atoms: O_24  and  C_25
REMARK                            x       y       z     vdW  Elec       q    Type
REMARK                         _______ _______ _______ _____ _____    ______ ____
ROOT
ATOM      1  C   UNL     1       3.679   4.219  19.249  0.00  0.00    +0.000 A 
ATOM      2  N   UNL     1       4.565   4.094  18.280  0.00  0.00    +0.000 NA
ATOM      3  C   UNL     1       4.722   5.204  17.569  0.00  0.00    +0.000 A 
ATOM      4  N   UNL     1       4.069   6.349  17.752  0.00  0.00    +0.000 NA
ATOM      5  C   UNL     1       3.214   6.370  18.770  0.00  0.00    +0.000 A 
ATOM      6  N   UNL     1       2.445   7.483  18.995  0.00  0.00    +0.000 N 
ATOM      7  C   UNL     1       2.509   8.657  18.122  0.00  0.00    +0.000 C 
ATOM      8  C   UNL     1       1.092   9.276  17.994  0.00  0.00    +0.000 C 
ATOM      9  N   UNL     1       0.518   9.509  19.325  0.00  0.00    +0.000 N 
ATOM     10  C   UNL     1      -0.117  10.682  19.639  0.00  0.00    +0.000 A 
ATOM     11  N   UNL     1      -0.157  11.645  18.710  0.00  0.00    +0.000 NA
ATOM     12  C   UNL     1      -0.737  12.805  19.029  0.00  0.00    +0.000 A 
ATOM     13  N   UNL     1      -0.718  13.772  18.013  0.00  0.00    +0.000 N 
ATOM     14  C   UNL     1      -1.289  13.069  20.280  0.00  0.00    +0.000 A 
ATOM     15  C   UNL     1      -1.892  14.297  20.650  0.00  0.00    +0.000 A 
ATOM     16  C   UNL     1      -2.417  14.500  21.928  0.00  0.00    +0.000 A 
ATOM     17  C   UNL     1      -2.314  13.455  22.857  0.00  0.00    +0.000 A 
ATOM     18  C   UNL     1      -1.716  12.239  22.464  0.00  0.00    +0.000 A 
ATOM     19  C   UNL     1      -1.202  12.021  21.188  0.00  0.00    +0.000 A 
ATOM     20  N   UNL     1      -0.636  10.845  20.867  0.00  0.00    +0.000 NA
ATOM     21  C   UNL     1       0.478   8.348  20.217  0.00  0.00    +0.000 C 
ATOM     22  C   UNL     1       1.888   7.726  20.333  0.00  0.00    +0.000 C 
ATOM     23  N   UNL     1       3.006   5.318  19.553  0.00  0.00    +0.000 NA
ATOM     24  H   UNL     1      -0.296  13.327  17.202  0.00  0.00    +0.000 HD
ATOM     25  H   UNL     1      -1.651  14.109  17.808  0.00  0.00    +0.000 HD
ENDROOT
BRANCH   1  27
ATOM     26  C   UNL     1       2.031   2.679  19.871  0.00  0.00    +0.000 C 
ATOM     27  O   UNL     1       3.365   3.132  20.042  0.00  0.00    +0.000 OA
ENDBRANCH   1  27
BRANCH   3  28
ATOM     28  O   UNL     1       5.621   5.212  16.521  0.00  0.00    +0.000 OA
ATOM     29  C   UNL     1       6.879   4.636  16.859  0.00  0.00    +0.000 C 
ENDBRANCH   3  28
BRANCH  16  30
ATOM     30  O   UNL     1      -3.022  15.666  22.307  0.00  0.00    +0.000 OA
ATOM     31  C   UNL     1      -4.207  16.071  21.636  0.00  0.00    +0.000 C 
ENDBRANCH  16  30
BRANCH  17  32
ATOM     32  O   UNL     1      -2.728  13.438  24.166  0.00  0.00    +0.000 OA
ATOM     33  C   UNL     1      -3.996  12.877  24.479  0.00  0.00    +0.000 C 
ENDBRANCH  17  32
TORSDOF 4
ENDMDL
MODEL 4
REMARK VINA RESULT:      -6.6      2.663     10.019
REMARK  Name = 
REMARK  8 active torsions:
REMARK  status: ('A' for Active; 'I' for Inactive)
REMARK    1  A    between atoms: C_1  and  O_2
REMARK    2  A    between atoms: O_2  and  C_3
REMARK    3  A    between atoms: C_5  and  O_6
REMARK    4  A    between atoms: O_6  and  C_7
REMARK    5  A    between atoms: C_20  and  O_21
REMARK    6  A    between atoms: O_21  and  C_22
REMARK    7  A    between atoms: C_23  and  O_24
REMARK    8  A    between atoms: O_24  and  C_25
REMARK                            x       y       z     vdW  Elec       q    Type
REMARK                         _______ _______ _______ _____ _____    ______ ____
ROOT
ATOM      1  C   UNL     1      -2.569  13.920  23.353  0.00  0.00    +0.000 A 
ATOM      2  N   UNL     1      -3.009  14.920  22.613  0.00  0.00    +0.000 NA
ATOM      3  C   UNL     1      -2.721  14.783  21.324  0.00  0.00    +0.000 A 
ATOM      4  N   UNL     1      -2.046  13.774  20.778  0.00  0.00    +0.000 NA
ATOM      5  C   UNL     1      -1.669  12.811  21.612  0.00  0.00    +0.000 A 
ATOM      6  N   UNL     1      -0.910  11.766  21.152  0.00  0.00    +0.000 N 
ATOM      7  C   UNL     1      -0.465  11.686  19.759  0.00  0.00    +0.000 C 
ATOM      8  C   UNL     1       0.956  11.065  19.711  0.00  0.00    +0.000 C 
ATOM      9  N   UNL     1       0.983   9.800  20.457  0.00  0.00    +0.000 N 
ATOM     10  C   UNL     1       1.593   8.682  19.953  0.00  0.00    +0.000 A 
ATOM     11  N   UNL     1       2.126   8.753  18.726  0.00  0.00    +0.000 NA
ATOM     12  C   UNL     1       2.683   7.651  18.216  0.00  0.00    +0.000 A 
ATOM     13  N   UNL     1       3.197   7.798  16.920  0.00  0.00    +0.000 N 
ATOM     14  C   UNL     1       2.725   6.432  18.886  0.00  0.00    +0.000 A 
ATOM     15  C   UNL     1       3.291   5.244  18.360  0.00  0.00    +0.000 A 
ATOM     16  C   UNL     1       3.291   4.048  19.081  0.00  0.00    +0.000 A 
ATOM     17  C   UNL     1       2.690   4.044  20.347  0.00  0.00    +0.000 A 
ATOM     18  C   UNL     1       2.139   5.239  20.855  0.00  0.00    +0.000 A 
ATOM     19  C   UNL     1       2.146   6.440  20.149  0.00  0.00    +0.000 A 
ATOM     20  N   UNL     1       1.601   7.550  20.676  0.00  0.00    +0.000 NA
ATOM     21  C   UNL     1       0.510   9.863  21.841  0.00  0.00    +0.000 C 
ATOM     22  C   UNL     1      -0.900  10.493  21.887  0.00  0.00    +0.000 C 
ATOM     23  N   UNL     1      -1.931  12.847  22.913  0.00  0.00    +0.000 NA
ATOM     24  H   UNL     1       3.074   8.777  16.671  0.00  0.00    +0.000 HD
ATOM     25  H   UNL     1       4.171   7.524  16.876  0.00  0.00    +0.000 HD
ENDROOT
BRANCH   1  27
ATOM     26  C   UNL     1      -3.304  15.161  25.195  0.00  0.00    +0.000 C 
ATOM     27  O   UNL     1      -2.743  13.946  24.723  0.00  0.00    +0.000 OA
ENDBRANCH   1  27
BRANCH   3  28
ATOM     28  O   UNL     1      -3.122  15.759  20.436  0.00  0.00    +0.000 OA
ATOM     29  C   UNL     1      -2.266  16.897  20.430  0.00  0.00    +0.000 C 
ENDBRANCH   3  28
BRANCH  16  30
ATOM     30  O   UNL     1       3.847   2.894  18.608  0.00  0.00    +0.000 OA
ATOM     31  C   UNL     1       3.007   1.940  17.971  0.00  0.00    +0.000 C 
ENDBRANCH  16  30
BRANCH  17  32
ATOM     32  O   UNL     1       2.546   2.990  21.216  0.00  0.00    +0.000 OA
ATOM     33  C   UNL     1       1.260   2.712  21.754  0.00  0.00    +0.000 C 
ENDBRANCH  17  32
TORSDOF 4
ENDMDL
MODEL 5
REMARK VINA RESULT:      -6.6      2.231      4.137
REMARK  Name = 
REMARK  8 active torsions:
REMARK  status: ('A' for Active; 'I' for Inactive)
REMARK    1  A    between atoms: C_1  and  O_2
REMARK    2  A    between atoms: O_2  and  C_3
REMARK    3  A    between atoms: C_5  and  O_6
REMARK    4  A    between atoms: O_6  and  C_7
REMARK    5  A    between atoms: C_20  and  O_21
REMARK    6  A    between atoms: O_21  and  C_22
REMARK    7  A    between atoms: C_23  and  O_24
REMARK    8  A    between atoms: O_24  and  C_25
REMARK                            x       y       z     vdW  Elec       q    Type
REMARK                         _______ _______ _______ _____ _____    ______ ____
ROOT
ATOM      1  C   UNL     1       4.931   4.762  16.202  0.00  0.00    +0.000 A 
ATOM      2  N   UNL     1       4.855   3.476  16.484  0.00  0.00    +0.000 NA
ATOM      3  C   UNL     1       3.987   3.203  17.450  0.00  0.00    +0.000 A 
ATOM      4  N   UNL     1       3.254   4.092  18.116  0.00  0.00    +0.000 NA
ATOM      5  C   UNL     1       3.394   5.358  17.736  0.00  0.00    +0.000 A 
ATOM      6  N   UNL     1       2.732   6.352  18.409  0.00  0.00    +0.000 N 
ATOM      7  C   UNL     1       1.885   6.069  19.572  0.00  0.00    +0.000 C 
ATOM      8  C   UNL     1       2.022   7.225  20.596  0.00  0.00    +0.000 C 
ATOM      9  N   UNL     1       1.783   8.517  19.939  0.00  0.00    +0.000 N 
ATOM     10  C   UNL     1       0.987   9.476  20.509  0.00  0.00    +0.000 A 
ATOM     11  N   UNL     1       0.383   9.188  21.669  0.00  0.00    +0.000 NA
ATOM     12  C   UNL     1      -0.427  10.106  22.203  0.00  0.00    +0.000 A 
ATOM     13  N   UNL     1      -1.041   9.721  23.403  0.00  0.00    +0.000 N 
ATOM     14  C   UNL     1      -0.685  11.339  21.612  0.00  0.00    +0.000 A 
ATOM     15  C   UNL     1      -1.554  12.322  22.147  0.00  0.00    +0.000 A 
ATOM     16  C   UNL     1      -1.779  13.537  21.496  0.00  0.00    +0.000 A 
ATOM     17  C   UNL     1      -1.133  13.757  20.272  0.00  0.00    +0.000 A 
ATOM     18  C   UNL     1      -0.266  12.768  19.761  0.00  0.00    +0.000 A 
ATOM     19  C   UNL     1      -0.025  11.559  20.409  0.00  0.00    +0.000 A 
ATOM     20  N   UNL     1       0.806  10.647  19.876  0.00  0.00    +0.000 NA
ATOM     21  C   UNL     1       2.601   8.796  18.758  0.00  0.00    +0.000 C 
ATOM     22  C   UNL     1       2.473   7.637  17.744  0.00  0.00    +0.000 C 
ATOM     23  N   UNL     1       4.220   5.727  16.764  0.00  0.00    +0.000 NA
ATOM     24  H   UNL     1      -0.666   8.804  23.637  0.00  0.00    +0.000 HD
ATOM     25  H   UNL     1      -0.864  10.392  24.141  0.00  0.00    +0.000 HD
ENDROOT
BRANCH   1  27
ATOM     26  C   UNL     1       6.311   4.181  14.404  0.00  0.00    +0.000 C 
ATOM     27  O   UNL     1       5.833   5.210  15.256  0.00  0.00    +0.000 OA
ENDBRANCH   1  27
BRANCH   3  28
ATOM     28  O   UNL     1       3.807   1.893  17.845  0.00  0.00    +0.000 OA
ATOM     29  C   UNL     1       2.784   1.739  18.825  0.00  0.00    +0.000 C 
ENDBRANCH   3  28
BRANCH  16  30
ATOM     30  O   UNL     1      -2.596  14.510  21.999  0.00  0.00    +0.000 OA
ATOM     31  C   UNL     1      -3.978  14.224  22.167  0.00  0.00    +0.000 C 
ENDBRANCH  16  30
BRANCH  17  32
ATOM     32  O   UNL     1      -1.224  14.851  19.448  0.00  0.00    +0.000 OA
ATOM     33  C   UNL     1      -0.033  15.404  18.904  0.00  0.00    +0.000 C 
ENDBRANCH  17  32
TORSDOF 4
ENDMDL
MODEL 6
REMARK VINA RESULT:      -6.6      1.007      1.037
REMARK  Name = 
REMARK  8 active torsions:
REMARK  status: ('A' for Active; 'I' for Inactive)
REMARK    1  A    between atoms: C_1  and  O_2
REMARK    2  A    between atoms: O_2  and  C_3
REMARK    3  A    between atoms: C_5  and  O_6
REMARK    4  A    between atoms: O_6  and  C_7
REMARK    5  A    between atoms: C_20  and  O_21
REMARK    6  A    between atoms: O_21  and  C_22
REMARK    7  A    between atoms: C_23  and  O_24
REMARK    8  A    between atoms: O_24  and  C_25
REMARK                            x       y       z     vdW  Elec       q    Type
REMARK                         _______ _______ _______ _____ _____    ______ ____
ROOT
ATOM      1  C   UNL     1       2.692   3.353  18.901  0.00  0.00    +0.000 A 
ATOM      2  N   UNL     1       3.616   2.968  18.043  0.00  0.00    +0.000 NA
ATOM      3  C   UNL     1       4.233   3.982  17.448  0.00  0.00    +0.000 A 
ATOM      4  N   UNL     1       3.977   5.273  17.641  0.00  0.00    +0.000 NA
ATOM      5  C   UNL     1       3.041   5.549  18.544  0.00  0.00    +0.000 A 
ATOM      6  N   UNL     1       2.662   6.848  18.761  0.00  0.00    +0.000 N 
ATOM      7  C   UNL     1       3.236   7.961  18.000  0.00  0.00    +0.000 C 
ATOM      8  C   UNL     1       2.139   9.028  17.749  0.00  0.00    +0.000 C 
ATOM      9  N   UNL     1       1.489   9.396  19.013  0.00  0.00    +0.000 N 
ATOM     10  C   UNL     1       1.242  10.703  19.340  0.00  0.00    +0.000 A 
ATOM     11  N   UNL     1       1.658  11.655  18.494  0.00  0.00    +0.000 NA
ATOM     12  C   UNL     1       1.456  12.931  18.832  0.00  0.00    +0.000 A 
ATOM     13  N   UNL     1       1.941  13.868  17.908  0.00  0.00    +0.000 N 
ATOM     14  C   UNL     1       0.850  13.323  20.022  0.00  0.00    +0.000 A 
ATOM     15  C   UNL     1       0.642  14.669  20.413  0.00  0.00    +0.000 A 
ATOM     16  C   UNL     1       0.036  14.995  21.629  0.00  0.00    +0.000 A 
ATOM     17  C   UNL     1      -0.348  13.947  22.475  0.00  0.00    +0.000 A 
ATOM     18  C   UNL     1      -0.139  12.613  22.062  0.00  0.00    +0.000 A 
ATOM     19  C   UNL     1       0.452  12.278  20.846  0.00  0.00    +0.000 A 
ATOM     20  N   UNL     1       0.636  10.991  20.504  0.00  0.00    +0.000 NA
ATOM     21  C   UNL     1       0.940   8.288  19.797  0.00  0.00    +0.000 C 
ATOM     22  C   UNL     1       2.030   7.221  20.036  0.00  0.00    +0.000 C 
ATOM     23  N   UNL     1       2.386   4.604  19.207  0.00  0.00    +0.000 NA
ATOM     24  H   UNL     1       2.303  13.334  17.121  0.00  0.00    +0.000 HD
ATOM     25  H   UNL     1       1.213  14.509  17.617  0.00  0.00    +0.000 HD
ENDROOT
BRANCH   1  27
ATOM     26  C   UNL     1       1.237   2.935  20.685  0.00  0.00    +0.000 C 
ATOM     27  O   UNL     1       1.924   2.411  19.559  0.00  0.00    +0.000 OA
ENDBRANCH   1  27
BRANCH   3  28
ATOM     28  O   UNL     1       5.224   3.720  16.524  0.00  0.00    +0.000 OA
ATOM     29  C   UNL     1       5.230   4.639  15.435  0.00  0.00    +0.000 C 
ENDBRANCH   3  28
BRANCH  16  30
ATOM     30  O   UNL     1      -0.196  16.283  22.023  0.00  0.00    +0.000 OA
ATOM     31  C   UNL     1       0.916  17.136  22.262  0.00  0.00    +0.000 C 
ENDBRANCH  16  30
BRANCH  17  32
ATOM     32  O   UNL     1      -0.928  14.026  23.717  0.00  0.00    +0.000 OA
ATOM     33  C   UNL     1      -2.346  14.026  23.816  0.00  0.00    +0.000 C 
ENDBRANCH  17  32
TORSDOF 4
ENDMDL
MODEL 7
REMARK VINA RESULT:      -6.6      2.786     10.238
REMARK  Name = 
REMARK  8 active torsions:
REMARK  status: ('A' for Active; 'I' for Inactive)
REMARK    1  A    between atoms: C_1  and  O_2
REMARK    2  A    between atoms: O_2  and  C_3
REMARK    3  A    between atoms: C_5  and  O_6
REMARK    4  A    between atoms: O_6  and  C_7
REMARK    5  A    between atoms: C_20  and  O_21
REMARK    6  A    between atoms: O_21  and  C_22
REMARK    7  A    between atoms: C_23  and  O_24
REMARK    8  A    between atoms: O_24  and  C_25
REMARK                            x       y       z     vdW  Elec       q    Type
REMARK                         _______ _______ _______ _____ _____    ______ ____
ROOT
ATOM      1  C   UNL     1      -2.088  14.679  21.384  0.00  0.00    +0.000 A 
ATOM      2  N   UNL     1      -2.540  14.869  22.608  0.00  0.00    +0.000 NA
ATOM      3  C   UNL     1      -2.201  13.898  23.447  0.00  0.00    +0.000 A 
ATOM      4  N   UNL     1      -1.497  12.810  23.141  0.00  0.00    +0.000 NA
ATOM      5  C   UNL     1      -1.074  12.730  21.883  0.00  0.00    +0.000 A 
ATOM      6  N   UNL     1      -0.401  11.615  21.457  0.00  0.00    +0.000 N 
ATOM      7  C   UNL     1      -0.153  10.475  22.343  0.00  0.00    +0.000 C 
ATOM      8  C   UNL     1      -0.250   9.161  21.524  0.00  0.00    +0.000 C 
ATOM      9  N   UNL     1       0.611   9.238  20.336  0.00  0.00    +0.000 N 
ATOM     10  C   UNL     1       1.426   8.199  19.971  0.00  0.00    +0.000 A 
ATOM     11  N   UNL     1       1.460   7.117  20.760  0.00  0.00    +0.000 NA
ATOM     12  C   UNL     1       2.286   6.121  20.428  0.00  0.00    +0.000 A 
ATOM     13  N   UNL     1       2.284   5.035  21.315  0.00  0.00    +0.000 N 
ATOM     14  C   UNL     1       3.122   6.156  19.316  0.00  0.00    +0.000 A 
ATOM     15  C   UNL     1       4.022   5.123  18.953  0.00  0.00    +0.000 A 
ATOM     16  C   UNL     1       4.843   5.225  17.828  0.00  0.00    +0.000 A 
ATOM     17  C   UNL     1       4.772   6.400  17.066  0.00  0.00    +0.000 A 
ATOM     18  C   UNL     1       3.864   7.413  17.441  0.00  0.00    +0.000 A 
ATOM     19  C   UNL     1       3.031   7.314  18.554  0.00  0.00    +0.000 A 
ATOM     20  N   UNL     1       2.188   8.311  18.871  0.00  0.00    +0.000 NA
ATOM     21  C   UNL     1       0.392  10.391  19.461  0.00  0.00    +0.000 C 
ATOM     22  C   UNL     1       0.478  11.698  20.281  0.00  0.00    +0.000 C 
ATOM     23  N   UNL     1      -1.343  13.663  20.977  0.00  0.00    +0.000 NA
ATOM     24  H   UNL     1       1.573   5.237  22.015  0.00  0.00    +0.000 HD
ATOM     25  H   UNL     1       2.092   4.166  20.832  0.00  0.00    +0.000 HD
ENDROOT
BRANCH   1  27
ATOM     26  C   UNL     1      -3.038  16.753  20.863  0.00  0.00    +0.000 C 
ATOM     27  O   UNL     1      -2.406  15.576  20.382  0.00  0.00    +0.000 OA
ENDBRANCH   1  27
BRANCH   3  28
ATOM     28  O   UNL     1      -2.610  13.970  24.763  0.00  0.00    +0.000 OA
ATOM     29  C   UNL     1      -2.647  15.303  25.265  0.00  0.00    +0.000 C 
ENDBRANCH   3  28
BRANCH  16  30
ATOM     30  O   UNL     1       5.705   4.237  17.444  0.00  0.00    +0.000 OA
ATOM     31  C   UNL     1       7.096   4.416  17.670  0.00  0.00    +0.000 C 
ENDBRANCH  16  30
BRANCH  17  32
ATOM     32  O   UNL     1       5.496   6.732  15.949  0.00  0.00    +0.000 OA
ATOM     33  C   UNL     1       5.428   5.887  14.808  0.00  0.00    +0.000 C 
ENDBRANCH  17  32
TORSDOF 4
ENDMDL
MODEL 8
REMARK VINA RESULT:      -6.4      3.903      5.766
REMARK  Name = 
REMARK  8 active torsions:
REMARK  status: ('A' for Active; 'I' for Inactive)
REMARK    1  A    between atoms: C_1  and  O_2
REMARK    2  A    between atoms: O_2  and  C_3
REMARK    3  A    between atoms: C_5  and  O_6
REMARK    4  A    between atoms: O_6  and  C_7
REMARK    5  A    between atoms: C_20  and  O_21
REMARK    6  A    between atoms: O_21  and  C_22
REMARK    7  A    between atoms: C_23  and  O_24
REMARK    8  A    between atoms: O_24  and  C_25
REMARK                            x       y       z     vdW  Elec       q    Type
REMARK                         _______ _______ _______ _____ _____    ______ ____
ROOT
ATOM      1  C   UNL     1       2.683   7.533  18.821  0.00  0.00    +0.000 A 
ATOM      2  N   UNL     1       2.901   6.361  19.384  0.00  0.00    +0.000 NA
ATOM      3  C   UNL     1       2.131   6.139  20.443  0.00  0.00    +0.000 A 
ATOM      4  N   UNL     1       1.229   6.980  20.944  0.00  0.00    +0.000 NA
ATOM      5  C   UNL     1       1.077   8.124  20.285  0.00  0.00    +0.000 A 
ATOM      6  N   UNL     1       0.221   9.081  20.765  0.00  0.00    +0.000 N 
ATOM      7  C   UNL     1      -0.522   8.899  22.015  0.00  0.00    +0.000 C 
ATOM      8  C   UNL     1      -0.630  10.262  22.747  0.00  0.00    +0.000 C 
ATOM      9  N   UNL     1      -1.163  11.286  21.839  0.00  0.00    +0.000 N 
ATOM     10  C   UNL     1      -2.142  12.158  22.234  0.00  0.00    +0.000 A 
ATOM     11  N   UNL     1      -2.648  12.022  23.467  0.00  0.00    +0.000 NA
ATOM     12  C   UNL     1      -3.633  12.844  23.839  0.00  0.00    +0.000 A 
ATOM     13  N   UNL     1      -4.126  12.623  25.133  0.00  0.00    +0.000 N 
ATOM     14  C   UNL     1      -4.170  13.823  23.008  0.00  0.00    +0.000 A 
ATOM     15  C   UNL     1      -5.228  14.694  23.370  0.00  0.00    +0.000 A 
ATOM     16  C   UNL     1      -5.729  15.649  22.483  0.00  0.00    +0.000 A 
ATOM     17  C   UNL     1      -5.169  15.714  21.200  0.00  0.00    +0.000 A 
ATOM     18  C   UNL     1      -4.111  14.843  20.863  0.00  0.00    +0.000 A 
ATOM     19  C   UNL     1      -3.596  13.896  21.745  0.00  0.00    +0.000 A 
ATOM     20  N   UNL     1      -2.591  13.085  21.372  0.00  0.00    +0.000 NA
ATOM     21  C   UNL     1      -0.447  11.454  20.573  0.00  0.00    +0.000 C 
ATOM     22  C   UNL     1      -0.329  10.093  19.851  0.00  0.00    +0.000 C 
ATOM     23  N   UNL     1       1.784   8.427  19.202  0.00  0.00    +0.000 NA
ATOM     24  H   UNL     1      -3.552  11.887  25.537  0.00  0.00    +0.000 HD
ATOM     25  H   UNL     1      -4.091  13.469  25.690  0.00  0.00    +0.000 HD
ENDROOT
BRANCH   1  27
ATOM     26  C   UNL     1       4.354   6.938  17.294  0.00  0.00    +0.000 C 
ATOM     27  O   UNL     1       3.446   7.934  17.740  0.00  0.00    +0.000 OA
ENDBRANCH   1  27
BRANCH   3  28
ATOM     28  O   UNL     1       2.256   4.948  21.129  0.00  0.00    +0.000 OA
ATOM     29  C   UNL     1       1.320   3.959  20.709  0.00  0.00    +0.000 C 
ENDBRANCH   3  28
BRANCH  16  30
ATOM     30  O   UNL     1      -6.734  16.514  22.812  0.00  0.00    +0.000 OA
ATOM     31  C   UNL     1      -6.402  17.736  23.458  0.00  0.00    +0.000 C 
ENDBRANCH  16  30
BRANCH  17  32
ATOM     32  O   UNL     1      -5.516  16.543  20.163  0.00  0.00    +0.000 OA
ATOM     33  C   UNL     1      -6.386  16.053  19.151  0.00  0.00    +0.000 C 
ENDBRANCH  17  32
TORSDOF 4
ENDMDL
MODEL 9
REMARK VINA RESULT:      -6.4      2.256     10.528
REMARK  Name = 
REMARK  8 active torsions:
REMARK  status: ('A' for Active; 'I' for Inactive)
REMARK    1  A    between atoms: C_1  and  O_2
REMARK    2  A    between atoms: O_2  and  C_3
REMARK    3  A    between atoms: C_5  and  O_6
REMARK    4  A    between atoms: O_6  and  C_7
REMARK    5  A    between atoms: C_20  and  O_21
REMARK    6  A    between atoms: O_21  and  C_22
REMARK    7  A    between atoms: C_23  and  O_24
REMARK    8  A    between atoms: O_24  and  C_25
REMARK                            x       y       z     vdW  Elec       q    Type
REMARK                         _______ _______ _______ _____ _____    ______ ____
ROOT
ATOM      1  C   UNL     1       2.018  17.303  18.138  0.00  0.00    +0.000 A 
ATOM      2  N   UNL     1       1.728  18.067  19.172  0.00  0.00    +0.000 NA
ATOM      3  C   UNL     1       1.540  17.382  20.293  0.00  0.00    +0.000 A 
ATOM      4  N   UNL     1       1.605  16.058  20.420  0.00  0.00    +0.000 NA
ATOM      5  C   UNL     1       1.926  15.387  19.318  0.00  0.00    +0.000 A 
ATOM      6  N   UNL     1       1.951  14.017  19.335  0.00  0.00    +0.000 N 
ATOM      7  C   UNL     1       1.600  13.250  20.534  0.00  0.00    +0.000 C 
ATOM      8  C   UNL     1       0.856  11.956  20.113  0.00  0.00    +0.000 C 
ATOM      9  N   UNL     1       1.635  11.228  19.102  0.00  0.00    +0.000 N 
ATOM     10  C   UNL     1       1.821   9.873  19.177  0.00  0.00    +0.000 A 
ATOM     11  N   UNL     1       1.314   9.224  20.234  0.00  0.00    +0.000 NA
ATOM     12  C   UNL     1       1.531   7.910  20.330  0.00  0.00    +0.000 A 
ATOM     13  N   UNL     1       0.991   7.307  21.475  0.00  0.00    +0.000 N 
ATOM     14  C   UNL     1       2.268   7.183  19.399  0.00  0.00    +0.000 A 
ATOM     15  C   UNL     1       2.530   5.793  19.488  0.00  0.00    +0.000 A 
ATOM     16  C   UNL     1       3.288   5.126  18.523  0.00  0.00    +0.000 A 
ATOM     17  C   UNL     1       3.809   5.876  17.461  0.00  0.00    +0.000 A 
ATOM     18  C   UNL     1       3.530   7.257  17.387  0.00  0.00    +0.000 A 
ATOM     19  C   UNL     1       2.764   7.930  18.337  0.00  0.00    +0.000 A 
ATOM     20  N   UNL     1       2.533   9.249  18.224  0.00  0.00    +0.000 NA
ATOM     21  C   UNL     1       2.018  11.994  17.915  0.00  0.00    +0.000 C 
ATOM     22  C   UNL     1       2.748  13.289  18.337  0.00  0.00    +0.000 C 
ATOM     23  N   UNL     1       2.156  15.987  18.156  0.00  0.00    +0.000 NA
ATOM     24  H   UNL     1       0.479   8.035  21.969  0.00  0.00    +0.000 HD
ATOM     25  H   UNL     1       0.388   6.530  21.232  0.00  0.00    +0.000 HD
ENDROOT
BRANCH   1  27
ATOM     26  C   UNL     1       1.000  18.444  16.367  0.00  0.00    +0.000 C 
ATOM     27  O   UNL     1       2.187  17.866  16.888  0.00  0.00    +0.000 OA
ENDBRANCH   1  27
BRANCH   3  28
ATOM     28  O   UNL     1       1.228  18.059  21.454  0.00  0.00    +0.000 OA
ATOM     29  C   UNL     1       1.133  17.206  22.592  0.00  0.00    +0.000 C 
ENDBRANCH   3  28
BRANCH  16  30
ATOM     30  O   UNL     1       3.539   3.784  18.573  0.00  0.00    +0.000 OA
ATOM     31  C   UNL     1       4.655   3.324  19.323  0.00  0.00    +0.000 C 
ENDBRANCH  16  30
BRANCH  17  32
ATOM     32  O   UNL     1       4.598   5.445  16.423  0.00  0.00    +0.000 OA
ATOM     33  C   UNL     1       5.984   5.759  16.436  0.00  0.00    +0.000 C 
ENDBRANCH  17  32
TORSDOF 4
ENDMDL
