MODEL 1
REMARK VINA RESULT:      -6.8      0.000      0.000
REMARK  Name = 
REMARK  7 active torsions:
REMARK  status: ('A' for Active; 'I' for Inactive)
REMARK    1  A    between atoms: C_1  and  O_2
REMARK    2  A    between atoms: O_2  and  C_3
REMARK    3  A    between atoms: C_3  and  C_4
REMARK    4  A    between atoms: C_4  and  N_5
REMARK    5  A    between atoms: C_6  and  S_7
REMARK    6  A    between atoms: C_14  and  N_15
REMARK    7  A    between atoms: N_18  and  C_19
REMARK                            x       y       z     vdW  Elec       q    Type
REMARK                         _______ _______ _______ _____ _____    ______ ____
ROOT
ATOM      1  N   UNL     1      -2.539  12.201  21.667  0.00  0.00    +0.000 NA
ATOM      2  C   UNL     1      -1.363  12.719  21.547  0.00  0.00    +0.000 C 
ATOM      3  N   UNL     1      -0.531  12.261  20.545  0.00  0.00    +0.000 N 
ATOM      4  C   UNL     1      -0.962  11.160  19.694  0.00  0.00    +0.000 C 
ATOM      5  C   UNL     1      -0.127  11.438  18.435  0.00  0.00    +0.000 C 
ATOM      6  C   UNL     1       1.169  12.087  18.939  0.00  0.00    +0.000 C 
ATOM      7  C   UNL     1       0.936  12.257  20.451  0.00  0.00    +0.000 C 
ATOM      8  C   UNL     1       1.513  11.019  21.177  0.00  0.00    +0.000 C 
ATOM      9  C   UNL     1       0.836   9.677  20.761  0.00  0.00    +0.000 C 
ATOM     10  C   UNL     1      -0.662   9.878  20.496  0.00  0.00    +0.000 C 
ENDROOT
BRANCH   9  11
ATOM     11  N   UNL     1       1.439   9.011  19.601  0.00  0.00    +0.000 N 
ATOM     12  C   UNL     1       1.763   7.678  19.602  0.00  0.00    +0.000 C 
ATOM     13  O   UNL     1       1.680   6.964  20.590  0.00  0.00    +0.000 OA
ATOM     14  N   UNL     1       2.282   7.290  18.387  0.00  0.00    +0.000 N 
ATOM     15  H   UNL     1       1.309   9.435  18.700  0.00  0.00    +0.000 HD
ATOM     16  H   UNL     1       2.409   8.046  17.732  0.00  0.00    +0.000 HD
BRANCH  14  17
ATOM     17  C   UNL     1       3.251   6.198  18.263  0.00  0.00    +0.000 C 
ATOM     18  C   UNL     1       3.966   5.799  19.565  0.00  0.00    +0.000 C 
ATOM     19  C   UNL     1       4.949   4.624  19.310  0.00  0.00    +0.000 C 
ATOM     20  C   UNL     1       4.204   3.398  18.746  0.00  0.00    +0.000 C 
ATOM     21  C   UNL     1       3.465   3.786  17.459  0.00  0.00    +0.000 C 
ATOM     22  C   UNL     1       4.480   4.259  16.405  0.00  0.00    +0.000 C 
ATOM     23  C   UNL     1       5.293   5.441  16.951  0.00  0.00    +0.000 C 
ATOM     24  C   UNL     1       5.993   5.055  18.266  0.00  0.00    +0.000 C 
ATOM     25  C   UNL     1       4.326   6.597  17.216  0.00  0.00    +0.000 C 
ATOM     26  C   UNL     1       2.490   4.927  17.783  0.00  0.00    +0.000 C 
ENDBRANCH  14  17
ENDBRANCH   9  11
BRANCH   2  27
ATOM     27  S   UNL     1      -0.766  14.032  22.538  0.00  0.00    +0.000 S 
ATOM     28  H   UNL     1       0.530  13.912  22.245  0.00  0.00    +0.000 HD
ENDBRANCH   2  27
BRANCH   1  29
ATOM     29  C   UNL     1      -3.530  12.524  22.679  0.00  0.00    +0.000 C 
BRANCH  29  30
ATOM     30  C   UNL     1      -4.799  13.094  22.013  0.00  0.00    +0.000 C 
BRANCH  30  32
ATOM     31  C   UNL     1      -7.031  12.479  21.515  0.00  0.00    +0.000 C 
ATOM     32  O   UNL     1      -5.684  12.035  21.625  0.00  0.00    +0.000 OA
ENDBRANCH  30  32
ENDBRANCH  29  30
ENDBRANCH   1  29
TORSDOF 6
ENDMDL
MODEL 2
REMARK VINA RESULT:      -6.7      2.901      4.383
REMARK  Name = 
REMARK  7 active torsions:
REMARK  status: ('A' for Active; 'I' for Inactive)
REMARK    1  A    between atoms: C_1  and  O_2
REMARK    2  A    between atoms: O_2  and  C_3
REMARK    3  A    between atoms: C_3  and  C_4
REMARK    4  A    between atoms: C_4  and  N_5
REMARK    5  A    between atoms: C_6  and  S_7
REMARK    6  A    between atoms: C_14  and  N_15
REMARK    7  A    between atoms: N_18  and  C_19
REMARK                            x       y       z     vdW  Elec       q    Type
REMARK                         _______ _______ _______ _____ _____    ______ ____
ROOT
ATOM      1  N   UNL     1       1.267  14.078  19.889  0.00  0.00    +0.000 NA
ATOM      2  C   UNL     1       0.127  13.483  19.996  0.00  0.00    +0.000 C 
ATOM      3  N   UNL     1       0.083  12.214  20.536  0.00  0.00    +0.000 N 
ATOM      4  C   UNL     1       1.321  11.543  20.907  0.00  0.00    +0.000 C 
ATOM      5  C   UNL     1       0.805  10.579  21.986  0.00  0.00    +0.000 C 
ATOM      6  C   UNL     1      -0.631  10.235  21.571  0.00  0.00    +0.000 C 
ATOM      7  C   UNL     1      -0.890  11.129  20.345  0.00  0.00    +0.000 C 
ATOM      8  C   UNL     1      -0.544  10.322  19.071  0.00  0.00    +0.000 C 
ATOM      9  C   UNL     1       0.946   9.872  18.999  0.00  0.00    +0.000 C 
ATOM     10  C   UNL     1       1.871  10.941  19.598  0.00  0.00    +0.000 C 
ENDROOT
BRANCH   9  11
ATOM     11  N   UNL     1       1.237   8.582  19.634  0.00  0.00    +0.000 N 
ATOM     12  C   UNL     1       2.207   7.732  19.167  0.00  0.00    +0.000 C 
ATOM     13  O   UNL     1       2.831   7.922  18.133  0.00  0.00    +0.000 OA
ATOM     14  N   UNL     1       2.305   6.607  19.954  0.00  0.00    +0.000 N 
ATOM     15  H   UNL     1       0.970   8.465  20.595  0.00  0.00    +0.000 HD
ATOM     16  H   UNL     1       1.613   6.553  20.687  0.00  0.00    +0.000 HD
BRANCH  14  17
ATOM     17  C   UNL     1       2.738   5.313  19.420  0.00  0.00    +0.000 C 
ATOM     18  C   UNL     1       4.252   5.165  19.196  0.00  0.00    +0.000 C 
ATOM     19  C   UNL     1       4.587   3.751  18.647  0.00  0.00    +0.000 C 
ATOM     20  C   UNL     1       4.113   2.657  19.624  0.00  0.00    +0.000 C 
ATOM     21  C   UNL     1       2.606   2.806  19.878  0.00  0.00    +0.000 C 
ATOM     22  C   UNL     1       1.842   2.635  18.554  0.00  0.00    +0.000 C 
ATOM     23  C   UNL     1       2.332   3.665  17.526  0.00  0.00    +0.000 C 
ATOM     24  C   UNL     1       3.851   3.537  17.315  0.00  0.00    +0.000 C 
ATOM     25  C   UNL     1       2.015   5.060  18.069  0.00  0.00    +0.000 C 
ATOM     26  C   UNL     1       2.345   4.209  20.445  0.00  0.00    +0.000 C 
ENDBRANCH  14  17
ENDBRANCH   9  11
BRANCH   2  27
ATOM     27  S   UNL     1      -1.403  14.215  19.560  0.00  0.00    +0.000 S 
ATOM     28  H   UNL     1      -1.365  15.245  20.406  0.00  0.00    +0.000 HD
ENDBRANCH   2  27
BRANCH   1  29
ATOM     29  C   UNL     1       1.512  15.389  19.314  0.00  0.00    +0.000 C 
BRANCH  29  30
ATOM     30  C   UNL     1       2.562  15.286  18.189  0.00  0.00    +0.000 C 
BRANCH  30  32
ATOM     31  C   UNL     1       4.880  14.974  17.816  0.00  0.00    +0.000 C 
ATOM     32  O   UNL     1       3.785  14.730  18.690  0.00  0.00    +0.000 OA
ENDBRANCH  30  32
ENDBRANCH  29  30
ENDBRANCH   1  29
TORSDOF 6
ENDMDL
MODEL 3
REMARK VINA RESULT:      -6.5      0.750      1.009
REMARK  Name = 
REMARK  7 active torsions:
REMARK  status: ('A' for Active; 'I' for Inactive)
REMARK    1  A    between atoms: C_1  and  O_2
REMARK    2  A    between atoms: O_2  and  C_3
REMARK    3  A    between atoms: C_3  and  C_4
REMARK    4  A    between atoms: C_4  and  N_5
REMARK    5  A    between atoms: C_6  and  S_7
REMARK    6  A    between atoms: C_14  and  N_15
REMARK    7  A    between atoms: N_18  and  C_19
REMARK                            x       y       z     vdW  Elec       q    Type
REMARK                         _______ _______ _______ _____ _____    ______ ____
ROOT
ATOM      1  N   UNL     1      -2.408  12.126  22.005  0.00  0.00    +0.000 NA
ATOM      2  C   UNL     1      -1.313  12.710  21.653  0.00  0.00    +0.000 C 
ATOM      3  N   UNL     1      -0.603  12.209  20.580  0.00  0.00    +0.000 N 
ATOM      4  C   UNL     1      -1.060  10.997  19.914  0.00  0.00    +0.000 C 
ATOM      5  C   UNL     1      -0.450  11.199  18.518  0.00  0.00    +0.000 C 
ATOM      6  C   UNL     1       0.846  11.987  18.750  0.00  0.00    +0.000 C 
ATOM      7  C   UNL     1       0.828  12.299  20.257  0.00  0.00    +0.000 C 
ATOM      8  C   UNL     1       1.611  11.188  20.995  0.00  0.00    +0.000 C 
ATOM      9  C   UNL     1       0.999   9.766  20.818  0.00  0.00    +0.000 C 
ATOM     10  C   UNL     1      -0.534   9.831  20.774  0.00  0.00    +0.000 C 
ENDROOT
BRANCH   9  11
ATOM     11  N   UNL     1       1.476   9.025  19.645  0.00  0.00    +0.000 N 
ATOM     12  C   UNL     1       1.818   7.698  19.700  0.00  0.00    +0.000 C 
ATOM     13  O   UNL     1       1.858   7.053  20.737  0.00  0.00    +0.000 OA
ATOM     14  N   UNL     1       2.203   7.230  18.463  0.00  0.00    +0.000 N 
ATOM     15  H   UNL     1       1.238   9.384  18.738  0.00  0.00    +0.000 HD
ATOM     16  H   UNL     1       2.243   7.940  17.747  0.00  0.00    +0.000 HD
BRANCH  14  17
ATOM     17  C   UNL     1       3.168   6.139  18.304  0.00  0.00    +0.000 C 
ATOM     18  C   UNL     1       3.900   5.714  19.588  0.00  0.00    +0.000 C 
ATOM     19  C   UNL     1       4.878   4.543  19.295  0.00  0.00    +0.000 C 
ATOM     20  C   UNL     1       4.122   3.329  18.719  0.00  0.00    +0.000 C 
ATOM     21  C   UNL     1       3.365   3.743  17.450  0.00  0.00    +0.000 C 
ATOM     22  C   UNL     1       4.366   4.235  16.391  0.00  0.00    +0.000 C 
ATOM     23  C   UNL     1       5.189   5.405  16.948  0.00  0.00    +0.000 C 
ATOM     24  C   UNL     1       5.907   4.992  18.246  0.00  0.00    +0.000 C 
ATOM     25  C   UNL     1       4.228   6.557  17.250  0.00  0.00    +0.000 C 
ATOM     26  C   UNL     1       2.398   4.880  17.810  0.00  0.00    +0.000 C 
ENDBRANCH  14  17
ENDBRANCH   9  11
BRANCH   2  27
ATOM     27  S   UNL     1      -0.689  14.160  22.411  0.00  0.00    +0.000 S 
ATOM     28  H   UNL     1      -1.688  14.364  23.271  0.00  0.00    +0.000 HD
ENDBRANCH   2  27
BRANCH   1  29
ATOM     29  C   UNL     1      -3.261  12.483  23.125  0.00  0.00    +0.000 C 
BRANCH  29  30
ATOM     30  C   UNL     1      -4.651  12.917  22.615  0.00  0.00    +0.000 C 
BRANCH  30  32
ATOM     31  C   UNL     1      -4.060  14.657  24.110  0.00  0.00    +0.000 C 
ATOM     32  O   UNL     1      -5.013  14.192  23.161  0.00  0.00    +0.000 OA
ENDBRANCH  30  32
ENDBRANCH  29  30
ENDBRANCH   1  29
TORSDOF 6
ENDMDL
MODEL 4
REMARK VINA RESULT:      -6.5      2.808      4.184
REMARK  Name = 
REMARK  7 active torsions:
REMARK  status: ('A' for Active; 'I' for Inactive)
REMARK    1  A    between atoms: C_1  and  O_2
REMARK    2  A    between atoms: O_2  and  C_3
REMARK    3  A    between atoms: C_3  and  C_4
REMARK    4  A    between atoms: C_4  and  N_5
REMARK    5  A    between atoms: C_6  and  S_7
REMARK    6  A    between atoms: C_14  and  N_15
REMARK    7  A    between atoms: N_18  and  C_19
REMARK                            x       y       z     vdW  Elec       q    Type
REMARK                         _______ _______ _______ _____ _____    ______ ____
ROOT
ATOM      1  N   UNL     1      -0.195  13.734  19.979  0.00  0.00    +0.000 NA
ATOM      2  C   UNL     1      -0.970  12.703  19.965  0.00  0.00    +0.000 C 
ATOM      3  N   UNL     1      -0.454  11.474  20.326  0.00  0.00    +0.000 N 
ATOM      4  C   UNL     1       0.962  11.350  20.643  0.00  0.00    +0.000 C 
ATOM      5  C   UNL     1       0.935  10.119  21.563  0.00  0.00    +0.000 C 
ATOM      6  C   UNL     1      -0.229   9.258  21.056  0.00  0.00    +0.000 C 
ATOM      7  C   UNL     1      -0.877  10.116  19.955  0.00  0.00    +0.000 C 
ATOM      8  C   UNL     1      -0.256   9.717  18.596  0.00  0.00    +0.000 C 
ATOM      9  C   UNL     1       1.281   9.958  18.514  0.00  0.00    +0.000 C 
ATOM     10  C   UNL     1       1.679  11.225  19.284  0.00  0.00    +0.000 C 
ENDROOT
BRANCH   9  11
ATOM     11  N   UNL     1       2.111   8.841  18.977  0.00  0.00    +0.000 N 
ATOM     12  C   UNL     1       2.062   7.597  18.399  0.00  0.00    +0.000 C 
ATOM     13  O   UNL     1       1.259   7.286  17.532  0.00  0.00    +0.000 OA
ATOM     14  N   UNL     1       2.958   6.736  18.992  0.00  0.00    +0.000 N 
ATOM     15  H   UNL     1       2.949   9.061  19.484  0.00  0.00    +0.000 HD
ATOM     16  H   UNL     1       3.442   7.126  19.787  0.00  0.00    +0.000 HD
BRANCH  14  17
ATOM     17  C   UNL     1       2.728   5.291  19.058  0.00  0.00    +0.000 C 
ATOM     18  C   UNL     1       2.332   4.624  17.730  0.00  0.00    +0.000 C 
ATOM     19  C   UNL     1       2.134   3.096  17.925  0.00  0.00    +0.000 C 
ATOM     20  C   UNL     1       3.424   2.439  18.455  0.00  0.00    +0.000 C 
ATOM     21  C   UNL     1       3.847   3.111  19.769  0.00  0.00    +0.000 C 
ATOM     22  C   UNL     1       2.742   2.922  20.822  0.00  0.00    +0.000 C 
ATOM     23  C   UNL     1       1.418   3.504  20.306  0.00  0.00    +0.000 C 
ATOM     24  C   UNL     1       1.028   2.857  18.966  0.00  0.00    +0.000 C 
ATOM     25  C   UNL     1       1.613   5.008  20.101  0.00  0.00    +0.000 C 
ATOM     26  C   UNL     1       4.055   4.609  19.504  0.00  0.00    +0.000 C 
ENDBRANCH  14  17
ENDBRANCH   9  11
BRANCH   2  27
ATOM     27  S   UNL     1      -2.677  12.766  19.581  0.00  0.00    +0.000 S 
ATOM     28  H   UNL     1      -2.870  14.067  19.805  0.00  0.00    +0.000 HD
ENDBRANCH   2  27
BRANCH   1  29
ATOM     29  C   UNL     1      -0.548  15.090  19.596  0.00  0.00    +0.000 C 
BRANCH  29  30
ATOM     30  C   UNL     1       0.706  15.989  19.613  0.00  0.00    +0.000 C 
BRANCH  30  32
ATOM     31  C   UNL     1       2.473  16.724  18.217  0.00  0.00    +0.000 C 
ATOM     32  O   UNL     1       1.575  15.663  18.519  0.00  0.00    +0.000 OA
ENDBRANCH  30  32
ENDBRANCH  29  30
ENDBRANCH   1  29
TORSDOF 6
ENDMDL
MODEL 5
REMARK VINA RESULT:      -6.5      3.025      4.683
REMARK  Name = 
REMARK  7 active torsions:
REMARK  status: ('A' for Active; 'I' for Inactive)
REMARK    1  A    between atoms: C_1  and  O_2
REMARK    2  A    between atoms: O_2  and  C_3
REMARK    3  A    between atoms: C_3  and  C_4
REMARK    4  A    between atoms: C_4  and  N_5
REMARK    5  A    between atoms: C_6  and  S_7
REMARK    6  A    between atoms: C_14  and  N_15
REMARK    7  A    between atoms: N_18  and  C_19
REMARK                            x       y       z     vdW  Elec       q    Type
REMARK                         _______ _______ _______ _____ _____    ______ ____
ROOT
ATOM      1  N   UNL     1       1.948  14.112  19.668  0.00  0.00    +0.000 NA
ATOM      2  C   UNL     1       0.731  13.704  19.542  0.00  0.00    +0.000 C 
ATOM      3  N   UNL     1       0.386  12.465  20.045  0.00  0.00    +0.000 N 
ATOM      4  C   UNL     1       1.409  11.616  20.639  0.00  0.00    +0.000 C 
ATOM      5  C   UNL     1       0.549  10.761  21.583  0.00  0.00    +0.000 C 
ATOM      6  C   UNL     1      -0.815  10.638  20.891  0.00  0.00    +0.000 C 
ATOM      7  C   UNL     1      -0.688  11.541  19.651  0.00  0.00    +0.000 C 
ATOM      8  C   UNL     1      -0.230  10.671  18.458  0.00  0.00    +0.000 C 
ATOM      9  C   UNL     1       1.158   9.993  18.671  0.00  0.00    +0.000 C 
ATOM     10  C   UNL     1       2.102  10.915  19.454  0.00  0.00    +0.000 C 
ENDROOT
BRANCH   9  11
ATOM     11  N   UNL     1       1.115   8.684  19.331  0.00  0.00    +0.000 N 
ATOM     12  C   UNL     1       2.052   7.710  19.098  0.00  0.00    +0.000 C 
ATOM     13  O   UNL     1       2.929   7.805  18.253  0.00  0.00    +0.000 OA
ATOM     14  N   UNL     1       1.808   6.591  19.863  0.00  0.00    +0.000 N 
ATOM     15  H   UNL     1       0.607   8.614  20.195  0.00  0.00    +0.000 HD
ATOM     16  H   UNL     1       0.957   6.636  20.402  0.00  0.00    +0.000 HD
BRANCH  14  17
ATOM     17  C   UNL     1       2.189   5.245  19.425  0.00  0.00    +0.000 C 
ATOM     18  C   UNL     1       1.886   4.921  17.952  0.00  0.00    +0.000 C 
ATOM     19  C   UNL     1       2.349   3.480  17.605  0.00  0.00    +0.000 C 
ATOM     20  C   UNL     1       3.861   3.314  17.857  0.00  0.00    +0.000 C 
ATOM     21  C   UNL     1       4.184   3.658  19.318  0.00  0.00    +0.000 C 
ATOM     22  C   UNL     1       3.430   2.697  20.252  0.00  0.00    +0.000 C 
ATOM     23  C   UNL     1       1.920   2.781  19.987  0.00  0.00    +0.000 C 
ATOM     24  C   UNL     1       1.613   2.479  18.510  0.00  0.00    +0.000 C 
ATOM     25  C   UNL     1       1.462   4.203  20.316  0.00  0.00    +0.000 C 
ATOM     26  C   UNL     1       3.730   5.100  19.590  0.00  0.00    +0.000 C 
ENDBRANCH  14  17
ENDBRANCH   9  11
BRANCH   2  27
ATOM     27  S   UNL     1      -0.552  14.657  18.827  0.00  0.00    +0.000 S 
ATOM     28  H   UNL     1       0.134  15.150  17.796  0.00  0.00    +0.000 HD
ENDBRANCH   2  27
BRANCH   1  29
ATOM     29  C   UNL     1       2.501  15.359  19.170  0.00  0.00    +0.000 C 
BRANCH  29  30
ATOM     30  C   UNL     1       3.188  15.129  17.809  0.00  0.00    +0.000 C 
BRANCH  30  32
ATOM     31  C   UNL     1       2.308  17.305  17.495  0.00  0.00    +0.000 C 
ATOM     32  O   UNL     1       3.283  16.358  17.077  0.00  0.00    +0.000 OA
ENDBRANCH  30  32
ENDBRANCH  29  30
ENDBRANCH   1  29
TORSDOF 6
ENDMDL
MODEL 6
REMARK VINA RESULT:      -6.5      2.962      4.223
REMARK  Name = 
REMARK  7 active torsions:
REMARK  status: ('A' for Active; 'I' for Inactive)
REMARK    1  A    between atoms: C_1  and  O_2
REMARK    2  A    between atoms: O_2  and  C_3
REMARK    3  A    between atoms: C_3  and  C_4
REMARK    4  A    between atoms: C_4  and  N_5
REMARK    5  A    between atoms: C_6  and  S_7
REMARK    6  A    between atoms: C_14  and  N_15
REMARK    7  A    between atoms: N_18  and  C_19
REMARK                            x       y       z     vdW  Elec       q    Type
REMARK                         _______ _______ _______ _____ _____    ______ ____
ROOT
ATOM      1  N   UNL     1       1.599  14.241  19.306  0.00  0.00    +0.000 NA
ATOM      2  C   UNL     1       0.423  13.734  19.461  0.00  0.00    +0.000 C 
ATOM      3  N   UNL     1       0.301  12.504  20.077  0.00  0.00    +0.000 N 
ATOM      4  C   UNL     1       1.497  11.773  20.473  0.00  0.00    +0.000 C 
ATOM      5  C   UNL     1       0.932  10.912  21.614  0.00  0.00    +0.000 C 
ATOM      6  C   UNL     1      -0.530  10.644  21.236  0.00  0.00    +0.000 C 
ATOM      7  C   UNL     1      -0.746  11.479  19.961  0.00  0.00    +0.000 C 
ATOM      8  C   UNL     1      -0.475  10.577  18.734  0.00  0.00    +0.000 C 
ATOM      9  C   UNL     1       0.981  10.022  18.673  0.00  0.00    +0.000 C 
ATOM     10  C   UNL     1       1.984  11.059  19.198  0.00  0.00    +0.000 C 
ENDROOT
BRANCH   9  11
ATOM     11  N   UNL     1       1.192   8.755  19.381  0.00  0.00    +0.000 N 
ATOM     12  C   UNL     1       2.185   7.874  19.036  0.00  0.00    +0.000 C 
ATOM     13  O   UNL     1       2.901   8.014  18.055  0.00  0.00    +0.000 OA
ATOM     14  N   UNL     1       2.195   6.780  19.872  0.00  0.00    +0.000 N 
ATOM     15  H   UNL     1       0.840   8.680  20.319  0.00  0.00    +0.000 HD
ATOM     16  H   UNL     1       1.440   6.765  20.542  0.00  0.00    +0.000 HD
BRANCH  14  17
ATOM     17  C   UNL     1       2.651   5.460  19.429  0.00  0.00    +0.000 C 
ATOM     18  C   UNL     1       4.177   5.281  19.356  0.00  0.00    +0.000 C 
ATOM     19  C   UNL     1       4.535   3.841  18.893  0.00  0.00    +0.000 C 
ATOM     20  C   UNL     1       3.949   2.793  19.860  0.00  0.00    +0.000 C 
ATOM     21  C   UNL     1       2.428   2.975  19.964  0.00  0.00    +0.000 C 
ATOM     22  C   UNL     1       1.789   2.766  18.581  0.00  0.00    +0.000 C 
ATOM     23  C   UNL     1       2.394   3.748  17.567  0.00  0.00    +0.000 C 
ATOM     24  C   UNL     1       3.924   3.588  17.506  0.00  0.00    +0.000 C 
ATOM     25  C   UNL     1       2.055   5.168  18.026  0.00  0.00    +0.000 C 
ATOM     26  C   UNL     1       2.142   4.403  20.452  0.00  0.00    +0.000 C 
ENDBRANCH  14  17
ENDBRANCH   9  11
BRANCH   2  27
ATOM     27  S   UNL     1      -1.061  14.541  18.999  0.00  0.00    +0.000 S 
ATOM     28  H   UNL     1      -0.719  15.779  19.361  0.00  0.00    +0.000 HD
ENDBRANCH   2  27
BRANCH   1  29
ATOM     29  C   UNL     1       1.923  15.496  18.651  0.00  0.00    +0.000 C 
BRANCH  29  30
ATOM     30  C   UNL     1       2.357  16.544  19.696  0.00  0.00    +0.000 C 
BRANCH  30  32
ATOM     31  C   UNL     1       1.178  18.582  19.445  0.00  0.00    +0.000 C 
ATOM     32  O   UNL     1       2.359  17.858  19.123  0.00  0.00    +0.000 OA
ENDBRANCH  30  32
ENDBRANCH  29  30
ENDBRANCH   1  29
TORSDOF 6
ENDMDL
MODEL 7
REMARK VINA RESULT:      -6.5      0.457      1.507
REMARK  Name = 
REMARK  7 active torsions:
REMARK  status: ('A' for Active; 'I' for Inactive)
REMARK    1  A    between atoms: C_1  and  O_2
REMARK    2  A    between atoms: O_2  and  C_3
REMARK    3  A    between atoms: C_3  and  C_4
REMARK    4  A    between atoms: C_4  and  N_5
REMARK    5  A    between atoms: C_6  and  S_7
REMARK    6  A    between atoms: C_14  and  N_15
REMARK    7  A    between atoms: N_18  and  C_19
REMARK                            x       y       z     vdW  Elec       q    Type
REMARK                         _______ _______ _______ _____ _____    ______ ____
ROOT
ATOM      1  N   UNL     1      -2.379  11.932  21.998  0.00  0.00    +0.000 NA
ATOM      2  C   UNL     1      -1.322  12.559  21.605  0.00  0.00    +0.000 C 
ATOM      3  N   UNL     1      -0.630  12.080  20.510  0.00  0.00    +0.000 N 
ATOM      4  C   UNL     1      -1.060  10.845  19.867  0.00  0.00    +0.000 C 
ATOM      5  C   UNL     1      -0.508  11.062  18.450  0.00  0.00    +0.000 C 
ATOM      6  C   UNL     1       0.761  11.905  18.631  0.00  0.00    +0.000 C 
ATOM      7  C   UNL     1       0.784  12.227  20.136  0.00  0.00    +0.000 C 
ATOM      8  C   UNL     1       1.637  11.154  20.852  0.00  0.00    +0.000 C 
ATOM      9  C   UNL     1       1.078   9.706  20.705  0.00  0.00    +0.000 C 
ATOM     10  C   UNL     1      -0.457   9.708  20.715  0.00  0.00    +0.000 C 
ENDROOT
BRANCH   9  11
ATOM     11  N   UNL     1       1.545   8.978  19.520  0.00  0.00    +0.000 N 
ATOM     12  C   UNL     1       1.834   7.637  19.545  0.00  0.00    +0.000 C 
ATOM     13  O   UNL     1       1.832   6.965  20.565  0.00  0.00    +0.000 OA
ATOM     14  N   UNL     1       2.218   7.187  18.302  0.00  0.00    +0.000 N 
ATOM     15  H   UNL     1       1.335   9.369  18.619  0.00  0.00    +0.000 HD
ATOM     16  H   UNL     1       2.298   7.912  17.605  0.00  0.00    +0.000 HD
BRANCH  14  17
ATOM     17  C   UNL     1       3.142   6.062  18.128  0.00  0.00    +0.000 C 
ATOM     18  C   UNL     1       4.195   6.239  17.021  0.00  0.00    +0.000 C 
ATOM     19  C   UNL     1       5.122   4.995  16.946  0.00  0.00    +0.000 C 
ATOM     20  C   UNL     1       5.839   4.764  18.292  0.00  0.00    +0.000 C 
ATOM     21  C   UNL     1       4.801   4.611  19.412  0.00  0.00    +0.000 C 
ATOM     22  C   UNL     1       3.910   3.391  19.125  0.00  0.00    +0.000 C 
ATOM     23  C   UNL     1       3.226   3.548  17.759  0.00  0.00    +0.000 C 
ATOM     24  C   UNL     1       4.274   3.748  16.650  0.00  0.00    +0.000 C 
ATOM     25  C   UNL     1       2.321   4.780  17.824  0.00  0.00    +0.000 C 
ATOM     26  C   UNL     1       3.938   5.880  19.454  0.00  0.00    +0.000 C 
ENDBRANCH  14  17
ENDBRANCH   9  11
BRANCH   2  27
ATOM     27  S   UNL     1      -0.732  14.038  22.332  0.00  0.00    +0.000 S 
ATOM     28  H   UNL     1      -0.815  13.663  23.609  0.00  0.00    +0.000 HD
ENDBRANCH   2  27
BRANCH   1  29
ATOM     29  C   UNL     1      -3.206  12.262  23.146  0.00  0.00    +0.000 C 
BRANCH  29  30
ATOM     30  C   UNL     1      -4.451  13.053  22.692  0.00  0.00    +0.000 C 
BRANCH  30  32
ATOM     31  C   UNL     1      -5.992  13.053  20.894  0.00  0.00    +0.000 C 
ATOM     32  O   UNL     1      -5.264  12.256  21.820  0.00  0.00    +0.000 OA
ENDBRANCH  30  32
ENDBRANCH  29  30
ENDBRANCH   1  29
TORSDOF 6
ENDMDL
MODEL 8
REMARK VINA RESULT:      -6.5      2.681      3.753
REMARK  Name = 
REMARK  7 active torsions:
REMARK  status: ('A' for Active; 'I' for Inactive)
REMARK    1  A    between atoms: C_1  and  O_2
REMARK    2  A    between atoms: O_2  and  C_3
REMARK    3  A    between atoms: C_3  and  C_4
REMARK    4  A    between atoms: C_4  and  N_5
REMARK    5  A    between atoms: C_6  and  S_7
REMARK    6  A    between atoms: C_14  and  N_15
REMARK    7  A    between atoms: N_18  and  C_19
REMARK                            x       y       z     vdW  Elec       q    Type
REMARK                         _______ _______ _______ _____ _____    ______ ____
ROOT
ATOM      1  N   UNL     1       0.403  13.937  20.580  0.00  0.00    +0.000 NA
ATOM      2  C   UNL     1      -0.607  13.137  20.646  0.00  0.00    +0.000 C 
ATOM      3  N   UNL     1      -0.410  11.848  21.099  0.00  0.00    +0.000 N 
ATOM      4  C   UNL     1       0.935  11.393  21.423  0.00  0.00    +0.000 C 
ATOM      5  C   UNL     1       0.618  10.281  22.435  0.00  0.00    +0.000 C 
ATOM      6  C   UNL     1      -0.735   9.707  21.997  0.00  0.00    +0.000 C 
ATOM      7  C   UNL     1      -1.170  10.617  20.835  0.00  0.00    +0.000 C 
ATOM      8  C   UNL     1      -0.697   9.975  19.509  0.00  0.00    +0.000 C 
ATOM      9  C   UNL     1       0.849   9.813  19.407  0.00  0.00    +0.000 C 
ATOM     10  C   UNL     1       1.569  10.991  20.077  0.00  0.00    +0.000 C 
ENDROOT
BRANCH   9  11
ATOM     11  N   UNL     1       1.380   8.559  19.953  0.00  0.00    +0.000 N 
ATOM     12  C   UNL     1       2.187   7.721  19.226  0.00  0.00    +0.000 C 
ATOM     13  O   UNL     1       2.444   7.889  18.043  0.00  0.00    +0.000 OA
ATOM     14  N   UNL     1       2.577   6.632  19.973  0.00  0.00    +0.000 N 
ATOM     15  H   UNL     1       1.436   8.472  20.952  0.00  0.00    +0.000 HD
ATOM     16  H   UNL     1       2.155   6.587  20.889  0.00  0.00    +0.000 HD
BRANCH  14  17
ATOM     17  C   UNL     1       2.873   5.332  19.366  0.00  0.00    +0.000 C 
ATOM     18  C   UNL     1       4.328   5.134  18.908  0.00  0.00    +0.000 C 
ATOM     19  C   UNL     1       4.521   3.717  18.301  0.00  0.00    +0.000 C 
ATOM     20  C   UNL     1       4.163   2.627  19.329  0.00  0.00    +0.000 C 
ATOM     21  C   UNL     1       2.720   2.825  19.815  0.00  0.00    +0.000 C 
ATOM     22  C   UNL     1       1.754   2.702  18.625  0.00  0.00    +0.000 C 
ATOM     23  C   UNL     1       2.118   3.729  17.543  0.00  0.00    +0.000 C 
ATOM     24  C   UNL     1       3.580   3.550  17.097  0.00  0.00    +0.000 C 
ATOM     25  C   UNL     1       1.941   5.126  18.142  0.00  0.00    +0.000 C 
ATOM     26  C   UNL     1       2.602   4.227  20.429  0.00  0.00    +0.000 C 
ENDBRANCH  14  17
ENDBRANCH   9  11
BRANCH   2  27
ATOM     27  S   UNL     1      -2.251  13.601  20.261  0.00  0.00    +0.000 S 
ATOM     28  H   UNL     1      -2.321  14.690  21.028  0.00  0.00    +0.000 HD
ENDBRANCH   2  27
BRANCH   1  29
ATOM     29  C   UNL     1       0.395  15.306  20.094  0.00  0.00    +0.000 C 
BRANCH  29  30
ATOM     30  C   UNL     1       1.441  15.476  18.972  0.00  0.00    +0.000 C 
BRANCH  30  32
ATOM     31  C   UNL     1      -0.234  17.012  18.303  0.00  0.00    +0.000 C 
ATOM     32  O   UNL     1       1.122  16.609  18.154  0.00  0.00    +0.000 OA
ENDBRANCH  30  32
ENDBRANCH  29  30
ENDBRANCH   1  29
TORSDOF 6
ENDMDL
MODEL 9
REMARK VINA RESULT:      -6.5      2.615      4.042
REMARK  Name = 
REMARK  7 active torsions:
REMARK  status: ('A' for Active; 'I' for Inactive)
REMARK    1  A    between atoms: C_1  and  O_2
REMARK    2  A    between atoms: O_2  and  C_3
REMARK    3  A    between atoms: C_3  and  C_4
REMARK    4  A    between atoms: C_4  and  N_5
REMARK    5  A    between atoms: C_6  and  S_7
REMARK    6  A    between atoms: C_14  and  N_15
REMARK    7  A    between atoms: N_18  and  C_19
REMARK                            x       y       z     vdW  Elec       q    Type
REMARK                         _______ _______ _______ _____ _____    ______ ____
ROOT
ATOM      1  N   UNL     1      -0.066  14.126  20.156  0.00  0.00    +0.000 NA
ATOM      2  C   UNL     1      -0.974  13.233  20.366  0.00  0.00    +0.000 C 
ATOM      3  N   UNL     1      -0.597  12.000  20.858  0.00  0.00    +0.000 N 
ATOM      4  C   UNL     1       0.815  11.704  21.062  0.00  0.00    +0.000 C 
ATOM      5  C   UNL     1       0.719  10.627  22.154  0.00  0.00    +0.000 C 
ATOM      6  C   UNL     1      -0.602   9.894  21.888  0.00  0.00    +0.000 C 
ATOM      7  C   UNL     1      -1.243  10.686  20.734  0.00  0.00    +0.000 C 
ATOM      8  C   UNL     1      -0.837  10.017  19.400  0.00  0.00    +0.000 C 
ATOM      9  C   UNL     1       0.701  10.006  19.145  0.00  0.00    +0.000 C 
ATOM     10  C   UNL     1       1.353  11.289  19.679  0.00  0.00    +0.000 C 
ENDROOT
BRANCH   9  11
ATOM     11  N   UNL     1       1.413   8.847  19.694  0.00  0.00    +0.000 N 
ATOM     12  C   UNL     1       2.078   7.947  18.901  0.00  0.00    +0.000 C 
ATOM     13  O   UNL     1       2.046   7.970  17.679  0.00  0.00    +0.000 OA
ATOM     14  N   UNL     1       2.690   6.973  19.657  0.00  0.00    +0.000 N 
ATOM     15  H   UNL     1       1.702   8.889  20.655  0.00  0.00    +0.000 HD
ATOM     16  H   UNL     1       2.493   7.031  20.645  0.00  0.00    +0.000 HD
BRANCH  14  17
ATOM     17  C   UNL     1       2.912   5.615  19.153  0.00  0.00    +0.000 C 
ATOM     18  C   UNL     1       2.008   5.189  17.985  0.00  0.00    +0.000 C 
ATOM     19  C   UNL     1       2.350   3.744  17.529  0.00  0.00    +0.000 C 
ATOM     20  C   UNL     1       3.823   3.642  17.089  0.00  0.00    +0.000 C 
ATOM     21  C   UNL     1       4.740   4.088  18.237  0.00  0.00    +0.000 C 
ATOM     22  C   UNL     1       4.533   3.164  19.449  0.00  0.00    +0.000 C 
ATOM     23  C   UNL     1       3.060   3.183  19.881  0.00  0.00    +0.000 C 
ATOM     24  C   UNL     1       2.148   2.779  18.709  0.00  0.00    +0.000 C 
ATOM     25  C   UNL     1       2.716   4.608  20.319  0.00  0.00    +0.000 C 
ATOM     26  C   UNL     1       4.373   5.529  18.620  0.00  0.00    +0.000 C 
ENDBRANCH  14  17
ENDBRANCH   9  11
BRANCH   2  27
ATOM     27  S   UNL     1      -2.687  13.505  20.131  0.00  0.00    +0.000 S 
ATOM     28  H   UNL     1      -3.034  13.624  21.413  0.00  0.00    +0.000 HD
ENDBRANCH   2  27
BRANCH   1  29
ATOM     29  C   UNL     1      -0.267  15.456  19.608  0.00  0.00    +0.000 C 
BRANCH  29  30
ATOM     30  C   UNL     1       1.076  16.036  19.119  0.00  0.00    +0.000 C 
BRANCH  30  32
ATOM     31  C   UNL     1       3.150  15.481  18.119  0.00  0.00    +0.000 C 
ATOM     32  O   UNL     1       1.832  15.038  18.421  0.00  0.00    +0.000 OA
ENDBRANCH  30  32
ENDBRANCH  29  30
ENDBRANCH   1  29
TORSDOF 6
ENDMDL
