MODEL 1
REMARK VINA RESULT:      -8.2      0.000      0.000
REMARK  Name = 
REMARK  4 active torsions:
REMARK  status: ('A' for Active; 'I' for Inactive)
REMARK    1  A    between atoms: C_1  and  C_2
REMARK    2  A    between atoms: C_5  and  N_6
REMARK    3  A    between atoms: C_11  and  C_12
REMARK    4  A    between atoms: C_21  and  S_22
REMARK                            x       y       z     vdW  Elec       q    Type
REMARK                         _______ _______ _______ _____ _____    ______ ____
ROOT
ATOM      1  N   UNL     1       5.494   4.532  17.792  0.00  0.00    +0.000 N 
ATOM      2  C   UNL     1       5.239   3.624  16.816  0.00  0.00    +0.000 C 
ATOM      3  O   UNL     1       5.785   3.375  15.765  0.00  0.00    +0.000 OA
ATOM      4  C   UNL     1       4.007   3.083  17.585  0.00  0.00    +0.000 C 
ATOM      5 CL   UNL     1       2.465   3.150  16.664  0.00  0.00    +0.000 Cl
ATOM      6  C   UNL     1       4.369   4.154  18.666  0.00  0.00    +0.000 C 
ENDROOT
BRANCH   6   7
ATOM      7  C   UNL     1       3.351   5.334  19.029  0.00  0.00    +0.000 A 
ATOM      8  C   UNL     1       3.236   6.485  18.220  0.00  0.00    +0.000 A 
ATOM      9  C   UNL     1       2.471   7.593  18.599  0.00  0.00    +0.000 A 
ATOM     10  C   UNL     1       2.394   8.745  17.794  0.00  0.00    +0.000 A 
ATOM     11  C   UNL     1       1.668   9.854  18.226  0.00  0.00    +0.000 A 
ATOM     12  C   UNL     1       1.025   9.814  19.456  0.00  0.00    +0.000 A 
ATOM     13  C   UNL     1       1.093   8.658  20.241  0.00  0.00    +0.000 A 
ATOM     14  C   UNL     1       1.804   7.537  19.831  0.00  0.00    +0.000 A 
ATOM     15  N   UNL     1       1.848   6.445  20.613  0.00  0.00    +0.000 NA
ATOM     16  C   UNL     1       2.591   5.383  20.206  0.00  0.00    +0.000 A 
BRANCH  16  17
ATOM     17  S   UNL     1       2.580   4.027  21.363  0.00  0.00    +0.000 S 
ATOM     18  H   UNL     1       2.286   3.108  20.433  0.00  0.00    +0.000 HD
ENDBRANCH  16  17
ENDBRANCH   6   7
BRANCH   1  23
ATOM     19  C   UNL     1       8.685   9.242  18.271  0.00  0.00    +0.000 C 
ATOM     20  C   UNL     1       7.876   7.991  18.107  0.00  0.00    +0.000 A 
ATOM     21  C   UNL     1       6.877   7.904  17.134  0.00  0.00    +0.000 A 
ATOM     22  C   UNL     1       6.120   6.736  16.995  0.00  0.00    +0.000 A 
ATOM     23  C   UNL     1       6.331   5.651  17.844  0.00  0.00    +0.000 A 
ATOM     24  C   UNL     1       7.357   5.722  18.795  0.00  0.00    +0.000 A 
ATOM     25  C   UNL     1       8.124   6.884  18.924  0.00  0.00    +0.000 A 
ENDBRANCH   1  23
TORSDOF 3
ENDMDL
MODEL 2
REMARK VINA RESULT:      -7.8      0.271      1.019
REMARK  Name = 
REMARK  4 active torsions:
REMARK  status: ('A' for Active; 'I' for Inactive)
REMARK    1  A    between atoms: C_1  and  C_2
REMARK    2  A    between atoms: C_5  and  N_6
REMARK    3  A    between atoms: C_11  and  C_12
REMARK    4  A    between atoms: C_21  and  S_22
REMARK                            x       y       z     vdW  Elec       q    Type
REMARK                         _______ _______ _______ _____ _____    ______ ____
ROOT
ATOM      1  N   UNL     1       5.400   4.661  17.909  0.00  0.00    +0.000 N 
ATOM      2  C   UNL     1       5.170   3.787  16.896  0.00  0.00    +0.000 C 
ATOM      3  O   UNL     1       5.719   3.602  15.833  0.00  0.00    +0.000 OA
ATOM      4  C   UNL     1       3.961   3.172  17.646  0.00  0.00    +0.000 C 
ATOM      5 CL   UNL     1       2.413   3.226  16.735  0.00  0.00    +0.000 Cl
ATOM      6  C   UNL     1       4.293   4.208  18.770  0.00  0.00    +0.000 C 
ENDROOT
BRANCH   6   7
ATOM      7  C   UNL     1       3.237   5.337  19.187  0.00  0.00    +0.000 A 
ATOM      8  C   UNL     1       3.100   6.530  18.445  0.00  0.00    +0.000 A 
ATOM      9  C   UNL     1       2.300   7.592  18.878  0.00  0.00    +0.000 A 
ATOM     10  C   UNL     1       2.200   8.787  18.140  0.00  0.00    +0.000 A 
ATOM     11  C   UNL     1       1.438   9.848  18.626  0.00  0.00    +0.000 A 
ATOM     12  C   UNL     1       0.781   9.718  19.842  0.00  0.00    +0.000 A 
ATOM     13  C   UNL     1       0.872   8.521  20.559  0.00  0.00    +0.000 A 
ATOM     14  C   UNL     1       1.619   7.445  20.094  0.00  0.00    +0.000 A 
ATOM     15  N   UNL     1       1.685   6.311  20.812  0.00  0.00    +0.000 NA
ATOM     16  C   UNL     1       2.462   5.296  20.355  0.00  0.00    +0.000 A 
BRANCH  16  17
ATOM     17  S   UNL     1       2.475   3.874  21.430  0.00  0.00    +0.000 S 
ATOM     18  H   UNL     1       3.776   3.990  21.729  0.00  0.00    +0.000 HD
ENDBRANCH  16  17
ENDBRANCH   6   7
BRANCH   1  23
ATOM     19  C   UNL     1       8.872   9.192  18.017  0.00  0.00    +0.000 C 
ATOM     20  C   UNL     1       7.937   8.020  18.029  0.00  0.00    +0.000 A 
ATOM     21  C   UNL     1       8.160   6.933  18.877  0.00  0.00    +0.000 A 
ATOM     22  C   UNL     1       7.288   5.839  18.875  0.00  0.00    +0.000 A 
ATOM     23  C   UNL     1       6.199   5.805  18.005  0.00  0.00    +0.000 A 
ATOM     24  C   UNL     1       5.953   6.910  17.181  0.00  0.00    +0.000 A 
ATOM     25  C   UNL     1       6.816   8.010  17.194  0.00  0.00    +0.000 A 
ENDBRANCH   1  23
TORSDOF 3
ENDMDL
MODEL 3
REMARK VINA RESULT:      -7.2      1.455      2.011
REMARK  Name = 
REMARK  4 active torsions:
REMARK  status: ('A' for Active; 'I' for Inactive)
REMARK    1  A    between atoms: C_1  and  C_2
REMARK    2  A    between atoms: C_5  and  N_6
REMARK    3  A    between atoms: C_11  and  C_12
REMARK    4  A    between atoms: C_21  and  S_22
REMARK                            x       y       z     vdW  Elec       q    Type
REMARK                         _______ _______ _______ _____ _____    ______ ____
ROOT
ATOM      1  N   UNL     1       6.930   5.522  16.998  0.00  0.00    +0.000 N 
ATOM      2  C   UNL     1       6.958   5.073  15.717  0.00  0.00    +0.000 C 
ATOM      3  O   UNL     1       7.588   5.416  14.742  0.00  0.00    +0.000 OA
ATOM      4  C   UNL     1       5.887   3.997  16.028  0.00  0.00    +0.000 C 
ATOM      5 CL   UNL     1       4.415   4.093  15.001  0.00  0.00    +0.000 Cl
ATOM      6  C   UNL     1       5.915   4.570  17.483  0.00  0.00    +0.000 C 
ENDROOT
BRANCH   6   7
ATOM      7  C   UNL     1       4.609   5.228  18.135  0.00  0.00    +0.000 A 
ATOM      8  C   UNL     1       4.121   6.481  17.706  0.00  0.00    +0.000 A 
ATOM      9  C   UNL     1       3.079   7.142  18.364  0.00  0.00    +0.000 A 
ATOM     10  C   UNL     1       2.626   8.406  17.941  0.00  0.00    +0.000 A 
ATOM     11  C   UNL     1       1.624   9.065  18.651  0.00  0.00    +0.000 A 
ATOM     12  C   UNL     1       1.078   8.466  19.779  0.00  0.00    +0.000 A 
ATOM     13  C   UNL     1       1.522   7.202  20.181  0.00  0.00    +0.000 A 
ATOM     14  C   UNL     1       2.515   6.521  19.487  0.00  0.00    +0.000 A 
ATOM     15  N   UNL     1       2.918   5.309  19.904  0.00  0.00    +0.000 NA
ATOM     16  C   UNL     1       3.923   4.690  19.233  0.00  0.00    +0.000 A 
BRANCH  16  17
ATOM     17  S   UNL     1       4.369   3.109  19.925  0.00  0.00    +0.000 S 
ATOM     18  H   UNL     1       3.578   2.413  19.096  0.00  0.00    +0.000 HD
ENDBRANCH  16  17
ENDBRANCH   6   7
BRANCH   1  23
ATOM     19  C   UNL     1       9.326  10.181  19.269  0.00  0.00    +0.000 C 
ATOM     20  C   UNL     1       8.658   8.963  18.704  0.00  0.00    +0.000 A 
ATOM     21  C   UNL     1       8.755   7.727  19.348  0.00  0.00    +0.000 A 
ATOM     22  C   UNL     1       8.137   6.594  18.809  0.00  0.00    +0.000 A 
ATOM     23  C   UNL     1       7.440   6.674  17.604  0.00  0.00    +0.000 A 
ATOM     24  C   UNL     1       7.310   7.920  16.977  0.00  0.00    +0.000 A 
ATOM     25  C   UNL     1       7.915   9.056  17.524  0.00  0.00    +0.000 A 
ENDBRANCH   1  23
TORSDOF 3
ENDMDL
MODEL 4
REMARK VINA RESULT:      -7.0      1.436      1.696
REMARK  Name = 
REMARK  4 active torsions:
REMARK  status: ('A' for Active; 'I' for Inactive)
REMARK    1  A    between atoms: C_1  and  C_2
REMARK    2  A    between atoms: C_5  and  N_6
REMARK    3  A    between atoms: C_11  and  C_12
REMARK    4  A    between atoms: C_21  and  S_22
REMARK                            x       y       z     vdW  Elec       q    Type
REMARK                         _______ _______ _______ _____ _____    ______ ____
ROOT
ATOM      1  N   UNL     1       6.936   5.326  16.879  0.00  0.00    +0.000 N 
ATOM      2  C   UNL     1       6.916   4.856  15.606  0.00  0.00    +0.000 C 
ATOM      3  O   UNL     1       7.551   5.142  14.617  0.00  0.00    +0.000 OA
ATOM      4  C   UNL     1       5.782   3.856  15.950  0.00  0.00    +0.000 C 
ATOM      5 CL   UNL     1       4.305   4.030  14.942  0.00  0.00    +0.000 Cl
ATOM      6  C   UNL     1       5.869   4.450  17.394  0.00  0.00    +0.000 C 
ENDROOT
BRANCH   6   7
ATOM      7  C   UNL     1       4.618   5.200  18.053  0.00  0.00    +0.000 A 
ATOM      8  C   UNL     1       4.160   6.442  17.563  0.00  0.00    +0.000 A 
ATOM      9  C   UNL     1       3.174   7.187  18.217  0.00  0.00    +0.000 A 
ATOM     10  C   UNL     1       2.752   8.439  17.731  0.00  0.00    +0.000 A 
ATOM     11  C   UNL     1       1.806   9.182  18.435  0.00  0.00    +0.000 A 
ATOM     12  C   UNL     1       1.286   8.679  19.620  0.00  0.00    +0.000 A 
ATOM     13  C   UNL     1       1.698   7.426  20.086  0.00  0.00    +0.000 A 
ATOM     14  C   UNL     1       2.633   6.662  19.399  0.00  0.00    +0.000 A 
ATOM     15  N   UNL     1       3.006   5.463  19.879  0.00  0.00    +0.000 NA
ATOM     16  C   UNL     1       3.958   4.763  19.210  0.00  0.00    +0.000 A 
BRANCH  16  17
ATOM     17  S   UNL     1       4.371   3.212  19.985  0.00  0.00    +0.000 S 
ATOM     18  H   UNL     1       5.465   3.693  20.591  0.00  0.00    +0.000 HD
ENDBRANCH  16  17
ENDBRANCH   6   7
BRANCH   1  23
ATOM     19  C   UNL     1       9.025   9.988  19.428  0.00  0.00    +0.000 C 
ATOM     20  C   UNL     1       8.519   8.760  18.733  0.00  0.00    +0.000 A 
ATOM     21  C   UNL     1       7.961   8.838  17.454  0.00  0.00    +0.000 A 
ATOM     22  C   UNL     1       7.482   7.689  16.816  0.00  0.00    +0.000 A 
ATOM     23  C   UNL     1       7.527   6.452  17.459  0.00  0.00    +0.000 A 
ATOM     24  C   UNL     1       8.121   6.367  18.725  0.00  0.00    +0.000 A 
ATOM     25  C   UNL     1       8.613   7.513  19.356  0.00  0.00    +0.000 A 
ENDBRANCH   1  23
TORSDOF 3
ENDMDL
MODEL 5
REMARK VINA RESULT:      -6.7      8.984     10.727
REMARK  Name = 
REMARK  4 active torsions:
REMARK  status: ('A' for Active; 'I' for Inactive)
REMARK    1  A    between atoms: C_1  and  C_2
REMARK    2  A    between atoms: C_5  and  N_6
REMARK    3  A    between atoms: C_11  and  C_12
REMARK    4  A    between atoms: C_21  and  S_22
REMARK                            x       y       z     vdW  Elec       q    Type
REMARK                         _______ _______ _______ _____ _____    ______ ____
ROOT
ATOM      1  N   UNL     1      -1.143  14.453  21.348  0.00  0.00    +0.000 N 
ATOM      2  C   UNL     1      -0.148  13.908  22.093  0.00  0.00    +0.000 C 
ATOM      3  O   UNL     1       1.010  14.215  22.265  0.00  0.00    +0.000 OA
ATOM      4  C   UNL     1      -1.086  12.780  22.595  0.00  0.00    +0.000 C 
ATOM      5 CL   UNL     1      -0.501  11.117  22.250  0.00  0.00    +0.000 Cl
ATOM      6  C   UNL     1      -2.178  13.470  21.712  0.00  0.00    +0.000 C 
ENDROOT
BRANCH   6   7
ATOM      7  C   UNL     1      -2.856  12.695  20.486  0.00  0.00    +0.000 A 
ATOM      8  C   UNL     1      -2.082  11.979  19.547  0.00  0.00    +0.000 A 
ATOM      9  C   UNL     1      -2.636  11.429  18.387  0.00  0.00    +0.000 A 
ATOM     10  C   UNL     1      -1.843  10.745  17.445  0.00  0.00    +0.000 A 
ATOM     11  C   UNL     1      -2.414  10.256  16.271  0.00  0.00    +0.000 A 
ATOM     12  C   UNL     1      -3.769  10.450  16.038  0.00  0.00    +0.000 A 
ATOM     13  C   UNL     1      -4.552  11.114  16.988  0.00  0.00    +0.000 A 
ATOM     14  C   UNL     1      -4.009  11.605  18.169  0.00  0.00    +0.000 A 
ATOM     15  N   UNL     1      -4.792  12.241  19.057  0.00  0.00    +0.000 NA
ATOM     16  C   UNL     1      -4.223  12.751  20.178  0.00  0.00    +0.000 A 
BRANCH  16  17
ATOM     17  S   UNL     1      -5.380  13.594  21.240  0.00  0.00    +0.000 S 
ATOM     18  H   UNL     1      -6.238  13.872  20.249  0.00  0.00    +0.000 HD
ENDBRANCH  16  17
ENDBRANCH   6   7
BRANCH   1  23
ATOM     19  C   UNL     1      -0.858  18.577  17.409  0.00  0.00    +0.000 C 
ATOM     20  C   UNL     1      -0.973  17.476  18.420  0.00  0.00    +0.000 A 
ATOM     21  C   UNL     1      -1.869  17.572  19.489  0.00  0.00    +0.000 A 
ATOM     22  C   UNL     1      -1.963  16.545  20.433  0.00  0.00    +0.000 A 
ATOM     23  C   UNL     1      -1.143  15.421  20.339  0.00  0.00    +0.000 A 
ATOM     24  C   UNL     1      -0.272  15.305  19.248  0.00  0.00    +0.000 A 
ATOM     25  C   UNL     1      -0.189  16.325  18.296  0.00  0.00    +0.000 A 
ENDBRANCH   1  23
TORSDOF 3
ENDMDL
MODEL 6
REMARK VINA RESULT:      -6.5      4.884      8.501
REMARK  Name = 
REMARK  4 active torsions:
REMARK  status: ('A' for Active; 'I' for Inactive)
REMARK    1  A    between atoms: C_1  and  C_2
REMARK    2  A    between atoms: C_5  and  N_6
REMARK    3  A    between atoms: C_11  and  C_12
REMARK    4  A    between atoms: C_21  and  S_22
REMARK                            x       y       z     vdW  Elec       q    Type
REMARK                         _______ _______ _______ _____ _____    ______ ____
ROOT
ATOM      1  N   UNL     1      -0.938  12.239  19.608  0.00  0.00    +0.000 N 
ATOM      2  C   UNL     1      -0.333  13.454  19.593  0.00  0.00    +0.000 C 
ATOM      3  O   UNL     1      -0.419  14.403  18.848  0.00  0.00    +0.000 OA
ATOM      4  C   UNL     1       0.477  13.110  20.870  0.00  0.00    +0.000 C 
ATOM      5 CL   UNL     1       2.259  13.233  20.675  0.00  0.00    +0.000 Cl
ATOM      6  C   UNL     1      -0.265  11.734  20.817  0.00  0.00    +0.000 C 
ENDROOT
BRANCH   6   7
ATOM      7  C   UNL     1       0.548  10.367  20.635  0.00  0.00    +0.000 A 
ATOM      8  C   UNL     1       1.215  10.060  19.430  0.00  0.00    +0.000 A 
ATOM      9  C   UNL     1       1.796   8.810  19.194  0.00  0.00    +0.000 A 
ATOM     10  C   UNL     1       2.430   8.511  17.973  0.00  0.00    +0.000 A 
ATOM     11  C   UNL     1       2.951   7.238  17.748  0.00  0.00    +0.000 A 
ATOM     12  C   UNL     1       2.838   6.269  18.735  0.00  0.00    +0.000 A 
ATOM     13  C   UNL     1       2.222   6.580  19.951  0.00  0.00    +0.000 A 
ATOM     14  C   UNL     1       1.701   7.843  20.204  0.00  0.00    +0.000 A 
ATOM     15  N   UNL     1       1.114   8.105  21.384  0.00  0.00    +0.000 NA
ATOM     16  C   UNL     1       0.572   9.334  21.583  0.00  0.00    +0.000 A 
BRANCH  16  17
ATOM     17  S   UNL     1      -0.199   9.519  23.179  0.00  0.00    +0.000 S 
ATOM     18  H   UNL     1       0.948   9.810  23.809  0.00  0.00    +0.000 HD
ENDBRANCH  16  17
ENDBRANCH   6   7
BRANCH   1  23
ATOM     19  C   UNL     1      -3.961   9.711  15.475  0.00  0.00    +0.000 C 
ATOM     20  C   UNL     1      -3.185  10.341  16.593  0.00  0.00    +0.000 A 
ATOM     21  C   UNL     1      -3.794  11.242  17.471  0.00  0.00    +0.000 A 
ATOM     22  C   UNL     1      -3.061  11.833  18.505  0.00  0.00    +0.000 A 
ATOM     23  C   UNL     1      -1.703  11.555  18.658  0.00  0.00    +0.000 A 
ATOM     24  C   UNL     1      -1.101  10.624  17.802  0.00  0.00    +0.000 A 
ATOM     25  C   UNL     1      -1.837  10.021  16.778  0.00  0.00    +0.000 A 
ENDBRANCH   1  23
TORSDOF 3
ENDMDL
MODEL 7
REMARK VINA RESULT:      -6.5      9.082     11.109
REMARK  Name = 
REMARK  4 active torsions:
REMARK  status: ('A' for Active; 'I' for Inactive)
REMARK    1  A    between atoms: C_1  and  C_2
REMARK    2  A    between atoms: C_5  and  N_6
REMARK    3  A    between atoms: C_11  and  C_12
REMARK    4  A    between atoms: C_21  and  S_22
REMARK                            x       y       z     vdW  Elec       q    Type
REMARK                         _______ _______ _______ _____ _____    ______ ____
ROOT
ATOM      1  N   UNL     1      -1.964  14.744  21.792  0.00  0.00    +0.000 N 
ATOM      2  C   UNL     1      -1.317  14.261  22.882  0.00  0.00    +0.000 C 
ATOM      3  O   UNL     1      -0.250  14.527  23.388  0.00  0.00    +0.000 OA
ATOM      4  C   UNL     1      -2.470  13.267  23.176  0.00  0.00    +0.000 C 
ATOM      5 CL   UNL     1      -1.969  11.543  23.243  0.00  0.00    +0.000 Cl
ATOM      6  C   UNL     1      -3.151  13.880  21.908  0.00  0.00    +0.000 C 
ENDROOT
BRANCH   6   7
ATOM      7  C   UNL     1      -3.473  12.974  20.628  0.00  0.00    +0.000 A 
ATOM      8  C   UNL     1      -2.469  12.215  19.989  0.00  0.00    +0.000 A 
ATOM      9  C   UNL     1      -2.692  11.544  18.783  0.00  0.00    +0.000 A 
ATOM     10  C   UNL     1      -1.670  10.817  18.143  0.00  0.00    +0.000 A 
ATOM     11  C   UNL     1      -1.908  10.205  16.914  0.00  0.00    +0.000 A 
ATOM     12  C   UNL     1      -3.161  10.319  16.326  0.00  0.00    +0.000 A 
ATOM     13  C   UNL     1      -4.176  11.027  16.977  0.00  0.00    +0.000 A 
ATOM     14  C   UNL     1      -3.966  11.641  18.206  0.00  0.00    +0.000 A 
ATOM     15  N   UNL     1      -4.965  12.315  18.800  0.00  0.00    +0.000 NA
ATOM     16  C   UNL     1      -4.715  12.944  19.977  0.00  0.00    +0.000 A 
BRANCH  16  17
ATOM     17  S   UNL     1      -6.124  13.823  20.624  0.00  0.00    +0.000 S 
ATOM     18  H   UNL     1      -6.949  12.772  20.525  0.00  0.00    +0.000 HD
ENDBRANCH  16  17
ENDBRANCH   6   7
BRANCH   1  23
ATOM     19  C   UNL     1      -0.517  17.882  17.245  0.00  0.00    +0.000 C 
ATOM     20  C   UNL     1      -0.860  17.080  18.465  0.00  0.00    +0.000 A 
ATOM     21  C   UNL     1      -0.145  15.924  18.789  0.00  0.00    +0.000 A 
ATOM     22  C   UNL     1      -0.478  15.177  19.923  0.00  0.00    +0.000 A 
ATOM     23  C   UNL     1      -1.548  15.557  20.732  0.00  0.00    +0.000 A 
ATOM     24  C   UNL     1      -2.242  16.735  20.429  0.00  0.00    +0.000 A 
ATOM     25  C   UNL     1      -1.900  17.491  19.304  0.00  0.00    +0.000 A 
ENDBRANCH   1  23
TORSDOF 3
ENDMDL
MODEL 8
REMARK VINA RESULT:      -6.4      9.448     11.587
REMARK  Name = 
REMARK  4 active torsions:
REMARK  status: ('A' for Active; 'I' for Inactive)
REMARK    1  A    between atoms: C_1  and  C_2
REMARK    2  A    between atoms: C_5  and  N_6
REMARK    3  A    between atoms: C_11  and  C_12
REMARK    4  A    between atoms: C_21  and  S_22
REMARK                            x       y       z     vdW  Elec       q    Type
REMARK                         _______ _______ _______ _____ _____    ______ ____
ROOT
ATOM      1  N   UNL     1      -4.977  13.315  21.691  0.00  0.00    +0.000 N 
ATOM      2  C   UNL     1      -5.866  12.786  22.569  0.00  0.00    +0.000 C 
ATOM      3  O   UNL     1      -5.780  12.470  23.734  0.00  0.00    +0.000 OA
ATOM      4  C   UNL     1      -6.977  12.757  21.488  0.00  0.00    +0.000 C 
ATOM      5 CL   UNL     1      -7.687  11.132  21.193  0.00  0.00    +0.000 Cl
ATOM      6  C   UNL     1      -5.894  13.368  20.539  0.00  0.00    +0.000 C 
ENDROOT
BRANCH   6   7
ATOM      7  C   UNL     1      -5.407  12.583  19.232  0.00  0.00    +0.000 A 
ATOM      8  C   UNL     1      -4.235  11.796  19.238  0.00  0.00    +0.000 A 
ATOM      9  C   UNL     1      -3.709  11.231  18.072  0.00  0.00    +0.000 A 
ATOM     10  C   UNL     1      -2.521  10.475  18.091  0.00  0.00    +0.000 A 
ATOM     11  C   UNL     1      -1.992   9.971  16.904  0.00  0.00    +0.000 A 
ATOM     12  C   UNL     1      -2.643  10.223  15.704  0.00  0.00    +0.000 A 
ATOM     13  C   UNL     1      -3.832  10.960  15.697  0.00  0.00    +0.000 A 
ATOM     14  C   UNL     1      -4.385  11.467  16.867  0.00  0.00    +0.000 A 
ATOM     15  N   UNL     1      -5.527  12.173  16.821  0.00  0.00    +0.000 NA
ATOM     16  C   UNL     1      -6.016  12.696  17.974  0.00  0.00    +0.000 A 
BRANCH  16  17
ATOM     17  S   UNL     1      -7.515  13.633  17.748  0.00  0.00    +0.000 S 
ATOM     18  H   UNL     1      -8.006  13.327  18.957  0.00  0.00    +0.000 HD
ENDBRANCH  16  17
ENDBRANCH   6   7
BRANCH   1  23
ATOM     19  C   UNL     1       0.709  13.820  21.540  0.00  0.00    +0.000 C 
ATOM     20  C   UNL     1      -0.783  13.705  21.627  0.00  0.00    +0.000 A 
ATOM     21  C   UNL     1      -1.384  12.598  22.234  0.00  0.00    +0.000 A 
ATOM     22  C   UNL     1      -2.777  12.494  22.302  0.00  0.00    +0.000 A 
ATOM     23  C   UNL     1      -3.588  13.477  21.738  0.00  0.00    +0.000 A 
ATOM     24  C   UNL     1      -2.988  14.604  21.163  0.00  0.00    +0.000 A 
ATOM     25  C   UNL     1      -1.596  14.717  21.108  0.00  0.00    +0.000 A 
ENDBRANCH   1  23
TORSDOF 3
ENDMDL
MODEL 9
REMARK VINA RESULT:      -6.3      5.318      9.020
REMARK  Name = 
REMARK  4 active torsions:
REMARK  status: ('A' for Active; 'I' for Inactive)
REMARK    1  A    between atoms: C_1  and  C_2
REMARK    2  A    between atoms: C_5  and  N_6
REMARK    3  A    between atoms: C_11  and  C_12
REMARK    4  A    between atoms: C_21  and  S_22
REMARK                            x       y       z     vdW  Elec       q    Type
REMARK                         _______ _______ _______ _____ _____    ______ ____
ROOT
ATOM      1  N   UNL     1      -1.761  12.587  19.974  0.00  0.00    +0.000 N 
ATOM      2  C   UNL     1      -1.347  13.845  20.271  0.00  0.00    +0.000 C 
ATOM      3  O   UNL     1      -1.500  14.911  19.718  0.00  0.00    +0.000 OA
ATOM      4  C   UNL     1      -0.625  13.349  21.550  0.00  0.00    +0.000 C 
ATOM      5 CL   UNL     1       1.128  13.735  21.613  0.00  0.00    +0.000 Cl
ATOM      6  C   UNL     1      -1.143  11.931  21.139  0.00  0.00    +0.000 C 
ENDROOT
BRANCH   6   7
ATOM      7  C   UNL     1      -0.120  10.747  20.803  0.00  0.00    +0.000 A 
ATOM      8  C   UNL     1       0.489  10.636  19.534  0.00  0.00    +0.000 A 
ATOM      9  C   UNL     1       1.261   9.528  19.169  0.00  0.00    +0.000 A 
ATOM     10  C   UNL     1       1.835   9.419  17.889  0.00  0.00    +0.000 A 
ATOM     11  C   UNL     1       2.552   8.277  17.537  0.00  0.00    +0.000 A 
ATOM     12  C   UNL     1       2.693   7.248  18.457  0.00  0.00    +0.000 A 
ATOM     13  C   UNL     1       2.134   7.372  19.734  0.00  0.00    +0.000 A 
ATOM     14  C   UNL     1       1.421   8.503  20.112  0.00  0.00    +0.000 A 
ATOM     15  N   UNL     1       0.896   8.586  21.346  0.00  0.00    +0.000 NA
ATOM     16  C   UNL     1       0.164   9.682  21.670  0.00  0.00    +0.000 A 
BRANCH  16  17
ATOM     17  S   UNL     1      -0.494   9.632  23.326  0.00  0.00    +0.000 S 
ATOM     18  H   UNL     1       0.516   8.895  23.810  0.00  0.00    +0.000 HD
ENDBRANCH  16  17
ENDBRANCH   6   7
BRANCH   1  23
ATOM     19  C   UNL     1      -3.901   9.955  15.380  0.00  0.00    +0.000 C 
ATOM     20  C   UNL     1      -3.352  10.690  16.567  0.00  0.00    +0.000 A 
ATOM     21  C   UNL     1      -2.085  11.277  16.525  0.00  0.00    +0.000 A 
ATOM     22  C   UNL     1      -1.577  11.952  17.639  0.00  0.00    +0.000 A 
ATOM     23  C   UNL     1      -2.315  12.025  18.819  0.00  0.00    +0.000 A 
ATOM     24  C   UNL     1      -3.601  11.471  18.851  0.00  0.00    +0.000 A 
ATOM     25  C   UNL     1      -4.116  10.809  17.732  0.00  0.00    +0.000 A 
ENDBRANCH   1  23
TORSDOF 3
ENDMDL
