MODEL 1
REMARK VINA RESULT:      -8.9      0.000      0.000
REMARK  Name = 
REMARK  5 active torsions:
REMARK  status: ('A' for Active; 'I' for Inactive)
REMARK    1  A    between atoms: C_2  and  C_5
REMARK    2  A    between atoms: N_3  and  O_4
REMARK    3  A    between atoms: C_8  and  C_9
REMARK    4  A    between atoms: C_9  and  N_10
REMARK    5  A    between atoms: N_23  and  O_24
REMARK                            x       y       z     vdW  Elec       q    Type
REMARK                         _______ _______ _______ _____ _____    ______ ____
ROOT
ATOM      1  N   UNL     1      -3.175  12.026  19.740  0.00  0.00    +0.000 N 
ATOM      2  C   UNL     1      -1.884  12.405  19.326  0.00  0.00    +0.000 C 
ATOM      3  O   UNL     1      -1.472  12.693  18.218  0.00  0.00    +0.000 OA
ATOM      4  C   UNL     1      -1.083  12.257  20.560  0.00  0.00    +0.000 C 
ATOM      5  C   UNL     1      -0.136  11.314  20.458  0.00  0.00    +0.000 C 
ATOM      6  N   UNL     1       0.333  10.808  19.257  0.00  0.00    +0.000 N 
ATOM      7  C   UNL     1       0.963   9.593  19.499  0.00  0.00    +0.000 A 
ATOM      8  C   UNL     1       1.544   8.818  18.521  0.00  0.00    +0.000 A 
ATOM      9  C   UNL     1       2.171   7.647  18.922  0.00  0.00    +0.000 A 
ATOM     10  C   UNL     1       2.169   7.269  20.276  0.00  0.00    +0.000 A 
ATOM     11  C   UNL     1       1.580   8.076  21.264  0.00  0.00    +0.000 A 
ATOM     12  C   UNL     1       1.015   9.272  20.859  0.00  0.00    +0.000 A 
ATOM     13  C   UNL     1       0.337  10.386  21.580  0.00  0.00    +0.000 C 
ATOM     14  N   UNL     1       0.138  10.585  22.843  0.00  0.00    +0.000 NA
ATOM     15  C   UNL     1      -1.961  12.570  21.652  0.00  0.00    +0.000 A 
ATOM     16  C   UNL     1      -1.653  13.086  22.905  0.00  0.00    +0.000 A 
ATOM     17  C   UNL     1      -2.716  13.386  23.733  0.00  0.00    +0.000 A 
ATOM     18  C   UNL     1      -4.034  13.144  23.295  0.00  0.00    +0.000 A 
ATOM     19  C   UNL     1      -4.322  12.624  22.002  0.00  0.00    +0.000 A 
ATOM     20 CL   UNL     1      -5.961  12.415  21.548  0.00  0.00    +0.000 Cl
ATOM     21  C   UNL     1      -3.272  12.365  21.144  0.00  0.00    +0.000 A 
ATOM     22  H   UNL     1      -0.345  10.798  18.494  0.00  0.00    +0.000 HD
ENDROOT
BRANCH  14  23
ATOM     23  O   UNL     1       0.664   9.573  23.650  0.00  0.00    +0.000 OA
ATOM     24  H   UNL     1       0.932  10.057  24.452  0.00  0.00    +0.000 HD
ENDBRANCH  14  23
BRANCH   1  25
ATOM     25  C   UNL     1      -4.142  11.762  18.686  0.00  0.00    +0.000 C 
BRANCH  25  29
ATOM     26  C   UNL     1      -3.313  10.252  14.623  0.00  0.00    +0.000 A 
ATOM     27  C   UNL     1      -2.714   9.631  15.736  0.00  0.00    +0.000 A 
ATOM     28  C   UNL     1      -2.941  10.095  17.061  0.00  0.00    +0.000 A 
ATOM     29  C   UNL     1      -3.781  11.181  17.311  0.00  0.00    +0.000 A 
ATOM     30  C   UNL     1      -4.358  11.806  16.172  0.00  0.00    +0.000 A 
ATOM     31  C   UNL     1      -4.137  11.352  14.859  0.00  0.00    +0.000 A 
BRANCH  26  33
ATOM     32  O   UNL     1      -2.081   9.278  12.818  0.00  0.00    +0.000 OA
ATOM     33  C   UNL     1      -3.147   9.781  13.210  0.00  0.00    +0.000 C 
ATOM     34  N   UNL     1      -4.227   9.899  12.364  0.00  0.00    +0.000 N 
ATOM     35  H   UNL     1      -5.177  10.066  12.670  0.00  0.00    +0.000 HD
BRANCH  34  36
ATOM     36  O   UNL     1      -4.068   9.347  11.069  0.00  0.00    +0.000 OA
ATOM     37  H   UNL     1      -4.847   8.752  10.993  0.00  0.00    +0.000 HD
ENDBRANCH  34  36
ENDBRANCH  26  33
ENDBRANCH  25  29
ENDBRANCH   1  25
TORSDOF 5
ENDMDL
MODEL 2
REMARK VINA RESULT:      -8.2      4.117      7.344
REMARK  Name = 
REMARK  5 active torsions:
REMARK  status: ('A' for Active; 'I' for Inactive)
REMARK    1  A    between atoms: C_2  and  C_5
REMARK    2  A    between atoms: N_3  and  O_4
REMARK    3  A    between atoms: C_8  and  C_9
REMARK    4  A    between atoms: C_9  and  N_10
REMARK    5  A    between atoms: N_23  and  O_24
REMARK                            x       y       z     vdW  Elec       q    Type
REMARK                         _______ _______ _______ _____ _____    ______ ____
ROOT
ATOM      1  N   UNL     1      -2.808  13.603  23.340  0.00  0.00    +0.000 N 
ATOM      2  C   UNL     1      -4.157  13.256  23.553  0.00  0.00    +0.000 C 
ATOM      3  O   UNL     1      -4.635  12.317  24.162  0.00  0.00    +0.000 OA
ATOM      4  C   UNL     1      -4.888  14.252  22.742  0.00  0.00    +0.000 C 
ATOM      5  C   UNL     1      -5.578  13.702  21.734  0.00  0.00    +0.000 C 
ATOM      6  N   UNL     1      -5.920  12.362  21.665  0.00  0.00    +0.000 N 
ATOM      7  C   UNL     1      -6.234  12.048  20.348  0.00  0.00    +0.000 A 
ATOM      8  C   UNL     1      -6.616  10.795  19.924  0.00  0.00    +0.000 A 
ATOM      9  C   UNL     1      -6.937  10.644  18.583  0.00  0.00    +0.000 A 
ATOM     10  C   UNL     1      -6.833  11.734  17.702  0.00  0.00    +0.000 A 
ATOM     11  C   UNL     1      -6.449  13.009  18.151  0.00  0.00    +0.000 A 
ATOM     12  C   UNL     1      -6.195  13.161  19.502  0.00  0.00    +0.000 A 
ATOM     13  C   UNL     1      -5.803  14.321  20.352  0.00  0.00    +0.000 C 
ATOM     14  N   UNL     1      -5.648  15.572  20.063  0.00  0.00    +0.000 NA
ATOM     15  C   UNL     1      -4.103  15.455  22.777  0.00  0.00    +0.000 A 
ATOM     16  C   UNL     1      -4.518  16.776  22.659  0.00  0.00    +0.000 A 
ATOM     17  C   UNL     1      -3.553  17.748  22.830  0.00  0.00    +0.000 A 
ATOM     18  C   UNL     1      -2.219  17.372  23.089  0.00  0.00    +0.000 A 
ATOM     19  C   UNL     1      -1.823  16.011  23.216  0.00  0.00    +0.000 A 
ATOM     20 CL   UNL     1      -0.186  15.663  23.583  0.00  0.00    +0.000 Cl
ATOM     21  C   UNL     1      -2.786  15.029  23.096  0.00  0.00    +0.000 A 
ATOM     22  H   UNL     1      -5.266  11.722  22.117  0.00  0.00    +0.000 HD
ENDROOT
BRANCH  14  23
ATOM     23  O   UNL     1      -5.906  15.865  18.721  0.00  0.00    +0.000 OA
ATOM     24  H   UNL     1      -5.455  16.720  18.598  0.00  0.00    +0.000 HD
ENDBRANCH  14  23
BRANCH   1  25
ATOM     25  C   UNL     1      -1.815  12.622  23.749  0.00  0.00    +0.000 C 
BRANCH  25  29
ATOM     26  C   UNL     1       0.400   9.817  21.161  0.00  0.00    +0.000 A 
ATOM     27  C   UNL     1       0.238  11.158  20.762  0.00  0.00    +0.000 A 
ATOM     28  C   UNL     1      -0.482  12.091  21.558  0.00  0.00    +0.000 A 
ATOM     29  C   UNL     1      -1.047  11.715  22.777  0.00  0.00    +0.000 A 
ATOM     30  C   UNL     1      -0.891  10.351  23.149  0.00  0.00    +0.000 A 
ATOM     31  C   UNL     1      -0.180   9.424  22.366  0.00  0.00    +0.000 A 
BRANCH  26  33
ATOM     32  O   UNL     1       1.427   8.956  19.179  0.00  0.00    +0.000 OA
ATOM     33  C   UNL     1       1.184   8.801  20.387  0.00  0.00    +0.000 C 
ATOM     34  N   UNL     1       1.653   7.700  21.068  0.00  0.00    +0.000 N 
ATOM     35  H   UNL     1       1.703   7.630  22.075  0.00  0.00    +0.000 HD
BRANCH  34  36
ATOM     36  O   UNL     1       2.478   6.816  20.330  0.00  0.00    +0.000 OA
ATOM     37  H   UNL     1       2.055   6.819  19.442  0.00  0.00    +0.000 HD
ENDBRANCH  34  36
ENDBRANCH  26  33
ENDBRANCH  25  29
ENDBRANCH   1  25
TORSDOF 5
ENDMDL
MODEL 3
REMARK VINA RESULT:      -8.2      4.394      6.591
REMARK  Name = 
REMARK  5 active torsions:
REMARK  status: ('A' for Active; 'I' for Inactive)
REMARK    1  A    between atoms: C_2  and  C_5
REMARK    2  A    between atoms: N_3  and  O_4
REMARK    3  A    between atoms: C_8  and  C_9
REMARK    4  A    between atoms: C_9  and  N_10
REMARK    5  A    between atoms: N_23  and  O_24
REMARK                            x       y       z     vdW  Elec       q    Type
REMARK                         _______ _______ _______ _____ _____    ______ ____
ROOT
ATOM      1  N   UNL     1       0.392  11.136  19.454  0.00  0.00    +0.000 N 
ATOM      2  C   UNL     1       0.356  12.395  18.823  0.00  0.00    +0.000 C 
ATOM      3  O   UNL     1       0.239  12.675  17.644  0.00  0.00    +0.000 OA
ATOM      4  C   UNL     1       0.622  13.332  19.935  0.00  0.00    +0.000 C 
ATOM      5  C   UNL     1       1.767  14.009  19.785  0.00  0.00    +0.000 C 
ATOM      6  N   UNL     1       2.438  14.149  18.581  0.00  0.00    +0.000 N 
ATOM      7  C   UNL     1       3.753  14.518  18.842  0.00  0.00    +0.000 A 
ATOM      8  C   UNL     1       4.698  14.739  17.866  0.00  0.00    +0.000 A 
ATOM      9  C   UNL     1       5.960  15.141  18.279  0.00  0.00    +0.000 A 
ATOM     10  C   UNL     1       6.250  15.275  19.649  0.00  0.00    +0.000 A 
ATOM     11  C   UNL     1       5.271  15.053  20.632  0.00  0.00    +0.000 A 
ATOM     12  C   UNL     1       3.999  14.716  20.204  0.00  0.00    +0.000 A 
ATOM     13  C   UNL     1       2.716  14.436  20.908  0.00  0.00    +0.000 C 
ATOM     14  N   UNL     1       2.404  14.496  22.163  0.00  0.00    +0.000 NA
ATOM     15  C   UNL     1       0.046  12.738  21.110  0.00  0.00    +0.000 A 
ATOM     16  C   UNL     1      -0.451  13.355  22.250  0.00  0.00    +0.000 A 
ATOM     17  C   UNL     1      -1.043  12.538  23.192  0.00  0.00    +0.000 A 
ATOM     18  C   UNL     1      -1.098  11.146  22.975  0.00  0.00    +0.000 A 
ATOM     19  C   UNL     1      -0.590  10.540  21.792  0.00  0.00    +0.000 A 
ATOM     20 CL   UNL     1      -0.754   8.845  21.603  0.00  0.00    +0.000 Cl
ATOM     21  C   UNL     1      -0.040  11.350  20.818  0.00  0.00    +0.000 A 
ATOM     22  H   UNL     1       2.329  13.372  17.929  0.00  0.00    +0.000 HD
ENDROOT
BRANCH  14  23
ATOM     23  O   UNL     1       3.466  14.903  22.976  0.00  0.00    +0.000 OA
ATOM     24  H   UNL     1       4.101  15.267  22.333  0.00  0.00    +0.000 HD
ENDBRANCH  14  23
BRANCH   1  25
ATOM     25  C   UNL     1       0.477   9.976  18.580  0.00  0.00    +0.000 C 
BRANCH  25  29
ATOM     26  C   UNL     1       3.364   6.653  18.879  0.00  0.00    +0.000 A 
ATOM     27  C   UNL     1       2.519   6.945  19.966  0.00  0.00    +0.000 A 
ATOM     28  C   UNL     1       1.585   8.017  19.918  0.00  0.00    +0.000 A 
ATOM     29  C   UNL     1       1.462   8.816  18.781  0.00  0.00    +0.000 A 
ATOM     30  C   UNL     1       2.340   8.517  17.703  0.00  0.00    +0.000 A 
ATOM     31  C   UNL     1       3.265   7.458  17.745  0.00  0.00    +0.000 A 
BRANCH  26  33
ATOM     32  O   UNL     1       5.344   5.505  19.578  0.00  0.00    +0.000 OA
ATOM     33  C   UNL     1       4.335   5.511  18.854  0.00  0.00    +0.000 C 
ATOM     34  N   UNL     1       4.055   4.450  18.021  0.00  0.00    +0.000 N 
ATOM     35  H   UNL     1       3.152   4.279  17.598  0.00  0.00    +0.000 HD
BRANCH  34  36
ATOM     36  O   UNL     1       4.936   3.345  18.103  0.00  0.00    +0.000 OA
ATOM     37  H   UNL     1       4.516   2.691  17.500  0.00  0.00    +0.000 HD
ENDBRANCH  34  36
ENDBRANCH  26  33
ENDBRANCH  25  29
ENDBRANCH   1  25
TORSDOF 5
ENDMDL
MODEL 4
REMARK VINA RESULT:      -8.2      3.926      7.305
REMARK  Name = 
REMARK  5 active torsions:
REMARK  status: ('A' for Active; 'I' for Inactive)
REMARK    1  A    between atoms: C_2  and  C_5
REMARK    2  A    between atoms: N_3  and  O_4
REMARK    3  A    between atoms: C_8  and  C_9
REMARK    4  A    between atoms: C_9  and  N_10
REMARK    5  A    between atoms: N_23  and  O_24
REMARK                            x       y       z     vdW  Elec       q    Type
REMARK                         _______ _______ _______ _____ _____    ______ ____
ROOT
ATOM      1  N   UNL     1      -3.289  13.835  23.800  0.00  0.00    +0.000 N 
ATOM      2  C   UNL     1      -4.426  13.015  23.930  0.00  0.00    +0.000 C 
ATOM      3  O   UNL     1      -4.511  11.840  24.236  0.00  0.00    +0.000 OA
ATOM      4  C   UNL     1      -5.524  13.896  23.480  0.00  0.00    +0.000 C 
ATOM      5  C   UNL     1      -6.129  13.454  22.370  0.00  0.00    +0.000 C 
ATOM      6  N   UNL     1      -6.045  12.152  21.903  0.00  0.00    +0.000 N 
ATOM      7  C   UNL     1      -6.406  12.134  20.561  0.00  0.00    +0.000 A 
ATOM      8  C   UNL     1      -6.431  10.996  19.786  0.00  0.00    +0.000 A 
ATOM      9  C   UNL     1      -6.852  11.129  18.470  0.00  0.00    +0.000 A 
ATOM     10  C   UNL     1      -7.200  12.392  17.961  0.00  0.00    +0.000 A 
ATOM     11  C   UNL     1      -7.178  13.542  18.768  0.00  0.00    +0.000 A 
ATOM     12  C   UNL     1      -6.818  13.385  20.095  0.00  0.00    +0.000 A 
ATOM     13  C   UNL     1      -6.703  14.323  21.248  0.00  0.00    +0.000 C 
ATOM     14  N   UNL     1      -6.979  15.582  21.350  0.00  0.00    +0.000 NA
ATOM     15  C   UNL     1      -5.153  15.231  23.861  0.00  0.00    +0.000 A 
ATOM     16  C   UNL     1      -5.967  16.316  24.161  0.00  0.00    +0.000 A 
ATOM     17  C   UNL     1      -5.337  17.464  24.597  0.00  0.00    +0.000 A 
ATOM     18  C   UNL     1      -3.931  17.496  24.697  0.00  0.00    +0.000 A 
ATOM     19  C   UNL     1      -3.121  16.366  24.393  0.00  0.00    +0.000 A 
ATOM     20 CL   UNL     1      -1.425  16.494  24.596  0.00  0.00    +0.000 Cl
ATOM     21  C   UNL     1      -3.739  15.195  24.003  0.00  0.00    +0.000 A 
ATOM     22  H   UNL     1      -5.174  11.666  22.122  0.00  0.00    +0.000 HD
ENDROOT
BRANCH  14  23
ATOM     23  O   UNL     1      -7.479  16.136  20.168  0.00  0.00    +0.000 OA
ATOM     24  H   UNL     1      -7.155  17.054  20.208  0.00  0.00    +0.000 HD
ENDBRANCH  14  23
BRANCH   1  25
ATOM     25  C   UNL     1      -1.998  13.167  23.867  0.00  0.00    +0.000 C 
BRANCH  25  29
ATOM     26  C   UNL     1       0.054  11.043  20.588  0.00  0.00    +0.000 A 
ATOM     27  C   UNL     1      -0.331  12.387  20.419  0.00  0.00    +0.000 A 
ATOM     28  C   UNL     1      -1.008  13.104  21.444  0.00  0.00    +0.000 A 
ATOM     29  C   UNL     1      -1.307  12.504  22.667  0.00  0.00    +0.000 A 
ATOM     30  C   UNL     1      -0.930  11.140  22.808  0.00  0.00    +0.000 A 
ATOM     31  C   UNL     1      -0.260  10.426  21.798  0.00  0.00    +0.000 A 
BRANCH  26  33
ATOM     32  O   UNL     1       1.141   9.073  19.774  0.00  0.00    +0.000 OA
ATOM     33  C   UNL     1       0.807  10.251  19.564  0.00  0.00    +0.000 C 
ATOM     34  N   UNL     1       1.095  10.864  18.364  0.00  0.00    +0.000 N 
ATOM     35  H   UNL     1       0.653  11.713  18.037  0.00  0.00    +0.000 HD
BRANCH  34  36
ATOM     36  O   UNL     1       1.713  10.053  17.382  0.00  0.00    +0.000 OA
ATOM     37  H   UNL     1       2.509  10.578  17.141  0.00  0.00    +0.000 HD
ENDBRANCH  34  36
ENDBRANCH  26  33
ENDBRANCH  25  29
ENDBRANCH   1  25
TORSDOF 5
ENDMDL
MODEL 5
REMARK VINA RESULT:      -8.2      3.902      7.168
REMARK  Name = 
REMARK  5 active torsions:
REMARK  status: ('A' for Active; 'I' for Inactive)
REMARK    1  A    between atoms: C_2  and  C_5
REMARK    2  A    between atoms: N_3  and  O_4
REMARK    3  A    between atoms: C_8  and  C_9
REMARK    4  A    between atoms: C_9  and  N_10
REMARK    5  A    between atoms: N_23  and  O_24
REMARK                            x       y       z     vdW  Elec       q    Type
REMARK                         _______ _______ _______ _____ _____    ______ ____
ROOT
ATOM      1  N   UNL     1      -3.177  13.748  23.829  0.00  0.00    +0.000 N 
ATOM      2  C   UNL     1      -4.355  12.991  23.978  0.00  0.00    +0.000 C 
ATOM      3  O   UNL     1      -4.498  11.819  24.271  0.00  0.00    +0.000 OA
ATOM      4  C   UNL     1      -5.413  13.939  23.569  0.00  0.00    +0.000 C 
ATOM      5  C   UNL     1      -6.070  13.546  22.469  0.00  0.00    +0.000 C 
ATOM      6  N   UNL     1      -6.071  12.249  21.984  0.00  0.00    +0.000 N 
ATOM      7  C   UNL     1      -6.467  12.270  20.651  0.00  0.00    +0.000 A 
ATOM      8  C   UNL     1      -6.575  11.147  19.862  0.00  0.00    +0.000 A 
ATOM      9  C   UNL     1      -7.022  11.321  18.560  0.00  0.00    +0.000 A 
ATOM     10  C   UNL     1      -7.311  12.609  18.076  0.00  0.00    +0.000 A 
ATOM     11  C   UNL     1      -7.204  13.745  18.897  0.00  0.00    +0.000 A 
ATOM     12  C   UNL     1      -6.820  13.549  20.212  0.00  0.00    +0.000 A 
ATOM     13  C   UNL     1      -6.622  14.462  21.373  0.00  0.00    +0.000 C 
ATOM     14  N   UNL     1      -6.825  15.734  21.499  0.00  0.00    +0.000 NA
ATOM     15  C   UNL     1      -4.958  15.245  23.956  0.00  0.00    +0.000 A 
ATOM     16  C   UNL     1      -5.702  16.369  24.292  0.00  0.00    +0.000 A 
ATOM     17  C   UNL     1      -4.998  17.474  24.725  0.00  0.00    +0.000 A 
ATOM     18  C   UNL     1      -3.590  17.427  24.789  0.00  0.00    +0.000 A 
ATOM     19  C   UNL     1      -2.853  16.258  24.449  0.00  0.00    +0.000 A 
ATOM     20 CL   UNL     1      -1.147  16.288  24.610  0.00  0.00    +0.000 Cl
ATOM     21  C   UNL     1      -3.546  15.129  24.060  0.00  0.00    +0.000 A 
ATOM     22  H   UNL     1      -5.224  11.712  22.174  0.00  0.00    +0.000 HD
ENDROOT
BRANCH  14  23
ATOM     23  O   UNL     1      -7.323  16.331  20.338  0.00  0.00    +0.000 OA
ATOM     24  H   UNL     1      -7.924  17.013  20.688  0.00  0.00    +0.000 HD
ENDBRANCH  14  23
BRANCH   1  25
ATOM     25  C   UNL     1      -1.925  13.009  23.853  0.00  0.00    +0.000 C 
BRANCH  25  29
ATOM     26  C   UNL     1      -0.374  11.061  20.210  0.00  0.00    +0.000 A 
ATOM     27  C   UNL     1      -0.213  10.434  21.461  0.00  0.00    +0.000 A 
ATOM     28  C   UNL     1      -0.684  11.034  22.662  0.00  0.00    +0.000 A 
ATOM     29  C   UNL     1      -1.337  12.267  22.644  0.00  0.00    +0.000 A 
ATOM     30  C   UNL     1      -1.469  12.892  21.374  0.00  0.00    +0.000 A 
ATOM     31  C   UNL     1      -1.005  12.304  20.183  0.00  0.00    +0.000 A 
BRANCH  26  33
ATOM     32  O   UNL     1      -0.767  10.055  18.075  0.00  0.00    +0.000 OA
ATOM     33  C   UNL     1       0.060  10.458  18.909  0.00  0.00    +0.000 C 
ATOM     34  N   UNL     1       1.412  10.392  18.653  0.00  0.00    +0.000 N 
ATOM     35  H   UNL     1       2.116  10.910  19.163  0.00  0.00    +0.000 HD
BRANCH  34  36
ATOM     36  O   UNL     1       1.781   9.915  17.372  0.00  0.00    +0.000 OA
ATOM     37  H   UNL     1       1.252   9.089  17.290  0.00  0.00    +0.000 HD
ENDBRANCH  34  36
ENDBRANCH  26  33
ENDBRANCH  25  29
ENDBRANCH   1  25
TORSDOF 5
ENDMDL
MODEL 6
REMARK VINA RESULT:      -8.2      3.002      6.034
REMARK  Name = 
REMARK  5 active torsions:
REMARK  status: ('A' for Active; 'I' for Inactive)
REMARK    1  A    between atoms: C_2  and  C_5
REMARK    2  A    between atoms: N_3  and  O_4
REMARK    3  A    between atoms: C_8  and  C_9
REMARK    4  A    between atoms: C_9  and  N_10
REMARK    5  A    between atoms: N_23  and  O_24
REMARK                            x       y       z     vdW  Elec       q    Type
REMARK                         _______ _______ _______ _____ _____    ______ ____
ROOT
ATOM      1  N   UNL     1      -0.775  12.351  21.324  0.00  0.00    +0.000 N 
ATOM      2  C   UNL     1      -1.049  12.223  22.700  0.00  0.00    +0.000 C 
ATOM      3  O   UNL     1      -1.152  11.224  23.386  0.00  0.00    +0.000 OA
ATOM      4  C   UNL     1      -1.313  13.617  23.116  0.00  0.00    +0.000 C 
ATOM      5  C   UNL     1      -2.569  13.806  23.542  0.00  0.00    +0.000 C 
ATOM      6  N   UNL     1      -3.418  12.787  23.941  0.00  0.00    +0.000 N 
ATOM      7  C   UNL     1      -4.726  13.256  23.907  0.00  0.00    +0.000 A 
ATOM      8  C   UNL     1      -5.825  12.498  24.243  0.00  0.00    +0.000 A 
ATOM      9  C   UNL     1      -7.066  13.117  24.198  0.00  0.00    +0.000 A 
ATOM     10  C   UNL     1      -7.176  14.457  23.787  0.00  0.00    +0.000 A 
ATOM     11  C   UNL     1      -6.044  15.219  23.456  0.00  0.00    +0.000 A 
ATOM     12  C   UNL     1      -4.807  14.610  23.567  0.00  0.00    +0.000 A 
ATOM     13  C   UNL     1      -3.408  15.071  23.343  0.00  0.00    +0.000 C 
ATOM     14  N   UNL     1      -2.936  16.235  23.033  0.00  0.00    +0.000 NA
ATOM     15  C   UNL     1      -0.481  14.449  22.292  0.00  0.00    +0.000 A 
ATOM     16  C   UNL     1       0.058  15.699  22.570  0.00  0.00    +0.000 A 
ATOM     17  C   UNL     1       0.911  16.232  21.625  0.00  0.00    +0.000 A 
ATOM     18  C   UNL     1       1.177  15.517  20.439  0.00  0.00    +0.000 A 
ATOM     19  C   UNL     1       0.619  14.233  20.184  0.00  0.00    +0.000 A 
ATOM     20 CL   UNL     1       1.047  13.426  18.735  0.00  0.00    +0.000 Cl
ATOM     21  C   UNL     1      -0.197  13.665  21.142  0.00  0.00    +0.000 A 
ATOM     22  H   UNL     1      -3.269  11.890  23.478  0.00  0.00    +0.000 HD
ENDROOT
BRANCH  14  23
ATOM     23  O   UNL     1      -3.925  17.213  22.898  0.00  0.00    +0.000 OA
ATOM     24  H   UNL     1      -3.437  17.957  22.501  0.00  0.00    +0.000 HD
ENDBRANCH  14  23
BRANCH   1  25
ATOM     25  C   UNL     1      -0.780  11.121  20.546  0.00  0.00    +0.000 C 
BRANCH  25  29
ATOM     26  C   UNL     1      -2.598  10.494  16.575  0.00  0.00    +0.000 A 
ATOM     27  C   UNL     1      -3.134  11.463  17.445  0.00  0.00    +0.000 A 
ATOM     28  C   UNL     1      -2.589  11.687  18.739  0.00  0.00    +0.000 A 
ATOM     29  C   UNL     1      -1.488  10.959  19.194  0.00  0.00    +0.000 A 
ATOM     30  C   UNL     1      -0.978   9.971  18.308  0.00  0.00    +0.000 A 
ATOM     31  C   UNL     1      -1.513   9.745  17.027  0.00  0.00    +0.000 A 
BRANCH  26  33
ATOM     32  O   UNL     1      -2.320  10.096  14.232  0.00  0.00    +0.000 OA
ATOM     33  C   UNL     1      -3.101  10.245  15.185  0.00  0.00    +0.000 C 
ATOM     34  N   UNL     1      -4.464  10.157  15.004  0.00  0.00    +0.000 N 
ATOM     35  H   UNL     1      -5.133  10.026  15.752  0.00  0.00    +0.000 HD
BRANCH  34  36
ATOM     36  O   UNL     1      -4.898   9.816  13.700  0.00  0.00    +0.000 OA
ATOM     37  H   UNL     1      -4.457  10.496  13.142  0.00  0.00    +0.000 HD
ENDBRANCH  34  36
ENDBRANCH  26  33
ENDBRANCH  25  29
ENDBRANCH   1  25
TORSDOF 5
ENDMDL
MODEL 7
REMARK VINA RESULT:      -8.1      2.994      5.991
REMARK  Name = 
REMARK  5 active torsions:
REMARK  status: ('A' for Active; 'I' for Inactive)
REMARK    1  A    between atoms: C_2  and  C_5
REMARK    2  A    between atoms: N_3  and  O_4
REMARK    3  A    between atoms: C_8  and  C_9
REMARK    4  A    between atoms: C_9  and  N_10
REMARK    5  A    between atoms: N_23  and  O_24
REMARK                            x       y       z     vdW  Elec       q    Type
REMARK                         _______ _______ _______ _____ _____    ______ ____
ROOT
ATOM      1  N   UNL     1      -0.698  12.163  21.404  0.00  0.00    +0.000 N 
ATOM      2  C   UNL     1      -1.001  12.064  22.775  0.00  0.00    +0.000 C 
ATOM      3  O   UNL     1      -1.140  11.078  23.475  0.00  0.00    +0.000 OA
ATOM      4  C   UNL     1      -1.239  13.470  23.166  0.00  0.00    +0.000 C 
ATOM      5  C   UNL     1      -2.498  13.695  23.564  0.00  0.00    +0.000 C 
ATOM      6  N   UNL     1      -3.378  12.703  23.962  0.00  0.00    +0.000 N 
ATOM      7  C   UNL     1      -4.674  13.202  23.896  0.00  0.00    +0.000 A 
ATOM      8  C   UNL     1      -5.797  12.475  24.222  0.00  0.00    +0.000 A 
ATOM      9  C   UNL     1      -7.022  13.122  24.144  0.00  0.00    +0.000 A 
ATOM     10  C   UNL     1      -7.092  14.458  23.710  0.00  0.00    +0.000 A 
ATOM     11  C   UNL     1      -5.936  15.189  23.389  0.00  0.00    +0.000 A 
ATOM     12  C   UNL     1      -4.716  14.552  23.534  0.00  0.00    +0.000 A 
ATOM     13  C   UNL     1      -3.302  14.976  23.330  0.00  0.00    +0.000 C 
ATOM     14  N   UNL     1      -2.797  16.124  23.011  0.00  0.00    +0.000 NA
ATOM     15  C   UNL     1      -0.372  14.269  22.345  0.00  0.00    +0.000 A 
ATOM     16  C   UNL     1       0.191  15.510  22.614  0.00  0.00    +0.000 A 
ATOM     17  C   UNL     1       1.075  16.008  21.678  0.00  0.00    +0.000 A 
ATOM     18  C   UNL     1       1.346  15.269  20.508  0.00  0.00    +0.000 A 
ATOM     19  C   UNL     1       0.762  13.994  20.262  0.00  0.00    +0.000 A 
ATOM     20 CL   UNL     1       1.198  13.155  18.834  0.00  0.00    +0.000 Cl
ATOM     21  C   UNL     1      -0.085  13.461  21.212  0.00  0.00    +0.000 A 
ATOM     22  H   UNL     1      -3.242  11.795  23.516  0.00  0.00    +0.000 HD
ENDROOT
BRANCH  14  23
ATOM     23  O   UNL     1      -3.760  17.123  22.842  0.00  0.00    +0.000 OA
ATOM     24  H   UNL     1      -3.292  17.781  22.297  0.00  0.00    +0.000 HD
ENDBRANCH  14  23
BRANCH   1  25
ATOM     25  C   UNL     1      -0.717  10.922  20.644  0.00  0.00    +0.000 C 
BRANCH  25  29
ATOM     26  C   UNL     1      -2.638  10.671  16.680  0.00  0.00    +0.000 A 
ATOM     27  C   UNL     1      -1.506   9.882  16.960  0.00  0.00    +0.000 A 
ATOM     28  C   UNL     1      -0.847   9.943  18.219  0.00  0.00    +0.000 A 
ATOM     29  C   UNL     1      -1.307  10.783  19.234  0.00  0.00    +0.000 A 
ATOM     30  C   UNL     1      -2.437  11.587  18.922  0.00  0.00    +0.000 A 
ATOM     31  C   UNL     1      -3.094  11.531  17.679  0.00  0.00    +0.000 A 
BRANCH  26  33
ATOM     32  O   UNL     1      -4.519  11.142  15.278  0.00  0.00    +0.000 OA
ATOM     33  C   UNL     1      -3.400  10.616  15.390  0.00  0.00    +0.000 C 
ATOM     34  N   UNL     1      -2.803   9.987  14.321  0.00  0.00    +0.000 N 
ATOM     35  H   UNL     1      -1.819   9.758  14.269  0.00  0.00    +0.000 HD
BRANCH  34  36
ATOM     36  O   UNL     1      -3.505  10.047  13.092  0.00  0.00    +0.000 OA
ATOM     37  H   UNL     1      -3.936   9.164  13.048  0.00  0.00    +0.000 HD
ENDBRANCH  34  36
ENDBRANCH  26  33
ENDBRANCH  25  29
ENDBRANCH   1  25
TORSDOF 5
ENDMDL
MODEL 8
REMARK VINA RESULT:      -8.1      4.321      7.304
REMARK  Name = 
REMARK  5 active torsions:
REMARK  status: ('A' for Active; 'I' for Inactive)
REMARK    1  A    between atoms: C_2  and  C_5
REMARK    2  A    between atoms: N_3  and  O_4
REMARK    3  A    between atoms: C_8  and  C_9
REMARK    4  A    between atoms: C_9  and  N_10
REMARK    5  A    between atoms: N_23  and  O_24
REMARK                            x       y       z     vdW  Elec       q    Type
REMARK                         _______ _______ _______ _____ _____    ______ ____
ROOT
ATOM      1  N   UNL     1      -0.677  12.031  21.011  0.00  0.00    +0.000 N 
ATOM      2  C   UNL     1      -0.945  11.839  22.381  0.00  0.00    +0.000 C 
ATOM      3  O   UNL     1      -1.168  10.814  22.997  0.00  0.00    +0.000 OA
ATOM      4  C   UNL     1      -1.016  13.220  22.901  0.00  0.00    +0.000 C 
ATOM      5  C   UNL     1      -2.230  13.540  23.370  0.00  0.00    +0.000 C 
ATOM      6  N   UNL     1      -3.200  12.614  23.716  0.00  0.00    +0.000 N 
ATOM      7  C   UNL     1      -4.435  13.251  23.747  0.00  0.00    +0.000 A 
ATOM      8  C   UNL     1      -5.620  12.621  24.056  0.00  0.00    +0.000 A 
ATOM      9  C   UNL     1      -6.769  13.398  24.085  0.00  0.00    +0.000 A 
ATOM     10  C   UNL     1      -6.707  14.767  23.773  0.00  0.00    +0.000 A 
ATOM     11  C   UNL     1      -5.488  15.398  23.469  0.00  0.00    +0.000 A 
ATOM     12  C   UNL     1      -4.342  14.625  23.506  0.00  0.00    +0.000 A 
ATOM     13  C   UNL     1      -2.897  14.915  23.282  0.00  0.00    +0.000 C 
ATOM     14  N   UNL     1      -2.280  16.028  23.043  0.00  0.00    +0.000 NA
ATOM     15  C   UNL     1      -0.094  13.996  22.118  0.00  0.00    +0.000 A 
ATOM     16  C   UNL     1       0.609  15.140  22.472  0.00  0.00    +0.000 A 
ATOM     17  C   UNL     1       1.511  15.626  21.546  0.00  0.00    +0.000 A 
ATOM     18  C   UNL     1       1.663  14.972  20.306  0.00  0.00    +0.000 A 
ATOM     19  C   UNL     1       0.937  13.794  19.975  0.00  0.00    +0.000 A 
ATOM     20 CL   UNL     1       1.233  13.047  18.461  0.00  0.00    +0.000 Cl
ATOM     21  C   UNL     1       0.067  13.268  20.909  0.00  0.00    +0.000 A 
ATOM     22  H   UNL     1      -3.178  11.742  23.187  0.00  0.00    +0.000 HD
ENDROOT
BRANCH  14  23
ATOM     23  O   UNL     1      -3.134  17.134  23.002  0.00  0.00    +0.000 OA
ATOM     24  H   UNL     1      -3.733  16.969  23.753  0.00  0.00    +0.000 HD
ENDBRANCH  14  23
BRANCH   1  25
ATOM     25  C   UNL     1      -0.855  10.873  20.148  0.00  0.00    +0.000 C 
BRANCH  25  29
ATOM     26  C   UNL     1       2.165   7.774  19.283  0.00  0.00    +0.000 A 
ATOM     27  C   UNL     1       1.613   7.873  20.575  0.00  0.00    +0.000 A 
ATOM     28  C   UNL     1       0.649   8.866  20.901  0.00  0.00    +0.000 A 
ATOM     29  C   UNL     1       0.202   9.778  19.945  0.00  0.00    +0.000 A 
ATOM     30  C   UNL     1       0.788   9.675  18.654  0.00  0.00    +0.000 A 
ATOM     31  C   UNL     1       1.742   8.695  18.326  0.00  0.00    +0.000 A 
BRANCH  26  33
ATOM     32  O   UNL     1       3.581   6.663  17.707  0.00  0.00    +0.000 OA
ATOM     33  C   UNL     1       3.150   6.723  18.870  0.00  0.00    +0.000 C 
ATOM     34  N   UNL     1       3.583   5.838  19.832  0.00  0.00    +0.000 N 
ATOM     35  H   UNL     1       3.467   5.974  20.828  0.00  0.00    +0.000 HD
BRANCH  34  36
ATOM     36  O   UNL     1       4.591   4.927  19.432  0.00  0.00    +0.000 OA
ATOM     37  H   UNL     1       4.917   4.576  20.292  0.00  0.00    +0.000 HD
ENDBRANCH  34  36
ENDBRANCH  26  33
ENDBRANCH  25  29
ENDBRANCH   1  25
TORSDOF 5
ENDMDL
MODEL 9
REMARK VINA RESULT:      -7.8      4.561      7.921
REMARK  Name = 
REMARK  5 active torsions:
REMARK  status: ('A' for Active; 'I' for Inactive)
REMARK    1  A    between atoms: C_2  and  C_5
REMARK    2  A    between atoms: N_3  and  O_4
REMARK    3  A    between atoms: C_8  and  C_9
REMARK    4  A    between atoms: C_9  and  N_10
REMARK    5  A    between atoms: N_23  and  O_24
REMARK                            x       y       z     vdW  Elec       q    Type
REMARK                         _______ _______ _______ _____ _____    ______ ____
ROOT
ATOM      1  N   UNL     1       0.656   9.589  20.609  0.00  0.00    +0.000 N 
ATOM      2  C   UNL     1       0.768  10.263  21.841  0.00  0.00    +0.000 C 
ATOM      3  O   UNL     1       0.866   9.817  22.969  0.00  0.00    +0.000 OA
ATOM      4  C   UNL     1       0.614  11.682  21.458  0.00  0.00    +0.000 C 
ATOM      5  C   UNL     1      -0.480  12.250  21.982  0.00  0.00    +0.000 C 
ATOM      6  N   UNL     1      -1.179  11.740  23.065  0.00  0.00    +0.000 N 
ATOM      7  C   UNL     1      -2.451  12.300  23.078  0.00  0.00    +0.000 A 
ATOM      8  C   UNL     1      -3.410  12.009  24.023  0.00  0.00    +0.000 A 
ATOM      9  C   UNL     1      -4.623  12.678  23.929  0.00  0.00    +0.000 A 
ATOM     10  C   UNL     1      -4.853  13.585  22.880  0.00  0.00    +0.000 A 
ATOM     11  C   UNL     1      -3.861  13.877  21.929  0.00  0.00    +0.000 A 
ATOM     12  C   UNL     1      -2.635  13.253  22.072  0.00  0.00    +0.000 A 
ATOM     13  C   UNL     1      -1.354  13.314  21.313  0.00  0.00    +0.000 C 
ATOM     14  N   UNL     1      -0.995  14.046  20.308  0.00  0.00    +0.000 NA
ATOM     15  C   UNL     1       1.182  11.810  20.144  0.00  0.00    +0.000 A 
ATOM     16  C   UNL     1       1.764  12.921  19.546  0.00  0.00    +0.000 A 
ATOM     17  C   UNL     1       2.323  12.732  18.298  0.00  0.00    +0.000 A 
ATOM     18  C   UNL     1       2.263  11.462  17.688  0.00  0.00    +0.000 A 
ATOM     19  C   UNL     1       1.669  10.339  18.329  0.00  0.00    +0.000 A 
ATOM     20 CL   UNL     1       1.694   8.827  17.523  0.00  0.00    +0.000 Cl
ATOM     21  C   UNL     1       1.150  10.499  19.598  0.00  0.00    +0.000 A 
ATOM     22  H   UNL     1      -1.153  10.725  23.160  0.00  0.00    +0.000 HD
ENDROOT
BRANCH  14  23
ATOM     23  O   UNL     1      -1.993  14.928  19.884  0.00  0.00    +0.000 OA
ATOM     24  H   UNL     1      -2.741  14.332  19.698  0.00  0.00    +0.000 HD
ENDBRANCH  14  23
BRANCH   1  25
ATOM     25  C   UNL     1       0.452   8.150  20.674  0.00  0.00    +0.000 C 
BRANCH  25  29
ATOM     26  C   UNL     1       3.424   4.996  19.845  0.00  0.00    +0.000 A 
ATOM     27  C   UNL     1       3.562   6.263  19.246  0.00  0.00    +0.000 A 
ATOM     28  C   UNL     1       2.619   7.303  19.473  0.00  0.00    +0.000 A 
ATOM     29  C   UNL     1       1.521   7.110  20.313  0.00  0.00    +0.000 A 
ATOM     30  C   UNL     1       1.389   5.817  20.890  0.00  0.00    +0.000 A 
ATOM     31  C   UNL     1       2.319   4.785  20.669  0.00  0.00    +0.000 A 
BRANCH  26  33
ATOM     32  O   UNL     1       5.540   4.078  19.211  0.00  0.00    +0.000 OA
ATOM     33  C   UNL     1       4.408   3.878  19.679  0.00  0.00    +0.000 C 
ATOM     34  N   UNL     1       4.024   2.620  20.089  0.00  0.00    +0.000 N 
ATOM     35  H   UNL     1       3.231   2.433  20.689  0.00  0.00    +0.000 HD
BRANCH  34  36
ATOM     36  O   UNL     1       5.015   1.611  20.015  0.00  0.00    +0.000 OA
ATOM     37  H   UNL     1       4.562   0.904  19.502  0.00  0.00    +0.000 HD
ENDBRANCH  34  36
ENDBRANCH  26  33
ENDBRANCH  25  29
ENDBRANCH   1  25
TORSDOF 5
ENDMDL
