MODEL 1
REMARK VINA RESULT:      -7.7      0.000      0.000
REMARK  Name = 
REMARK  3 active torsions:
REMARK  status: ('A' for Active; 'I' for Inactive)
REMARK    1  A    between atoms: N_5  and  C_6
REMARK    2  A    between atoms: C_6  and  C_7
REMARK    3  A    between atoms: C_7  and  N_8
REMARK                            x       y       z     vdW  Elec       q    Type
REMARK                         _______ _______ _______ _____ _____    ______ ____
ROOT
ATOM      1  O   UNL     1       1.030   4.122  17.105  0.00  0.00    +0.000 OA
ATOM      2  N   UNL     1       2.078   3.884  17.766  0.00  0.00    +0.000 N 
ATOM      3  N   UNL     1       3.217   4.078  17.106  0.00  0.00    +0.000 NA
ATOM      4  C   UNL     1       4.389   3.865  17.723  0.00  0.00    +0.000 A 
ATOM      5  N   UNL     1       5.602   4.030  17.034  0.00  0.00    +0.000 N 
ATOM      6  N   UNL     1       4.443   3.461  19.070  0.00  0.00    +0.000 N 
ATOM      7  O   UNL     1       5.584   3.321  19.647  0.00  0.00    +0.000 OA
ATOM      8  C   UNL     1       3.246   3.247  19.764  0.00  0.00    +0.000 A 
ATOM      9  C   UNL     1       3.221   2.827  21.113  0.00  0.00    +0.000 A 
ATOM     10  C   UNL     1       2.010   2.624  21.777  0.00  0.00    +0.000 A 
ATOM     11  C   UNL     1       0.805   2.836  21.112  0.00  0.00    +0.000 A 
ATOM     12  C   UNL     1       0.811   3.253  19.781  0.00  0.00    +0.000 A 
ATOM     13  C   UNL     1       2.030   3.461  19.096  0.00  0.00    +0.000 A 
ATOM     14  H   UNL     1       6.340   4.067  17.746  0.00  0.00    +0.000 HD
ENDROOT
BRANCH   5  15
ATOM     15  C   UNL     1       5.602   5.073  16.012  0.00  0.00    +0.000 C 
BRANCH  15  16
ATOM     16  C   UNL     1       6.949   5.116  15.289  0.00  0.00    +0.000 C 
BRANCH  16  17
ATOM     17  N   UNL     1       6.858   4.598  13.935  0.00  0.00    +0.000 N 
ATOM     18  C   UNL     1       7.600   5.041  12.870  0.00  0.00    +0.000 A 
ATOM     19  C   UNL     1       7.226   4.313  11.761  0.00  0.00    +0.000 A 
ATOM     20  C   UNL     1       6.220   3.407  12.171  0.00  0.00    +0.000 A 
ATOM     21  C   UNL     1       6.008   3.609  13.517  0.00  0.00    +0.000 A 
ENDBRANCH  16  17
ENDBRANCH  15  16
ENDBRANCH   5  15
TORSDOF 3
ENDMDL
MODEL 2
REMARK VINA RESULT:      -7.7      5.139      6.373
REMARK  Name = 
REMARK  3 active torsions:
REMARK  status: ('A' for Active; 'I' for Inactive)
REMARK    1  A    between atoms: N_5  and  C_6
REMARK    2  A    between atoms: C_6  and  C_7
REMARK    3  A    between atoms: C_7  and  N_8
REMARK                            x       y       z     vdW  Elec       q    Type
REMARK                         _______ _______ _______ _____ _____    ______ ____
ROOT
ATOM      1  O   UNL     1       5.251   6.771  15.351  0.00  0.00    +0.000 OA
ATOM      2  N   UNL     1       5.728   6.416  16.464  0.00  0.00    +0.000 N 
ATOM      3  N   UNL     1       6.730   7.168  16.912  0.00  0.00    +0.000 NA
ATOM      4  C   UNL     1       7.300   6.883  18.092  0.00  0.00    +0.000 A 
ATOM      5  N   UNL     1       8.383   7.642  18.568  0.00  0.00    +0.000 N 
ATOM      6  N   UNL     1       6.842   5.815  18.886  0.00  0.00    +0.000 N 
ATOM      7  O   UNL     1       7.374   5.606  20.038  0.00  0.00    +0.000 OA
ATOM      8  C   UNL     1       5.794   5.017  18.412  0.00  0.00    +0.000 A 
ATOM      9  C   UNL     1       5.291   3.919  19.146  0.00  0.00    +0.000 A 
ATOM     10  C   UNL     1       4.243   3.144  18.646  0.00  0.00    +0.000 A 
ATOM     11  C   UNL     1       3.678   3.448  17.410  0.00  0.00    +0.000 A 
ATOM     12  C   UNL     1       4.161   4.530  16.674  0.00  0.00    +0.000 A 
ATOM     13  C   UNL     1       5.222   5.322  17.167  0.00  0.00    +0.000 A 
ATOM     14  H   UNL     1       8.480   7.420  19.565  0.00  0.00    +0.000 HD
ENDROOT
BRANCH   5  15
ATOM     15  C   UNL     1       8.367   9.054  18.193  0.00  0.00    +0.000 C 
BRANCH  15  16
ATOM     16  C   UNL     1       9.221   9.875  19.160  0.00  0.00    +0.000 C 
BRANCH  16  17
ATOM     17  N   UNL     1       9.740  11.082  18.540  0.00  0.00    +0.000 N 
ATOM     18  C   UNL     1      11.067  11.415  18.453  0.00  0.00    +0.000 A 
ATOM     19  C   UNL     1      11.157  12.628  17.806  0.00  0.00    +0.000 A 
ATOM     20  C   UNL     1       9.840  13.042  17.500  0.00  0.00    +0.000 A 
ATOM     21  C   UNL     1       8.983  12.072  17.970  0.00  0.00    +0.000 A 
ENDBRANCH  16  17
ENDBRANCH  15  16
ENDBRANCH   5  15
TORSDOF 3
ENDMDL
MODEL 3
REMARK VINA RESULT:      -7.7      1.239      2.423
REMARK  Name = 
REMARK  3 active torsions:
REMARK  status: ('A' for Active; 'I' for Inactive)
REMARK    1  A    between atoms: N_5  and  C_6
REMARK    2  A    between atoms: C_6  and  C_7
REMARK    3  A    between atoms: C_7  and  N_8
REMARK                            x       y       z     vdW  Elec       q    Type
REMARK                         _______ _______ _______ _____ _____    ______ ____
ROOT
ATOM      1  O   UNL     1       5.221   1.901  20.344  0.00  0.00    +0.000 OA
ATOM      2  N   UNL     1       4.683   2.896  19.786  0.00  0.00    +0.000 N 
ATOM      3  N   UNL     1       5.463   3.551  18.930  0.00  0.00    +0.000 NA
ATOM      4  C   UNL     1       4.983   4.618  18.273  0.00  0.00    +0.000 A 
ATOM      5  N   UNL     1       5.801   5.345  17.392  0.00  0.00    +0.000 N 
ATOM      6  N   UNL     1       3.656   5.049  18.451  0.00  0.00    +0.000 N 
ATOM      7  O   UNL     1       3.211   6.040  17.762  0.00  0.00    +0.000 OA
ATOM      8  C   UNL     1       2.836   4.367  19.358  0.00  0.00    +0.000 A 
ATOM      9  C   UNL     1       1.497   4.751  19.600  0.00  0.00    +0.000 A 
ATOM     10  C   UNL     1       0.705   4.048  20.509  0.00  0.00    +0.000 A 
ATOM     11  C   UNL     1       1.229   2.954  21.192  0.00  0.00    +0.000 A 
ATOM     12  C   UNL     1       2.548   2.560  20.964  0.00  0.00    +0.000 A 
ATOM     13  C   UNL     1       3.361   3.263  20.047  0.00  0.00    +0.000 A 
ATOM     14  H   UNL     1       5.175   5.932  16.829  0.00  0.00    +0.000 HD
ENDROOT
BRANCH   5  15
ATOM     15  C   UNL     1       6.804   4.558  16.679  0.00  0.00    +0.000 C 
BRANCH  15  16
ATOM     16  C   UNL     1       7.357   5.344  15.489  0.00  0.00    +0.000 C 
BRANCH  16  17
ATOM     17  N   UNL     1       7.002   4.734  14.220  0.00  0.00    +0.000 N 
ATOM     18  C   UNL     1       5.965   3.857  14.030  0.00  0.00    +0.000 A 
ATOM     19  C   UNL     1       5.953   3.497  12.700  0.00  0.00    +0.000 A 
ATOM     20  C   UNL     1       7.024   4.173  12.070  0.00  0.00    +0.000 A 
ATOM     21  C   UNL     1       7.660   4.925  13.034  0.00  0.00    +0.000 A 
ENDBRANCH  16  17
ENDBRANCH  15  16
ENDBRANCH   5  15
TORSDOF 3
ENDMDL
MODEL 4
REMARK VINA RESULT:      -7.6      2.214      3.358
REMARK  Name = 
REMARK  3 active torsions:
REMARK  status: ('A' for Active; 'I' for Inactive)
REMARK    1  A    between atoms: N_5  and  C_6
REMARK    2  A    between atoms: C_6  and  C_7
REMARK    3  A    between atoms: C_7  and  N_8
REMARK                            x       y       z     vdW  Elec       q    Type
REMARK                         _______ _______ _______ _____ _____    ______ ____
ROOT
ATOM      1  O   UNL     1       2.887   6.981  18.959  0.00  0.00    +0.000 OA
ATOM      2  N   UNL     1       3.123   5.777  18.666  0.00  0.00    +0.000 N 
ATOM      3  N   UNL     1       3.701   5.589  17.483  0.00  0.00    +0.000 NA
ATOM      4  C   UNL     1       4.006   4.346  17.080  0.00  0.00    +0.000 A 
ATOM      5  N   UNL     1       4.584   4.122  15.819  0.00  0.00    +0.000 N 
ATOM      6  N   UNL     1       3.749   3.230  17.897  0.00  0.00    +0.000 N 
ATOM      7  O   UNL     1       4.107   2.058  17.505  0.00  0.00    +0.000 OA
ATOM      8  C   UNL     1       3.132   3.424  19.139  0.00  0.00    +0.000 A 
ATOM      9  C   UNL     1       2.830   2.351  20.007  0.00  0.00    +0.000 A 
ATOM     10  C   UNL     1       2.217   2.579  21.240  0.00  0.00    +0.000 A 
ATOM     11  C   UNL     1       1.894   3.876  21.630  0.00  0.00    +0.000 A 
ATOM     12  C   UNL     1       2.188   4.947  20.786  0.00  0.00    +0.000 A 
ATOM     13  C   UNL     1       2.808   4.731  19.535  0.00  0.00    +0.000 A 
ATOM     14  H   UNL     1       4.956   3.165  15.834  0.00  0.00    +0.000 HD
ENDROOT
BRANCH   5  15
ATOM     15  C   UNL     1       5.471   5.180  15.343  0.00  0.00    +0.000 C 
BRANCH  15  16
ATOM     16  C   UNL     1       6.924   4.865  15.703  0.00  0.00    +0.000 C 
BRANCH  16  17
ATOM     17  N   UNL     1       7.325   5.490  16.951  0.00  0.00    +0.000 N 
ATOM     18  C   UNL     1       7.600   4.820  18.115  0.00  0.00    +0.000 A 
ATOM     19  C   UNL     1       7.937   5.753  19.072  0.00  0.00    +0.000 A 
ATOM     20  C   UNL     1       7.853   7.028  18.465  0.00  0.00    +0.000 A 
ATOM     21  C   UNL     1       7.467   6.837  17.157  0.00  0.00    +0.000 A 
ENDBRANCH  16  17
ENDBRANCH  15  16
ENDBRANCH   5  15
TORSDOF 3
ENDMDL
MODEL 5
REMARK VINA RESULT:      -7.4      1.747      2.517
REMARK  Name = 
REMARK  3 active torsions:
REMARK  status: ('A' for Active; 'I' for Inactive)
REMARK    1  A    between atoms: N_5  and  C_6
REMARK    2  A    between atoms: C_6  and  C_7
REMARK    3  A    between atoms: C_7  and  N_8
REMARK                            x       y       z     vdW  Elec       q    Type
REMARK                         _______ _______ _______ _____ _____    ______ ____
ROOT
ATOM      1  O   UNL     1       5.022   1.702  20.202  0.00  0.00    +0.000 OA
ATOM      2  N   UNL     1       4.640   2.868  19.909  0.00  0.00    +0.000 N 
ATOM      3  N   UNL     1       5.572   3.645  19.363  0.00  0.00    +0.000 NA
ATOM      4  C   UNL     1       5.265   4.901  19.003  0.00  0.00    +0.000 A 
ATOM      5  N   UNL     1       6.243   5.749  18.457  0.00  0.00    +0.000 N 
ATOM      6  N   UNL     1       3.965   5.411  19.169  0.00  0.00    +0.000 N 
ATOM      7  O   UNL     1       3.691   6.600  18.760  0.00  0.00    +0.000 OA
ATOM      8  C   UNL     1       2.985   4.599  19.752  0.00  0.00    +0.000 A 
ATOM      9  C   UNL     1       1.662   5.047  19.964  0.00  0.00    +0.000 A 
ATOM     10  C   UNL     1       0.707   4.211  20.546  0.00  0.00    +0.000 A 
ATOM     11  C   UNL     1       1.052   2.917  20.927  0.00  0.00    +0.000 A 
ATOM     12  C   UNL     1       2.353   2.458  20.723  0.00  0.00    +0.000 A 
ATOM     13  C   UNL     1       3.330   3.293  20.136  0.00  0.00    +0.000 A 
ATOM     14  H   UNL     1       5.742   6.538  18.032  0.00  0.00    +0.000 HD
ENDROOT
BRANCH   5  15
ATOM     15  C   UNL     1       7.262   5.086  17.647  0.00  0.00    +0.000 C 
BRANCH  15  16
ATOM     16  C   UNL     1       7.394   5.770  16.286  0.00  0.00    +0.000 C 
BRANCH  16  17
ATOM     17  N   UNL     1       6.799   4.982  15.220  0.00  0.00    +0.000 N 
ATOM     18  C   UNL     1       7.306   4.861  13.952  0.00  0.00    +0.000 A 
ATOM     19  C   UNL     1       6.462   4.041  13.235  0.00  0.00    +0.000 A 
ATOM     20  C   UNL     1       5.408   3.663  14.098  0.00  0.00    +0.000 A 
ATOM     21  C   UNL     1       5.637   4.263  15.316  0.00  0.00    +0.000 A 
ENDBRANCH  16  17
ENDBRANCH  15  16
ENDBRANCH   5  15
TORSDOF 3
ENDMDL
MODEL 6
REMARK VINA RESULT:      -7.2      2.343      3.472
REMARK  Name = 
REMARK  3 active torsions:
REMARK  status: ('A' for Active; 'I' for Inactive)
REMARK    1  A    between atoms: N_5  and  C_6
REMARK    2  A    between atoms: C_6  and  C_7
REMARK    3  A    between atoms: C_7  and  N_8
REMARK                            x       y       z     vdW  Elec       q    Type
REMARK                         _______ _______ _______ _____ _____    ______ ____
ROOT
ATOM      1  O   UNL     1       3.220   6.823  18.348  0.00  0.00    +0.000 OA
ATOM      2  N   UNL     1       3.346   5.573  18.228  0.00  0.00    +0.000 N 
ATOM      3  N   UNL     1       4.250   5.182  17.334  0.00  0.00    +0.000 NA
ATOM      4  C   UNL     1       4.470   3.873  17.138  0.00  0.00    +0.000 A 
ATOM      5  N   UNL     1       5.394   3.438  16.174  0.00  0.00    +0.000 N 
ATOM      6  N   UNL     1       3.779   2.898  17.880  0.00  0.00    +0.000 N 
ATOM      7  O   UNL     1       4.056   1.653  17.707  0.00  0.00    +0.000 OA
ATOM      8  C   UNL     1       2.821   3.306  18.815  0.00  0.00    +0.000 A 
ATOM      9  C   UNL     1       2.077   2.384  19.586  0.00  0.00    +0.000 A 
ATOM     10  C   UNL     1       1.130   2.825  20.512  0.00  0.00    +0.000 A 
ATOM     11  C   UNL     1       0.907   4.188  20.687  0.00  0.00    +0.000 A 
ATOM     12  C   UNL     1       1.633   5.112  19.935  0.00  0.00    +0.000 A 
ATOM     13  C   UNL     1       2.594   4.680  18.994  0.00  0.00    +0.000 A 
ATOM     14  H   UNL     1       5.582   2.449  16.374  0.00  0.00    +0.000 HD
ENDROOT
BRANCH   5  15
ATOM     15  C   UNL     1       6.546   4.313  15.974  0.00  0.00    +0.000 C 
BRANCH  15  16
ATOM     16  C   UNL     1       7.349   4.448  17.269  0.00  0.00    +0.000 C 
BRANCH  16  17
ATOM     17  N   UNL     1       7.587   5.837  17.621  0.00  0.00    +0.000 N 
ATOM     18  C   UNL     1       7.320   6.912  16.813  0.00  0.00    +0.000 A 
ATOM     19  C   UNL     1       7.685   8.054  17.492  0.00  0.00    +0.000 A 
ATOM     20  C   UNL     1       8.198   7.652  18.748  0.00  0.00    +0.000 A 
ATOM     21  C   UNL     1       8.132   6.277  18.799  0.00  0.00    +0.000 A 
ENDBRANCH  16  17
ENDBRANCH  15  16
ENDBRANCH   5  15
TORSDOF 3
ENDMDL
MODEL 7
REMARK VINA RESULT:      -7.2      1.899      3.113
REMARK  Name = 
REMARK  3 active torsions:
REMARK  status: ('A' for Active; 'I' for Inactive)
REMARK    1  A    between atoms: N_5  and  C_6
REMARK    2  A    between atoms: C_6  and  C_7
REMARK    3  A    between atoms: C_7  and  N_8
REMARK                            x       y       z     vdW  Elec       q    Type
REMARK                         _______ _______ _______ _____ _____    ______ ____
ROOT
ATOM      1  O   UNL     1       0.996   4.144  17.088  0.00  0.00    +0.000 OA
ATOM      2  N   UNL     1       2.050   3.887  17.731  0.00  0.00    +0.000 N 
ATOM      3  N   UNL     1       3.181   4.057  17.051  0.00  0.00    +0.000 NA
ATOM      4  C   UNL     1       4.359   3.822  17.647  0.00  0.00    +0.000 A 
ATOM      5  N   UNL     1       5.563   3.962  16.936  0.00  0.00    +0.000 N 
ATOM      6  N   UNL     1       4.429   3.422  18.994  0.00  0.00    +0.000 N 
ATOM      7  O   UNL     1       5.578   3.261  19.551  0.00  0.00    +0.000 OA
ATOM      8  C   UNL     1       3.241   3.233  19.710  0.00  0.00    +0.000 A 
ATOM      9  C   UNL     1       3.232   2.818  21.061  0.00  0.00    +0.000 A 
ATOM     10  C   UNL     1       2.029   2.641  21.747  0.00  0.00    +0.000 A 
ATOM     11  C   UNL     1       0.817   2.875  21.102  0.00  0.00    +0.000 A 
ATOM     12  C   UNL     1       0.808   3.287  19.770  0.00  0.00    +0.000 A 
ATOM     13  C   UNL     1       2.018   3.469  19.063  0.00  0.00    +0.000 A 
ATOM     14  H   UNL     1       6.314   3.987  17.635  0.00  0.00    +0.000 HD
ENDROOT
BRANCH   5  15
ATOM     15  C   UNL     1       5.565   5.001  15.910  0.00  0.00    +0.000 C 
BRANCH  15  16
ATOM     16  C   UNL     1       5.355   6.379  16.542  0.00  0.00    +0.000 C 
BRANCH  16  17
ATOM     17  N   UNL     1       6.508   6.805  17.316  0.00  0.00    +0.000 N 
ATOM     18  C   UNL     1       7.092   8.043  17.243  0.00  0.00    +0.000 A 
ATOM     19  C   UNL     1       8.155   8.063  18.119  0.00  0.00    +0.000 A 
ATOM     20  C   UNL     1       8.218   6.791  18.735  0.00  0.00    +0.000 A 
ATOM     21  C   UNL     1       7.192   6.031  18.216  0.00  0.00    +0.000 A 
ENDBRANCH  16  17
ENDBRANCH  15  16
ENDBRANCH   5  15
TORSDOF 3
ENDMDL
MODEL 8
REMARK VINA RESULT:      -7.1      1.825      3.612
REMARK  Name = 
REMARK  3 active torsions:
REMARK  status: ('A' for Active; 'I' for Inactive)
REMARK    1  A    between atoms: N_5  and  C_6
REMARK    2  A    between atoms: C_6  and  C_7
REMARK    3  A    between atoms: C_7  and  N_8
REMARK                            x       y       z     vdW  Elec       q    Type
REMARK                         _______ _______ _______ _____ _____    ______ ____
ROOT
ATOM      1  O   UNL     1       5.342   1.980  20.251  0.00  0.00    +0.000 OA
ATOM      2  N   UNL     1       4.509   2.717  19.656  0.00  0.00    +0.000 N 
ATOM      3  N   UNL     1       4.951   3.270  18.530  0.00  0.00    +0.000 NA
ATOM      4  C   UNL     1       4.139   4.063  17.814  0.00  0.00    +0.000 A 
ATOM      5  N   UNL     1       4.596   4.686  16.640  0.00  0.00    +0.000 N 
ATOM      6  N   UNL     1       2.813   4.304  18.217  0.00  0.00    +0.000 N 
ATOM      7  O   UNL     1       2.044   5.023  17.477  0.00  0.00    +0.000 OA
ATOM      8  C   UNL     1       2.348   3.731  19.407  0.00  0.00    +0.000 A 
ATOM      9  C   UNL     1       1.034   3.940  19.883  0.00  0.00    +0.000 A 
ATOM     10  C   UNL     1       0.601   3.351  21.072  0.00  0.00    +0.000 A 
ATOM     11  C   UNL     1       1.467   2.546  21.807  0.00  0.00    +0.000 A 
ATOM     12  C   UNL     1       2.767   2.327  21.351  0.00  0.00    +0.000 A 
ATOM     13  C   UNL     1       3.218   2.917  20.149  0.00  0.00    +0.000 A 
ATOM     14  H   UNL     1       3.762   5.017  16.141  0.00  0.00    +0.000 HD
ENDROOT
BRANCH   5  15
ATOM     15  C   UNL     1       5.580   3.926  15.874  0.00  0.00    +0.000 C 
BRANCH  15  16
ATOM     16  C   UNL     1       6.854   4.748  15.673  0.00  0.00    +0.000 C 
BRANCH  16  17
ATOM     17  N   UNL     1       7.288   5.393  16.900  0.00  0.00    +0.000 N 
ATOM     18  C   UNL     1       7.327   6.748  17.107  0.00  0.00    +0.000 A 
ATOM     19  C   UNL     1       7.796   6.968  18.383  0.00  0.00    +0.000 A 
ATOM     20  C   UNL     1       8.055   5.704  18.962  0.00  0.00    +0.000 A 
ATOM     21  C   UNL     1       7.738   4.748  18.021  0.00  0.00    +0.000 A 
ENDBRANCH  16  17
ENDBRANCH  15  16
ENDBRANCH   5  15
TORSDOF 3
ENDMDL
MODEL 9
REMARK VINA RESULT:      -7.0      2.033      3.033
REMARK  Name = 
REMARK  3 active torsions:
REMARK  status: ('A' for Active; 'I' for Inactive)
REMARK    1  A    between atoms: N_5  and  C_6
REMARK    2  A    between atoms: C_6  and  C_7
REMARK    3  A    between atoms: C_7  and  N_8
REMARK                            x       y       z     vdW  Elec       q    Type
REMARK                         _______ _______ _______ _____ _____    ______ ____
ROOT
ATOM      1  O   UNL     1       5.142   1.881  20.163  0.00  0.00    +0.000 OA
ATOM      2  N   UNL     1       4.596   2.913  19.685  0.00  0.00    +0.000 N 
ATOM      3  N   UNL     1       5.406   3.957  19.528  0.00  0.00    +0.000 NA
ATOM      4  C   UNL     1       4.926   5.101  19.016  0.00  0.00    +0.000 A 
ATOM      5  N   UNL     1       5.756   6.226  18.875  0.00  0.00    +0.000 N 
ATOM      6  N   UNL     1       3.583   5.214  18.614  0.00  0.00    +0.000 N 
ATOM      7  O   UNL     1       3.171   6.307  18.074  0.00  0.00    +0.000 OA
ATOM      8  C   UNL     1       2.727   4.120  18.787  0.00  0.00    +0.000 A 
ATOM      9  C   UNL     1       1.363   4.165  18.421  0.00  0.00    +0.000 A 
ATOM     10  C   UNL     1       0.536   3.055  18.603  0.00  0.00    +0.000 A 
ATOM     11  C   UNL     1       1.051   1.884  19.152  0.00  0.00    +0.000 A 
ATOM     12  C   UNL     1       2.396   1.822  19.517  0.00  0.00    +0.000 A 
ATOM     13  C   UNL     1       3.244   2.938  19.339  0.00  0.00    +0.000 A 
ATOM     14  H   UNL     1       5.266   6.873  18.246  0.00  0.00    +0.000 HD
ENDROOT
BRANCH   5  15
ATOM     15  C   UNL     1       7.157   5.936  18.582  0.00  0.00    +0.000 C 
BRANCH  15  16
ATOM     16  C   UNL     1       7.494   6.317  17.140  0.00  0.00    +0.000 C 
BRANCH  16  17
ATOM     17  N   UNL     1       6.771   5.505  16.177  0.00  0.00    +0.000 N 
ATOM     18  C   UNL     1       7.098   4.220  15.827  0.00  0.00    +0.000 A 
ATOM     19  C   UNL     1       6.186   3.792  14.888  0.00  0.00    +0.000 A 
ATOM     20  C   UNL     1       5.284   4.857  14.659  0.00  0.00    +0.000 A 
ATOM     21  C   UNL     1       5.672   5.905  15.464  0.00  0.00    +0.000 A 
ENDBRANCH  16  17
ENDBRANCH  15  16
ENDBRANCH   5  15
TORSDOF 3
ENDMDL
