MODEL 1
REMARK VINA RESULT:      -7.7      0.000      0.000
REMARK  Name = 
REMARK  5 active torsions:
REMARK  status: ('A' for Active; 'I' for Inactive)
REMARK    1  A    between atoms: C_1  and  C_2
REMARK    2  A    between atoms: C_5  and  C_7
REMARK    3  A    between atoms: C_7  and  N_8
REMARK    4  A    between atoms: C_20  and  C_21
REMARK    5  A    between atoms: C_20  and  C_22
REMARK                            x       y       z     vdW  Elec       q    Type
REMARK                         _______ _______ _______ _____ _____    ______ ____
ROOT
ATOM      1  C   UNL     1       3.372   6.280  19.075  0.00  0.00    +0.000 C 
ENDROOT
BRANCH   1   6
ATOM      2  C   UNL     1       8.051   8.117  17.702  0.00  0.00    +0.000 C 
ATOM      3  C   UNL     1       7.125   6.934  17.442  0.00  0.00    +0.000 C 
ATOM      4  C   UNL     1       5.644   7.371  17.485  0.00  0.00    +0.000 C 
ATOM      5  N   UNL     1       4.770   6.295  17.006  0.00  0.00    +0.000 N 
ATOM      6  C   UNL     1       3.716   5.704  17.694  0.00  0.00    +0.000 C 
ATOM      7  O   UNL     1       3.111   4.733  17.235  0.00  0.00    +0.000 OA
ATOM      8  C   UNL     1       5.163   5.773  15.694  0.00  0.00    +0.000 C 
ATOM      9  C   UNL     1       6.635   5.301  15.721  0.00  0.00    +0.000 C 
ATOM     10  C   UNL     1       6.815   4.062  16.614  0.00  0.00    +0.000 C 
ATOM     11  C   UNL     1       7.089   4.947  14.301  0.00  0.00    +0.000 C 
ATOM     12  O   UNL     1       7.489   6.382  16.164  0.00  0.00    +0.000 OA
ENDBRANCH   1   6
BRANCH   1  13
ATOM     13  N   UNL     1       2.525   7.464  18.980  0.00  0.00    +0.000 N 
ATOM     14  C   UNL     1       2.468   8.202  17.826  0.00  0.00    +0.000 A 
ATOM     15  N   UNL     1       1.738   9.252  17.649  0.00  0.00    +0.000 NA
ATOM     16  C   UNL     1       1.001   9.680  18.727  0.00  0.00    +0.000 A 
ATOM     17  C   UNL     1       0.960   9.048  19.909  0.00  0.00    +0.000 A 
ATOM     18  C   UNL     1       1.735   7.801  20.060  0.00  0.00    +0.000 A 
ATOM     19  O   UNL     1       1.635   7.117  21.076  0.00  0.00    +0.000 OA
ATOM     20  C   UNL     1       0.182   9.543  21.086  0.00  0.00    +0.000 C 
ATOM     21  O   UNL     1      -0.279  10.894  20.911  0.00  0.00    +0.000 OA
ATOM     22  C   UNL     1      -0.861  11.095  19.622  0.00  0.00    +0.000 C 
ATOM     23  C   UNL     1       0.202  10.942  18.534  0.00  0.00    +0.000 C 
ENDBRANCH   1  13
TORSDOF 2
ENDMDL
MODEL 2
REMARK VINA RESULT:      -7.4      2.272      3.232
REMARK  Name = 
REMARK  5 active torsions:
REMARK  status: ('A' for Active; 'I' for Inactive)
REMARK    1  A    between atoms: C_1  and  C_2
REMARK    2  A    between atoms: C_5  and  C_7
REMARK    3  A    between atoms: C_7  and  N_8
REMARK    4  A    between atoms: C_20  and  C_21
REMARK    5  A    between atoms: C_20  and  C_22
REMARK                            x       y       z     vdW  Elec       q    Type
REMARK                         _______ _______ _______ _____ _____    ______ ____
ROOT
ATOM      1  C   UNL     1       2.649   7.666  17.935  0.00  0.00    +0.000 C 
ENDROOT
BRANCH   1   6
ATOM      2  C   UNL     1       7.117   5.443  19.436  0.00  0.00    +0.000 C 
ATOM      3  C   UNL     1       5.624   5.148  19.346  0.00  0.00    +0.000 C 
ATOM      4  C   UNL     1       4.997   5.839  18.115  0.00  0.00    +0.000 C 
ATOM      5  N   UNL     1       3.625   5.368  17.896  0.00  0.00    +0.000 N 
ATOM      6  C   UNL     1       2.472   6.144  17.837  0.00  0.00    +0.000 C 
ATOM      7  O   UNL     1       1.355   5.631  17.753  0.00  0.00    +0.000 OA
ATOM      8  C   UNL     1       3.520   3.907  17.834  0.00  0.00    +0.000 C 
ATOM      9  C   UNL     1       4.112   3.270  19.112  0.00  0.00    +0.000 C 
ATOM     10  C   UNL     1       3.260   3.589  20.350  0.00  0.00    +0.000 C 
ATOM     11  C   UNL     1       4.177   1.747  18.945  0.00  0.00    +0.000 C 
ATOM     12  O   UNL     1       5.475   3.718  19.296  0.00  0.00    +0.000 OA
ENDBRANCH   1   6
BRANCH   1  13
ATOM     13  N   UNL     1       1.927   8.230  19.071  0.00  0.00    +0.000 N 
ATOM     14  C   UNL     1       1.923   7.601  20.289  0.00  0.00    +0.000 A 
ATOM     15  N   UNL     1       1.326   8.033  21.349  0.00  0.00    +0.000 NA
ATOM     16  C   UNL     1       0.602   9.193  21.219  0.00  0.00    +0.000 A 
ATOM     17  C   UNL     1       0.527   9.911  20.089  0.00  0.00    +0.000 A 
ATOM     18  C   UNL     1       1.289   9.443  18.913  0.00  0.00    +0.000 A 
ATOM     19  O   UNL     1       1.357  10.126  17.895  0.00  0.00    +0.000 OA
ATOM     20  C   UNL     1      -0.294  11.153  19.948  0.00  0.00    +0.000 C 
ATOM     21  O   UNL     1      -1.206  11.335  21.045  0.00  0.00    +0.000 OA
ATOM     22  C   UNL     1      -0.570  11.120  22.307  0.00  0.00    +0.000 C 
ATOM     23  C   UNL     1      -0.146   9.658  22.441  0.00  0.00    +0.000 C 
ENDBRANCH   1  13
TORSDOF 2
ENDMDL
MODEL 3
REMARK VINA RESULT:      -7.2      2.817      7.520
REMARK  Name = 
REMARK  5 active torsions:
REMARK  status: ('A' for Active; 'I' for Inactive)
REMARK    1  A    between atoms: C_1  and  C_2
REMARK    2  A    between atoms: C_5  and  C_7
REMARK    3  A    between atoms: C_7  and  N_8
REMARK    4  A    between atoms: C_20  and  C_21
REMARK    5  A    between atoms: C_20  and  C_22
REMARK                            x       y       z     vdW  Elec       q    Type
REMARK                         _______ _______ _______ _____ _____    ______ ____
ROOT
ATOM      1  C   UNL     1       6.460   5.060  18.219  0.00  0.00    +0.000 C 
ENDROOT
BRANCH   1   6
ATOM      2  C   UNL     1       2.133   7.953  17.962  0.00  0.00    +0.000 C 
ATOM      3  C   UNL     1       2.580   6.518  18.217  0.00  0.00    +0.000 C 
ATOM      4  C   UNL     1       3.943   6.484  18.942  0.00  0.00    +0.000 C 
ATOM      5  N   UNL     1       4.259   5.124  19.395  0.00  0.00    +0.000 N 
ATOM      6  C   UNL     1       5.386   4.375  19.075  0.00  0.00    +0.000 C 
ATOM      7  O   UNL     1       5.499   3.200  19.429  0.00  0.00    +0.000 OA
ATOM      8  C   UNL     1       3.186   4.517  20.188  0.00  0.00    +0.000 C 
ATOM      9  C   UNL     1       1.858   4.529  19.397  0.00  0.00    +0.000 C 
ATOM     10  C   UNL     1       1.915   3.587  18.183  0.00  0.00    +0.000 C 
ATOM     11  C   UNL     1       0.711   4.078  20.309  0.00  0.00    +0.000 C 
ATOM     12  O   UNL     1       1.544   5.880  18.986  0.00  0.00    +0.000 OA
ENDBRANCH   1   6
BRANCH   1  13
ATOM     13  N   UNL     1       6.369   4.675  16.814  0.00  0.00    +0.000 N 
ATOM     14  C   UNL     1       5.548   3.654  16.412  0.00  0.00    +0.000 A 
ATOM     15  N   UNL     1       5.394   3.256  15.194  0.00  0.00    +0.000 NA
ATOM     16  C   UNL     1       6.158   3.885  14.240  0.00  0.00    +0.000 A 
ATOM     17  C   UNL     1       6.995   4.901  14.495  0.00  0.00    +0.000 A 
ATOM     18  C   UNL     1       7.088   5.396  15.883  0.00  0.00    +0.000 A 
ATOM     19  O   UNL     1       7.742   6.401  16.149  0.00  0.00    +0.000 OA
ATOM     20  C   UNL     1       7.848   5.553  13.453  0.00  0.00    +0.000 C 
ATOM     21  O   UNL     1       7.889   4.802  12.229  0.00  0.00    +0.000 OA
ATOM     22  C   UNL     1       6.588   4.375  11.822  0.00  0.00    +0.000 C 
ATOM     23  C   UNL     1       6.023   3.373  12.829  0.00  0.00    +0.000 C 
ENDBRANCH   1  13
TORSDOF 2
ENDMDL
MODEL 4
REMARK VINA RESULT:      -7.2      2.921      7.497
REMARK  Name = 
REMARK  5 active torsions:
REMARK  status: ('A' for Active; 'I' for Inactive)
REMARK    1  A    between atoms: C_1  and  C_2
REMARK    2  A    between atoms: C_5  and  C_7
REMARK    3  A    between atoms: C_7  and  N_8
REMARK    4  A    between atoms: C_20  and  C_21
REMARK    5  A    between atoms: C_20  and  C_22
REMARK                            x       y       z     vdW  Elec       q    Type
REMARK                         _______ _______ _______ _____ _____    ______ ____
ROOT
ATOM      1  C   UNL     1       2.440   8.135  19.698  0.00  0.00    +0.000 C 
ENDROOT
BRANCH   1   6
ATOM      2  C   UNL     1      -0.792  10.263  23.188  0.00  0.00    +0.000 C 
ATOM      3  C   UNL     1      -0.243  10.506  21.786  0.00  0.00    +0.000 C 
ATOM      4  C   UNL     1      -0.008   9.171  21.046  0.00  0.00    +0.000 C 
ATOM      5  N   UNL     1       0.293   9.407  19.629  0.00  0.00    +0.000 N 
ATOM      6  C   UNL     1       1.424   8.995  18.934  0.00  0.00    +0.000 C 
ATOM      7  O   UNL     1       1.624   9.339  17.767  0.00  0.00    +0.000 OA
ATOM      8  C   UNL     1      -0.702  10.252  18.962  0.00  0.00    +0.000 C 
ATOM      9  C   UNL     1      -0.858  11.595  19.712  0.00  0.00    +0.000 C 
ATOM     10  C   UNL     1       0.408  12.458  19.596  0.00  0.00    +0.000 C 
ATOM     11  C   UNL     1      -2.036  12.379  19.123  0.00  0.00    +0.000 C 
ATOM     12  O   UNL     1      -1.187  11.346  21.098  0.00  0.00    +0.000 OA
ENDBRANCH   1   6
BRANCH   1  13
ATOM     13  N   UNL     1       2.575   6.801  19.121  0.00  0.00    +0.000 N 
ATOM     14  C   UNL     1       3.352   6.586  18.013  0.00  0.00    +0.000 A 
ATOM     15  N   UNL     1       3.540   5.442  17.445  0.00  0.00    +0.000 NA
ATOM     16  C   UNL     1       2.863   4.371  17.978  0.00  0.00    +0.000 A 
ATOM     17  C   UNL     1       2.079   4.441  19.063  0.00  0.00    +0.000 A 
ATOM     18  C   UNL     1       1.948   5.743  19.747  0.00  0.00    +0.000 A 
ATOM     19  O   UNL     1       1.344   5.836  20.813  0.00  0.00    +0.000 OA
ATOM     20  C   UNL     1       1.319   3.276  19.613  0.00  0.00    +0.000 C 
ATOM     21  O   UNL     1       1.291   2.161  18.705  0.00  0.00    +0.000 OA
ATOM     22  C   UNL     1       2.583   1.889  18.157  0.00  0.00    +0.000 C 
ATOM     23  C   UNL     1       3.035   3.051  17.273  0.00  0.00    +0.000 C 
ENDBRANCH   1  13
TORSDOF 2
ENDMDL
MODEL 5
REMARK VINA RESULT:      -7.2      1.901      2.759
REMARK  Name = 
REMARK  5 active torsions:
REMARK  status: ('A' for Active; 'I' for Inactive)
REMARK    1  A    between atoms: C_1  and  C_2
REMARK    2  A    between atoms: C_5  and  C_7
REMARK    3  A    between atoms: C_7  and  N_8
REMARK    4  A    between atoms: C_20  and  C_21
REMARK    5  A    between atoms: C_20  and  C_22
REMARK                            x       y       z     vdW  Elec       q    Type
REMARK                         _______ _______ _______ _____ _____    ______ ____
ROOT
ATOM      1  C   UNL     1       2.185   6.860  18.062  0.00  0.00    +0.000 C 
ENDROOT
BRANCH   1   6
ATOM      2  C   UNL     1       4.225   2.508  20.075  0.00  0.00    +0.000 C 
ATOM      3  C   UNL     1       4.519   3.572  19.024  0.00  0.00    +0.000 C 
ATOM      4  C   UNL     1       3.990   4.953  19.472  0.00  0.00    +0.000 C 
ATOM      5  N   UNL     1       4.475   6.011  18.580  0.00  0.00    +0.000 N 
ATOM      6  C   UNL     1       3.705   6.915  17.857  0.00  0.00    +0.000 C 
ATOM      7  O   UNL     1       4.216   7.698  17.054  0.00  0.00    +0.000 OA
ATOM      8  C   UNL     1       5.931   5.997  18.407  0.00  0.00    +0.000 C 
ATOM      9  C   UNL     1       6.401   4.612  17.907  0.00  0.00    +0.000 C 
ATOM     10  C   UNL     1       5.917   4.334  16.475  0.00  0.00    +0.000 C 
ATOM     11  C   UNL     1       7.932   4.551  17.924  0.00  0.00    +0.000 C 
ATOM     12  O   UNL     1       5.943   3.582  18.814  0.00  0.00    +0.000 OA
ENDBRANCH   1   6
BRANCH   1  13
ATOM     13  N   UNL     1       1.687   8.021  18.791  0.00  0.00    +0.000 N 
ATOM     14  C   UNL     1       1.466   9.214  18.154  0.00  0.00    +0.000 A 
ATOM     15  N   UNL     1       1.014  10.286  18.714  0.00  0.00    +0.000 NA
ATOM     16  C   UNL     1       0.786  10.224  20.068  0.00  0.00    +0.000 A 
ATOM     17  C   UNL     1       0.953   9.121  20.810  0.00  0.00    +0.000 A 
ATOM     18  C   UNL     1       1.387   7.883  20.131  0.00  0.00    +0.000 A 
ATOM     19  O   UNL     1       1.435   6.816  20.738  0.00  0.00    +0.000 OA
ATOM     20  C   UNL     1       0.736   9.075  22.289  0.00  0.00    +0.000 C 
ATOM     21  O   UNL     1       0.610  10.386  22.865  0.00  0.00    +0.000 OA
ATOM     22  C   UNL     1      -0.272  11.217  22.109  0.00  0.00    +0.000 C 
ATOM     23  C   UNL     1       0.322  11.497  20.728  0.00  0.00    +0.000 C 
ENDBRANCH   1  13
TORSDOF 2
ENDMDL
MODEL 6
REMARK VINA RESULT:      -7.0      1.983      3.043
REMARK  Name = 
REMARK  5 active torsions:
REMARK  status: ('A' for Active; 'I' for Inactive)
REMARK    1  A    between atoms: C_1  and  C_2
REMARK    2  A    between atoms: C_5  and  C_7
REMARK    3  A    between atoms: C_7  and  N_8
REMARK    4  A    between atoms: C_20  and  C_21
REMARK    5  A    between atoms: C_20  and  C_22
REMARK                            x       y       z     vdW  Elec       q    Type
REMARK                         _______ _______ _______ _____ _____    ______ ____
ROOT
ATOM      1  C   UNL     1       2.678   7.557  19.906  0.00  0.00    +0.000 C 
ENDROOT
BRANCH   1   6
ATOM      2  C   UNL     1       5.550   5.248  16.222  0.00  0.00    +0.000 C 
ATOM      3  C   UNL     1       4.704   4.908  17.445  0.00  0.00    +0.000 C 
ATOM      4  C   UNL     1       3.517   5.888  17.584  0.00  0.00    +0.000 C 
ATOM      5  N   UNL     1       2.578   5.424  18.612  0.00  0.00    +0.000 N 
ATOM      6  C   UNL     1       2.164   6.120  19.742  0.00  0.00    +0.000 C 
ATOM      7  O   UNL     1       1.450   5.593  20.597  0.00  0.00    +0.000 OA
ATOM      8  C   UNL     1       2.143   4.039  18.413  0.00  0.00    +0.000 C 
ATOM      9  C   UNL     1       3.365   3.096  18.334  0.00  0.00    +0.000 C 
ATOM     10  C   UNL     1       4.094   3.000  19.684  0.00  0.00    +0.000 C 
ATOM     11  C   UNL     1       2.906   1.691  17.927  0.00  0.00    +0.000 C 
ATOM     12  O   UNL     1       4.265   3.547  17.294  0.00  0.00    +0.000 OA
ENDBRANCH   1   6
BRANCH   1  13
ATOM     13  N   UNL     1       1.664   8.546  19.554  0.00  0.00    +0.000 N 
ATOM     14  C   UNL     1       1.399   8.853  18.245  0.00  0.00    +0.000 A 
ATOM     15  N   UNL     1       0.513   9.701  17.842  0.00  0.00    +0.000 NA
ATOM     16  C   UNL     1      -0.180  10.377  18.816  0.00  0.00    +0.000 A 
ATOM     17  C   UNL     1      -0.025  10.169  20.132  0.00  0.00    +0.000 A 
ATOM     18  C   UNL     1       0.932   9.132  20.566  0.00  0.00    +0.000 A 
ATOM     19  O   UNL     1       1.021   8.815  21.750  0.00  0.00    +0.000 OA
ATOM     20  C   UNL     1      -0.760  10.938  21.184  0.00  0.00    +0.000 C 
ATOM     21  O   UNL     1      -1.423  12.097  20.654  0.00  0.00    +0.000 OA
ATOM     22  C   UNL     1      -2.140  11.799  19.455  0.00  0.00    +0.000 C 
ATOM     23  C   UNL     1      -1.166  11.413  18.341  0.00  0.00    +0.000 C 
ENDBRANCH   1  13
TORSDOF 2
ENDMDL
MODEL 7
REMARK VINA RESULT:      -7.0      2.996      4.327
REMARK  Name = 
REMARK  5 active torsions:
REMARK  status: ('A' for Active; 'I' for Inactive)
REMARK    1  A    between atoms: C_1  and  C_2
REMARK    2  A    between atoms: C_5  and  C_7
REMARK    3  A    between atoms: C_7  and  N_8
REMARK    4  A    between atoms: C_20  and  C_21
REMARK    5  A    between atoms: C_20  and  C_22
REMARK                            x       y       z     vdW  Elec       q    Type
REMARK                         _______ _______ _______ _____ _____    ______ ____
ROOT
ATOM      1  C   UNL     1       1.368   8.008  20.608  0.00  0.00    +0.000 C 
ENDROOT
BRANCH   1   6
ATOM      2  C   UNL     1       1.348   2.892  21.600  0.00  0.00    +0.000 C 
ATOM      3  C   UNL     1       1.584   3.872  20.455  0.00  0.00    +0.000 C 
ATOM      4  C   UNL     1       2.229   5.178  20.970  0.00  0.00    +0.000 C 
ATOM      5  N   UNL     1       2.670   6.017  19.850  0.00  0.00    +0.000 N 
ATOM      6  C   UNL     1       2.289   7.328  19.585  0.00  0.00    +0.000 C 
ATOM      7  O   UNL     1       2.640   7.905  18.555  0.00  0.00    +0.000 OA
ATOM      8  C   UNL     1       3.527   5.305  18.898  0.00  0.00    +0.000 C 
ATOM      9  C   UNL     1       2.813   4.037  18.374  0.00  0.00    +0.000 C 
ATOM     10  C   UNL     1       1.603   4.391  17.496  0.00  0.00    +0.000 C 
ATOM     11  C   UNL     1       3.792   3.202  17.541  0.00  0.00    +0.000 C 
ATOM     12  O   UNL     1       2.414   3.204  19.488  0.00  0.00    +0.000 OA
ENDBRANCH   1   6
BRANCH   1  13
ATOM     13  N   UNL     1       0.872   9.295  20.130  0.00  0.00    +0.000 N 
ATOM     14  C   UNL     1       0.330   9.422  18.877  0.00  0.00    +0.000 A 
ATOM     15  N   UNL     1      -0.145  10.514  18.378  0.00  0.00    +0.000 NA
ATOM     16  C   UNL     1      -0.050  11.640  19.159  0.00  0.00    +0.000 A 
ATOM     17  C   UNL     1       0.449  11.654  20.403  0.00  0.00    +0.000 A 
ATOM     18  C   UNL     1       0.907  10.376  20.986  0.00  0.00    +0.000 A 
ATOM     19  O   UNL     1       1.256  10.310  22.161  0.00  0.00    +0.000 OA
ATOM     20  C   UNL     1       0.580  12.894  21.230  0.00  0.00    +0.000 C 
ATOM     21  O   UNL     1       0.384  14.091  20.459  0.00  0.00    +0.000 OA
ATOM     22  C   UNL     1      -0.763  13.997  19.613  0.00  0.00    +0.000 C 
ATOM     23  C   UNL     1      -0.546  12.924  18.547  0.00  0.00    +0.000 C 
ENDBRANCH   1  13
TORSDOF 2
ENDMDL
MODEL 8
REMARK VINA RESULT:      -6.9      2.122      3.150
REMARK  Name = 
REMARK  5 active torsions:
REMARK  status: ('A' for Active; 'I' for Inactive)
REMARK    1  A    between atoms: C_1  and  C_2
REMARK    2  A    between atoms: C_5  and  C_7
REMARK    3  A    between atoms: C_7  and  N_8
REMARK    4  A    between atoms: C_20  and  C_21
REMARK    5  A    between atoms: C_20  and  C_22
REMARK                            x       y       z     vdW  Elec       q    Type
REMARK                         _______ _______ _______ _____ _____    ______ ____
ROOT
ATOM      1  C   UNL     1       2.116   6.864  18.245  0.00  0.00    +0.000 C 
ENDROOT
BRANCH   1   6
ATOM      2  C   UNL     1       4.201   2.461  20.094  0.00  0.00    +0.000 C 
ATOM      3  C   UNL     1       4.458   3.540  19.047  0.00  0.00    +0.000 C 
ATOM      4  C   UNL     1       3.963   4.918  19.541  0.00  0.00    +0.000 C 
ATOM      5  N   UNL     1       4.419   5.986  18.644  0.00  0.00    +0.000 N 
ATOM      6  C   UNL     1       3.625   6.908  17.971  0.00  0.00    +0.000 C 
ATOM      7  O   UNL     1       4.107   7.700  17.157  0.00  0.00    +0.000 OA
ATOM      8  C   UNL     1       5.865   5.960  18.404  0.00  0.00    +0.000 C 
ATOM      9  C   UNL     1       6.297   4.579  17.861  0.00  0.00    +0.000 C 
ATOM     10  C   UNL     1       5.745   4.328  16.449  0.00  0.00    +0.000 C 
ATOM     11  C   UNL     1       7.827   4.503  17.807  0.00  0.00    +0.000 C 
ATOM     12  O   UNL     1       5.870   3.539  18.773  0.00  0.00    +0.000 OA
ENDBRANCH   1   6
BRANCH   1  13
ATOM     13  N   UNL     1       1.683   7.954  19.114  0.00  0.00    +0.000 N 
ATOM     14  C   UNL     1       1.627   7.794  20.474  0.00  0.00    +0.000 A 
ATOM     15  N   UNL     1       1.272   8.704  21.318  0.00  0.00    +0.000 NA
ATOM     16  C   UNL     1       0.875   9.910  20.792  0.00  0.00    +0.000 A 
ATOM     17  C   UNL     1       0.888  10.201  19.484  0.00  0.00    +0.000 A 
ATOM     18  C   UNL     1       1.381   9.174  18.545  0.00  0.00    +0.000 A 
ATOM     19  O   UNL     1       1.532   9.431  17.353  0.00  0.00    +0.000 OA
ATOM     20  C   UNL     1       0.420  11.506  18.920  0.00  0.00    +0.000 C 
ATOM     21  O   UNL     1      -0.301  12.292  19.884  0.00  0.00    +0.000 OA
ATOM     22  C   UNL     1       0.371  12.337  21.144  0.00  0.00    +0.000 C 
ATOM     23  C   UNL     1       0.399  10.946  21.777  0.00  0.00    +0.000 C 
ENDBRANCH   1  13
TORSDOF 2
ENDMDL
MODEL 9
REMARK VINA RESULT:      -6.9      2.800      7.698
REMARK  Name = 
REMARK  5 active torsions:
REMARK  status: ('A' for Active; 'I' for Inactive)
REMARK    1  A    between atoms: C_1  and  C_2
REMARK    2  A    between atoms: C_5  and  C_7
REMARK    3  A    between atoms: C_7  and  N_8
REMARK    4  A    between atoms: C_20  and  C_21
REMARK    5  A    between atoms: C_20  and  C_22
REMARK                            x       y       z     vdW  Elec       q    Type
REMARK                         _______ _______ _______ _____ _____    ______ ____
ROOT
ATOM      1  C   UNL     1       2.408   8.171  19.793  0.00  0.00    +0.000 C 
ENDROOT
BRANCH   1   6
ATOM      2  C   UNL     1      -0.821  10.476  23.171  0.00  0.00    +0.000 C 
ATOM      3  C   UNL     1      -0.304  10.624  21.745  0.00  0.00    +0.000 C 
ATOM      4  C   UNL     1      -0.044   9.242  21.105  0.00  0.00    +0.000 C 
ATOM      5  N   UNL     1       0.224   9.375  19.669  0.00  0.00    +0.000 N 
ATOM      6  C   UNL     1       1.354   8.941  18.985  0.00  0.00    +0.000 C 
ATOM      7  O   UNL     1       1.523   9.199  17.791  0.00  0.00    +0.000 OA
ATOM      8  C   UNL     1      -0.805  10.139  18.958  0.00  0.00    +0.000 C 
ATOM      9  C   UNL     1      -0.986  11.531  19.605  0.00  0.00    +0.000 C 
ATOM     10  C   UNL     1       0.253  12.416  19.398  0.00  0.00    +0.000 C 
ATOM     11  C   UNL     1      -2.197  12.235  18.981  0.00  0.00    +0.000 C 
ATOM     12  O   UNL     1      -1.283  11.382  21.013  0.00  0.00    +0.000 OA
ENDBRANCH   1   6
BRANCH   1  13
ATOM     13  N   UNL     1       2.311   6.729  19.588  0.00  0.00    +0.000 N 
ATOM     14  C   UNL     1       1.519   5.953  20.394  0.00  0.00    +0.000 A 
ATOM     15  N   UNL     1       1.362   4.677  20.278  0.00  0.00    +0.000 NA
ATOM     16  C   UNL     1       2.090   4.053  19.293  0.00  0.00    +0.000 A 
ATOM     17  C   UNL     1       2.895   4.693  18.433  0.00  0.00    +0.000 A 
ATOM     18  C   UNL     1       2.991   6.164  18.530  0.00  0.00    +0.000 A 
ATOM     19  O   UNL     1       3.614   6.810  17.691  0.00  0.00    +0.000 OA
ATOM     20  C   UNL     1       3.711   4.000  17.388  0.00  0.00    +0.000 C 
ATOM     21  O   UNL     1       3.761   2.577  17.586  0.00  0.00    +0.000 OA
ATOM     22  C   UNL     1       2.469   2.033  17.864  0.00  0.00    +0.000 C 
ATOM     23  C   UNL     1       1.953   2.556  19.204  0.00  0.00    +0.000 C 
ENDBRANCH   1  13
TORSDOF 2
ENDMDL
