MODEL 1
REMARK VINA RESULT:      -6.2      0.000      0.000
REMARK  Name = 
REMARK  9 active torsions:
REMARK  status: ('A' for Active; 'I' for Inactive)
REMARK    1  A    between atoms: C_1  and  C_2
REMARK    2  A    between atoms: C_2  and  O_3
REMARK    3  A    between atoms: O_3  and  C_4
REMARK    4  A    between atoms: C_4  and  C_6
REMARK    5  A    between atoms: C_7  and  C_8
REMARK    6  A    between atoms: C_8  and  C_9
REMARK    7  A    between atoms: C_9  and  C_10
REMARK    8  A    between atoms: C_9  and  C_11
REMARK    9  A    between atoms: C_14  and  N_15
REMARK                            x       y       z     vdW  Elec       q    Type
REMARK                         _______ _______ _______ _____ _____    ______ ____
ROOT
ATOM      1  C   UNL     1       5.838   4.285  17.556  0.00  0.00    +0.000 A 
ATOM      2  C   UNL     1       5.093   4.546  16.326  0.00  0.00    +0.000 A 
ATOM      3  C   UNL     1       3.803   4.047  16.411  0.00  0.00    +0.000 A 
ATOM      4  S   UNL     1       3.533   3.147  17.828  0.00  0.00    +0.000 S 
ATOM      5  C   UNL     1       5.044   3.588  18.457  0.00  0.00    +0.000 A 
ENDROOT
BRANCH   5   6
ATOM      6  N   UNL     1       5.196   3.183  19.760  0.00  0.00    +0.000 N 
ATOM      7  C   UNL     1       4.693   2.014  20.246  0.00  0.00    +0.000 C 
ATOM      8  O   UNL     1       4.915   1.608  21.383  0.00  0.00    +0.000 OA
ATOM      9  H   UNL     1       5.956   3.584  20.306  0.00  0.00    +0.000 HD
ENDBRANCH   5   6
BRANCH   1  10
ATOM     10  C   UNL     1       7.221   4.688  17.811  0.00  0.00    +0.000 C 
ATOM     11  O   UNL     1       8.173   4.259  17.172  0.00  0.00    +0.000 OA
BRANCH  10  12
ATOM     12  O   UNL     1       7.338   5.585  18.837  0.00  0.00    +0.000 OA
BRANCH  12  14
ATOM     13  C   UNL     1       7.420   7.618  17.459  0.00  0.00    +0.000 C 
ATOM     14  C   UNL     1       8.072   6.783  18.545  0.00  0.00    +0.000 C 
ENDBRANCH  12  14
ENDBRANCH  10  12
ENDBRANCH   1  10
BRANCH   2  15
ATOM     15  C   UNL     1       5.608   5.252  15.090  0.00  0.00    +0.000 C 
BRANCH  15  16
ATOM     16  C   UNL     1       6.483   4.366  14.176  0.00  0.00    +0.000 C 
ATOM     17  C   UNL     1       5.678   3.687  13.061  0.00  0.00    +0.000 C 
ATOM     18  C   UNL     1       7.592   5.210  13.542  0.00  0.00    +0.000 C 
ENDBRANCH  15  16
ENDBRANCH   2  15
TORSDOF 6
ENDMDL
MODEL 2
REMARK VINA RESULT:      -5.9      3.103      5.381
REMARK  Name = 
REMARK  9 active torsions:
REMARK  status: ('A' for Active; 'I' for Inactive)
REMARK    1  A    between atoms: C_1  and  C_2
REMARK    2  A    between atoms: C_2  and  O_3
REMARK    3  A    between atoms: O_3  and  C_4
REMARK    4  A    between atoms: C_4  and  C_6
REMARK    5  A    between atoms: C_7  and  C_8
REMARK    6  A    between atoms: C_8  and  C_9
REMARK    7  A    between atoms: C_9  and  C_10
REMARK    8  A    between atoms: C_9  and  C_11
REMARK    9  A    between atoms: C_14  and  N_15
REMARK                            x       y       z     vdW  Elec       q    Type
REMARK                         _______ _______ _______ _____ _____    ______ ____
ROOT
ATOM      1  C   UNL     1       4.157   5.577  18.913  0.00  0.00    +0.000 A 
ATOM      2  C   UNL     1       2.907   5.687  19.661  0.00  0.00    +0.000 A 
ATOM      3  C   UNL     1       2.087   6.664  19.118  0.00  0.00    +0.000 A 
ATOM      4  S   UNL     1       2.840   7.543  17.873  0.00  0.00    +0.000 S 
ATOM      5  C   UNL     1       4.178   6.504  17.878  0.00  0.00    +0.000 A 
ENDROOT
BRANCH   5   6
ATOM      6  N   UNL     1       5.035   6.764  16.837  0.00  0.00    +0.000 N 
ATOM      7  C   UNL     1       5.335   5.855  15.868  0.00  0.00    +0.000 C 
ATOM      8  O   UNL     1       6.022   6.122  14.886  0.00  0.00    +0.000 OA
ATOM      9  H   UNL     1       5.209   7.735  16.584  0.00  0.00    +0.000 HD
ENDBRANCH   5   6
BRANCH   1  10
ATOM     10  C   UNL     1       5.240   4.638  19.204  0.00  0.00    +0.000 C 
ATOM     11  O   UNL     1       5.156   3.434  18.999  0.00  0.00    +0.000 OA
BRANCH  10  12
ATOM     12  O   UNL     1       6.348   5.243  19.731  0.00  0.00    +0.000 OA
BRANCH  12  14
ATOM     13  C   UNL     1       8.002   6.690  18.632  0.00  0.00    +0.000 C 
ATOM     14  C   UNL     1       7.508   5.279  18.886  0.00  0.00    +0.000 C 
ENDBRANCH  12  14
ENDBRANCH  10  12
ENDBRANCH   1  10
BRANCH   2  15
ATOM     15  C   UNL     1       2.507   4.878  20.876  0.00  0.00    +0.000 C 
BRANCH  15  16
ATOM     16  C   UNL     1       1.374   3.863  20.612  0.00  0.00    +0.000 C 
ATOM     17  C   UNL     1       1.432   3.261  19.203  0.00  0.00    +0.000 C 
ATOM     18  C   UNL     1       1.443   2.728  21.639  0.00  0.00    +0.000 C 
ENDBRANCH  15  16
ENDBRANCH   2  15
TORSDOF 6
ENDMDL
MODEL 3
REMARK VINA RESULT:      -5.9      2.428      3.064
REMARK  Name = 
REMARK  9 active torsions:
REMARK  status: ('A' for Active; 'I' for Inactive)
REMARK    1  A    between atoms: C_1  and  C_2
REMARK    2  A    between atoms: C_2  and  O_3
REMARK    3  A    between atoms: O_3  and  C_4
REMARK    4  A    between atoms: C_4  and  C_6
REMARK    5  A    between atoms: C_7  and  C_8
REMARK    6  A    between atoms: C_8  and  C_9
REMARK    7  A    between atoms: C_9  and  C_10
REMARK    8  A    between atoms: C_9  and  C_11
REMARK    9  A    between atoms: C_14  and  N_15
REMARK                            x       y       z     vdW  Elec       q    Type
REMARK                         _______ _______ _______ _____ _____    ______ ____
ROOT
ATOM      1  C   UNL     1       4.007   3.974  18.846  0.00  0.00    +0.000 A 
ATOM      2  C   UNL     1       4.121   3.605  17.436  0.00  0.00    +0.000 A 
ATOM      3  C   UNL     1       3.622   2.331  17.213  0.00  0.00    +0.000 A 
ATOM      4  S   UNL     1       3.192   1.528  18.648  0.00  0.00    +0.000 S 
ATOM      5  C   UNL     1       3.448   2.927  19.569  0.00  0.00    +0.000 A 
ENDROOT
BRANCH   5   6
ATOM      6  N   UNL     1       3.035   2.770  20.869  0.00  0.00    +0.000 N 
ATOM      7  C   UNL     1       1.728   2.803  21.250  0.00  0.00    +0.000 C 
ATOM      8  O   UNL     1       1.354   2.564  22.395  0.00  0.00    +0.000 OA
ATOM      9  H   UNL     1       3.661   2.304  21.524  0.00  0.00    +0.000 HD
ENDBRANCH   5   6
BRANCH   1  10
ATOM     10  C   UNL     1       4.423   5.250  19.425  0.00  0.00    +0.000 C 
ATOM     11  O   UNL     1       5.595   5.587  19.533  0.00  0.00    +0.000 OA
BRANCH  10  12
ATOM     12  O   UNL     1       3.371   6.022  19.836  0.00  0.00    +0.000 OA
BRANCH  12  14
ATOM     13  C   UNL     1       3.096   7.535  17.920  0.00  0.00    +0.000 C 
ATOM     14  C   UNL     1       2.478   6.471  18.806  0.00  0.00    +0.000 C 
ENDBRANCH  12  14
ENDBRANCH  10  12
ENDBRANCH   1  10
BRANCH   2  15
ATOM     15  C   UNL     1       4.703   4.452  16.325  0.00  0.00    +0.000 C 
BRANCH  15  16
ATOM     16  C   UNL     1       6.046   3.927  15.770  0.00  0.00    +0.000 C 
ATOM     17  C   UNL     1       6.191   4.151  14.260  0.00  0.00    +0.000 C 
ATOM     18  C   UNL     1       7.210   4.617  16.487  0.00  0.00    +0.000 C 
ENDBRANCH  15  16
ENDBRANCH   2  15
TORSDOF 6
ENDMDL
MODEL 4
REMARK VINA RESULT:      -5.8      3.858      5.921
REMARK  Name = 
REMARK  9 active torsions:
REMARK  status: ('A' for Active; 'I' for Inactive)
REMARK    1  A    between atoms: C_1  and  C_2
REMARK    2  A    between atoms: C_2  and  O_3
REMARK    3  A    between atoms: O_3  and  C_4
REMARK    4  A    between atoms: C_4  and  C_6
REMARK    5  A    between atoms: C_7  and  C_8
REMARK    6  A    between atoms: C_8  and  C_9
REMARK    7  A    between atoms: C_9  and  C_10
REMARK    8  A    between atoms: C_9  and  C_11
REMARK    9  A    between atoms: C_14  and  N_15
REMARK                            x       y       z     vdW  Elec       q    Type
REMARK                         _______ _______ _______ _____ _____    ______ ____
ROOT
ATOM      1  C   UNL     1       3.541   6.122  17.533  0.00  0.00    +0.000 A 
ATOM      2  C   UNL     1       2.939   4.797  17.660  0.00  0.00    +0.000 A 
ATOM      3  C   UNL     1       3.764   3.822  17.121  0.00  0.00    +0.000 A 
ATOM      4  S   UNL     1       5.125   4.468  16.335  0.00  0.00    +0.000 S 
ATOM      5  C   UNL     1       4.766   6.030  16.884  0.00  0.00    +0.000 A 
ENDROOT
BRANCH   5   6
ATOM      6  N   UNL     1       5.771   6.920  16.596  0.00  0.00    +0.000 N 
ATOM      7  C   UNL     1       6.851   7.117  17.403  0.00  0.00    +0.000 C 
ATOM      8  O   UNL     1       7.796   7.839  17.096  0.00  0.00    +0.000 OA
ATOM      9  H   UNL     1       5.898   7.212  15.629  0.00  0.00    +0.000 HD
ENDBRANCH   5   6
BRANCH   1  10
ATOM     10  C   UNL     1       2.948   7.372  18.008  0.00  0.00    +0.000 C 
ATOM     11  O   UNL     1       2.812   8.360  17.299  0.00  0.00    +0.000 OA
BRANCH  10  12
ATOM     12  O   UNL     1       2.569   7.321  19.321  0.00  0.00    +0.000 OA
BRANCH  12  14
ATOM     13  C   UNL     1       1.168   8.132  21.170  0.00  0.00    +0.000 C 
ATOM     14  C   UNL     1       1.682   8.360  19.761  0.00  0.00    +0.000 C 
ENDBRANCH  12  14
ENDBRANCH  10  12
ENDBRANCH   1  10
BRANCH   2  15
ATOM     15  C   UNL     1       1.597   4.469  18.278  0.00  0.00    +0.000 C 
BRANCH  15  16
ATOM     16  C   UNL     1       1.653   3.364  19.356  0.00  0.00    +0.000 C 
ATOM     17  C   UNL     1       1.173   3.851  20.729  0.00  0.00    +0.000 C 
ATOM     18  C   UNL     1       0.792   2.173  18.925  0.00  0.00    +0.000 C 
ENDBRANCH  15  16
ENDBRANCH   2  15
TORSDOF 6
ENDMDL
MODEL 5
REMARK VINA RESULT:      -5.8      3.908      5.939
REMARK  Name = 
REMARK  9 active torsions:
REMARK  status: ('A' for Active; 'I' for Inactive)
REMARK    1  A    between atoms: C_1  and  C_2
REMARK    2  A    between atoms: C_2  and  O_3
REMARK    3  A    between atoms: O_3  and  C_4
REMARK    4  A    between atoms: C_4  and  C_6
REMARK    5  A    between atoms: C_7  and  C_8
REMARK    6  A    between atoms: C_8  and  C_9
REMARK    7  A    between atoms: C_9  and  C_10
REMARK    8  A    between atoms: C_9  and  C_11
REMARK    9  A    between atoms: C_14  and  N_15
REMARK                            x       y       z     vdW  Elec       q    Type
REMARK                         _______ _______ _______ _____ _____    ______ ____
ROOT
ATOM      1  C   UNL     1       3.465   6.176  17.850  0.00  0.00    +0.000 A 
ATOM      2  C   UNL     1       2.946   4.823  17.660  0.00  0.00    +0.000 A 
ATOM      3  C   UNL     1       3.886   4.011  17.046  0.00  0.00    +0.000 A 
ATOM      4  S   UNL     1       5.272   4.861  16.551  0.00  0.00    +0.000 S 
ATOM      5  C   UNL     1       4.753   6.269  17.336  0.00  0.00    +0.000 A 
ENDROOT
BRANCH   5   6
ATOM      6  N   UNL     1       5.719   7.245  17.334  0.00  0.00    +0.000 N 
ATOM      7  C   UNL     1       7.053   6.980  17.265  0.00  0.00    +0.000 C 
ATOM      8  O   UNL     1       7.908   7.855  17.163  0.00  0.00    +0.000 OA
ATOM      9  H   UNL     1       5.454   8.189  17.057  0.00  0.00    +0.000 HD
ENDBRANCH   5   6
BRANCH   1  10
ATOM     10  C   UNL     1       2.743   7.281  18.479  0.00  0.00    +0.000 C 
ATOM     11  O   UNL     1       2.288   7.224  19.614  0.00  0.00    +0.000 OA
BRANCH  10  12
ATOM     12  O   UNL     1       2.628   8.377  17.669  0.00  0.00    +0.000 OA
BRANCH  12  14
ATOM     13  C   UNL     1       1.748  10.586  18.291  0.00  0.00    +0.000 C 
ATOM     14  C   UNL     1       1.443   9.168  17.845  0.00  0.00    +0.000 C 
ENDBRANCH  12  14
ENDBRANCH  10  12
ENDBRANCH   1  10
BRANCH   2  15
ATOM     15  C   UNL     1       1.574   4.319  18.052  0.00  0.00    +0.000 C 
BRANCH  15  16
ATOM     16  C   UNL     1       1.580   3.338  19.245  0.00  0.00    +0.000 C 
ATOM     17  C   UNL     1       1.087   3.982  20.546  0.00  0.00    +0.000 C 
ATOM     18  C   UNL     1       0.697   2.127  18.927  0.00  0.00    +0.000 C 
ENDBRANCH  15  16
ENDBRANCH   2  15
TORSDOF 6
ENDMDL
MODEL 6
REMARK VINA RESULT:      -5.8      2.265      3.658
REMARK  Name = 
REMARK  9 active torsions:
REMARK  status: ('A' for Active; 'I' for Inactive)
REMARK    1  A    between atoms: C_1  and  C_2
REMARK    2  A    between atoms: C_2  and  O_3
REMARK    3  A    between atoms: O_3  and  C_4
REMARK    4  A    between atoms: C_4  and  C_6
REMARK    5  A    between atoms: C_7  and  C_8
REMARK    6  A    between atoms: C_8  and  C_9
REMARK    7  A    between atoms: C_9  and  C_10
REMARK    8  A    between atoms: C_9  and  C_11
REMARK    9  A    between atoms: C_14  and  N_15
REMARK                            x       y       z     vdW  Elec       q    Type
REMARK                         _______ _______ _______ _____ _____    ______ ____
ROOT
ATOM      1  C   UNL     1       4.652   4.029  18.708  0.00  0.00    +0.000 A 
ATOM      2  C   UNL     1       3.494   4.663  18.082  0.00  0.00    +0.000 A 
ATOM      3  C   UNL     1       2.416   3.794  18.034  0.00  0.00    +0.000 A 
ATOM      4  S   UNL     1       2.809   2.223  18.550  0.00  0.00    +0.000 S 
ATOM      5  C   UNL     1       4.348   2.719  19.057  0.00  0.00    +0.000 A 
ENDROOT
BRANCH   5   6
ATOM      6  N   UNL     1       5.008   1.728  19.740  0.00  0.00    +0.000 N 
ATOM      7  C   UNL     1       5.150   1.717  21.095  0.00  0.00    +0.000 C 
ATOM      8  O   UNL     1       5.653   0.781  21.711  0.00  0.00    +0.000 OA
ATOM      9  H   UNL     1       5.123   0.822  19.290  0.00  0.00    +0.000 HD
ENDBRANCH   5   6
BRANCH   1  10
ATOM     10  C   UNL     1       5.949   4.665  18.933  0.00  0.00    +0.000 C 
ATOM     11  O   UNL     1       6.133   5.532  19.777  0.00  0.00    +0.000 OA
BRANCH  10  12
ATOM     12  O   UNL     1       6.929   4.194  18.102  0.00  0.00    +0.000 OA
BRANCH  12  14
ATOM     13  C   UNL     1       6.754   4.741  15.713  0.00  0.00    +0.000 C 
ATOM     14  C   UNL     1       7.355   5.086  17.062  0.00  0.00    +0.000 C 
ENDBRANCH  12  14
ENDBRANCH  10  12
ENDBRANCH   1  10
BRANCH   2  15
ATOM     15  C   UNL     1       3.422   6.073  17.535  0.00  0.00    +0.000 C 
BRANCH  15  16
ATOM     16  C   UNL     1       2.354   6.958  18.213  0.00  0.00    +0.000 C 
ATOM     17  C   UNL     1       2.403   6.880  19.744  0.00  0.00    +0.000 C 
ATOM     18  C   UNL     1       2.540   8.417  17.786  0.00  0.00    +0.000 C 
ENDBRANCH  15  16
ENDBRANCH   2  15
TORSDOF 6
ENDMDL
MODEL 7
REMARK VINA RESULT:      -5.8      2.461      4.006
REMARK  Name = 
REMARK  9 active torsions:
REMARK  status: ('A' for Active; 'I' for Inactive)
REMARK    1  A    between atoms: C_1  and  C_2
REMARK    2  A    between atoms: C_2  and  O_3
REMARK    3  A    between atoms: O_3  and  C_4
REMARK    4  A    between atoms: C_4  and  C_6
REMARK    5  A    between atoms: C_7  and  C_8
REMARK    6  A    between atoms: C_8  and  C_9
REMARK    7  A    between atoms: C_9  and  C_10
REMARK    8  A    between atoms: C_9  and  C_11
REMARK    9  A    between atoms: C_14  and  N_15
REMARK                            x       y       z     vdW  Elec       q    Type
REMARK                         _______ _______ _______ _____ _____    ______ ____
ROOT
ATOM      1  C   UNL     1       4.205   4.028  18.755  0.00  0.00    +0.000 A 
ATOM      2  C   UNL     1       2.881   4.492  18.345  0.00  0.00    +0.000 A 
ATOM      3  C   UNL     1       1.922   3.515  18.562  0.00  0.00    +0.000 A 
ATOM      4  S   UNL     1       2.588   2.035  19.068  0.00  0.00    +0.000 S 
ATOM      5  C   UNL     1       4.129   2.723  19.225  0.00  0.00    +0.000 A 
ENDROOT
BRANCH   5   6
ATOM      6  N   UNL     1       5.020   1.858  19.811  0.00  0.00    +0.000 N 
ATOM      7  C   UNL     1       5.059   1.614  21.150  0.00  0.00    +0.000 C 
ATOM      8  O   UNL     1       5.788   0.767  21.659  0.00  0.00    +0.000 OA
ATOM      9  H   UNL     1       5.451   1.141  19.231  0.00  0.00    +0.000 HD
ENDBRANCH   5   6
BRANCH   1  10
ATOM     10  C   UNL     1       5.439   4.809  18.678  0.00  0.00    +0.000 C 
ATOM     11  O   UNL     1       6.141   5.049  19.652  0.00  0.00    +0.000 OA
BRANCH  10  12
ATOM     12  O   UNL     1       5.722   5.243  17.412  0.00  0.00    +0.000 OA
BRANCH  12  14
ATOM     13  C   UNL     1       6.133   4.133  15.259  0.00  0.00    +0.000 C 
ATOM     14  C   UNL     1       6.636   4.434  16.658  0.00  0.00    +0.000 C 
ENDBRANCH  12  14
ENDBRANCH  10  12
ENDBRANCH   1  10
BRANCH   2  15
ATOM     15  C   UNL     1       2.541   5.842  17.752  0.00  0.00    +0.000 C 
BRANCH  15  16
ATOM     16  C   UNL     1       2.805   7.033  18.700  0.00  0.00    +0.000 C 
ATOM     17  C   UNL     1       2.350   8.373  18.111  0.00  0.00    +0.000 C 
ATOM     18  C   UNL     1       2.084   6.806  20.032  0.00  0.00    +0.000 C 
ENDBRANCH  15  16
ENDBRANCH   2  15
TORSDOF 6
ENDMDL
MODEL 8
REMARK VINA RESULT:      -5.8      2.998      5.319
REMARK  Name = 
REMARK  9 active torsions:
REMARK  status: ('A' for Active; 'I' for Inactive)
REMARK    1  A    between atoms: C_1  and  C_2
REMARK    2  A    between atoms: C_2  and  O_3
REMARK    3  A    between atoms: O_3  and  C_4
REMARK    4  A    between atoms: C_4  and  C_6
REMARK    5  A    between atoms: C_7  and  C_8
REMARK    6  A    between atoms: C_8  and  C_9
REMARK    7  A    between atoms: C_9  and  C_10
REMARK    8  A    between atoms: C_9  and  C_11
REMARK    9  A    between atoms: C_14  and  N_15
REMARK                            x       y       z     vdW  Elec       q    Type
REMARK                         _______ _______ _______ _____ _____    ______ ____
ROOT
ATOM      1  C   UNL     1       5.729   5.463  16.738  0.00  0.00    +0.000 A 
ATOM      2  C   UNL     1       5.044   4.504  17.601  0.00  0.00    +0.000 A 
ATOM      3  C   UNL     1       5.614   4.475  18.865  0.00  0.00    +0.000 A 
ATOM      4  S   UNL     1       7.020   5.423  18.978  0.00  0.00    +0.000 S 
ATOM      5  C   UNL     1       6.778   6.061  17.427  0.00  0.00    +0.000 A 
ENDROOT
BRANCH   5   6
ATOM      6  N   UNL     1       7.661   7.074  17.144  0.00  0.00    +0.000 N 
ATOM      7  C   UNL     1       7.629   8.290  17.757  0.00  0.00    +0.000 C 
ATOM      8  O   UNL     1       8.479   9.157  17.575  0.00  0.00    +0.000 OA
ATOM      9  H   UNL     1       8.551   6.834  16.712  0.00  0.00    +0.000 HD
ENDBRANCH   5   6
BRANCH   1  10
ATOM     10  C   UNL     1       5.379   5.756  15.349  0.00  0.00    +0.000 C 
ATOM     11  O   UNL     1       5.211   6.892  14.926  0.00  0.00    +0.000 OA
BRANCH  10  12
ATOM     12  O   UNL     1       5.254   4.633  14.579  0.00  0.00    +0.000 OA
BRANCH  12  14
ATOM     13  C   UNL     1       6.178   3.497  12.605  0.00  0.00    +0.000 C 
ATOM     14  C   UNL     1       6.452   4.175  13.934  0.00  0.00    +0.000 C 
ENDBRANCH  12  14
ENDBRANCH  10  12
ENDBRANCH   1  10
BRANCH   2  15
ATOM     15  C   UNL     1       3.872   3.625  17.223  0.00  0.00    +0.000 C 
BRANCH  15  16
ATOM     16  C   UNL     1       2.876   3.370  18.376  0.00  0.00    +0.000 C 
ATOM     17  C   UNL     1       1.458   3.857  18.054  0.00  0.00    +0.000 C 
ATOM     18  C   UNL     1       2.825   1.874  18.697  0.00  0.00    +0.000 C 
ENDBRANCH  15  16
ENDBRANCH   2  15
TORSDOF 6
ENDMDL
MODEL 9
REMARK VINA RESULT:      -5.8      1.636      2.013
REMARK  Name = 
REMARK  9 active torsions:
REMARK  status: ('A' for Active; 'I' for Inactive)
REMARK    1  A    between atoms: C_1  and  C_2
REMARK    2  A    between atoms: C_2  and  O_3
REMARK    3  A    between atoms: O_3  and  C_4
REMARK    4  A    between atoms: C_4  and  C_6
REMARK    5  A    between atoms: C_7  and  C_8
REMARK    6  A    between atoms: C_8  and  C_9
REMARK    7  A    between atoms: C_9  and  C_10
REMARK    8  A    between atoms: C_9  and  C_11
REMARK    9  A    between atoms: C_14  and  N_15
REMARK                            x       y       z     vdW  Elec       q    Type
REMARK                         _______ _______ _______ _____ _____    ______ ____
ROOT
ATOM      1  C   UNL     1       4.419   3.994  18.442  0.00  0.00    +0.000 A 
ATOM      2  C   UNL     1       4.171   3.921  17.004  0.00  0.00    +0.000 A 
ATOM      3  C   UNL     1       3.229   2.947  16.710  0.00  0.00    +0.000 A 
ATOM      4  S   UNL     1       2.780   2.029  18.069  0.00  0.00    +0.000 S 
ATOM      5  C   UNL     1       3.652   3.045  19.108  0.00  0.00    +0.000 A 
ENDROOT
BRANCH   5   6
ATOM      6  N   UNL     1       3.423   2.748  20.429  0.00  0.00    +0.000 N 
ATOM      7  C   UNL     1       2.317   3.161  21.109  0.00  0.00    +0.000 C 
ATOM      8  O   UNL     1       2.066   2.811  22.259  0.00  0.00    +0.000 OA
ATOM      9  H   UNL     1       3.904   1.949  20.836  0.00  0.00    +0.000 HD
ENDBRANCH   5   6
BRANCH   1  10
ATOM     10  C   UNL     1       5.341   4.919  19.098  0.00  0.00    +0.000 C 
ATOM     11  O   UNL     1       4.971   5.837  19.819  0.00  0.00    +0.000 OA
BRANCH  10  12
ATOM     12  O   UNL     1       6.654   4.656  18.820  0.00  0.00    +0.000 OA
BRANCH  12  14
ATOM     13  C   UNL     1       7.763   6.761  18.203  0.00  0.00    +0.000 C 
ATOM     14  C   UNL     1       7.598   5.657  19.230  0.00  0.00    +0.000 C 
ENDBRANCH  12  14
ENDBRANCH  10  12
ENDBRANCH   1  10
BRANCH   2  15
ATOM     15  C   UNL     1       4.827   4.761  15.930  0.00  0.00    +0.000 C 
BRANCH  15  16
ATOM     16  C   UNL     1       5.932   4.025  15.141  0.00  0.00    +0.000 C 
ATOM     17  C   UNL     1       5.604   3.888  13.650  0.00  0.00    +0.000 C 
ATOM     18  C   UNL     1       7.261   4.772  15.289  0.00  0.00    +0.000 C 
ENDBRANCH  15  16
ENDBRANCH   2  15
TORSDOF 6
ENDMDL
