MODEL 1
REMARK VINA RESULT:      -8.4      0.000      0.000
REMARK  Name = 
REMARK  8 active torsions:
REMARK  status: ('A' for Active; 'I' for Inactive)
REMARK    1  A    between atoms: C_1  and  O_2
REMARK    2  A    between atoms: O_2  and  C_3
REMARK    3  A    between atoms: C_6  and  N_7
REMARK    4  A    between atoms: N_10  and  C_11
REMARK    5  A    between atoms: C_11  and  C_12
REMARK    6  A    between atoms: C_12  and  N_13
REMARK    7  A    between atoms: C_14  and  C_16
REMARK    8  A    between atoms: N_20  and  C_21
REMARK                            x       y       z     vdW  Elec       q    Type
REMARK                         _______ _______ _______ _____ _____    ______ ____
ROOT
ATOM      1  C   UNL     1       3.794   2.504  17.903  0.00  0.00    +0.000 C 
ENDROOT
BRANCH   1   2
ATOM      2  N   UNL     1       4.943   3.285  17.482  0.00  0.00    +0.000 N 
ATOM      3  C   UNL     1       5.683   4.018  18.381  0.00  0.00    +0.000 C 
ATOM      4  O   UNL     1       5.408   4.069  19.578  0.00  0.00    +0.000 OA
ATOM      5  H   UNL     1       5.080   3.416  16.486  0.00  0.00    +0.000 HD
BRANCH   3   6
ATOM      6  C   UNL     1       6.820   4.853  17.808  0.00  0.00    +0.000 C 
ATOM      7  C   UNL     1       6.375   6.299  17.654  0.00  0.00    +0.000 C 
ATOM      8  C   UNL     1       5.859   6.331  16.243  0.00  0.00    +0.000 C 
ATOM      9  O   UNL     1       5.089   7.170  15.803  0.00  0.00    +0.000 OA
ATOM     10  N   UNL     1       6.429   5.271  15.546  0.00  0.00    +0.000 N 
ATOM     11  C   UNL     1       7.257   4.450  16.412  0.00  0.00    +0.000 C 
BRANCH  10  12
ATOM     12  C   UNL     1       6.217   5.002  14.126  0.00  0.00    +0.000 C 
ATOM     13  C   UNL     1       7.511   5.019  13.310  0.00  0.00    +0.000 C 
ATOM     14  C   UNL     1       7.172   4.279  12.028  0.00  0.00    +0.000 C 
ATOM     15  C   UNL     1       6.075   3.287  12.395  0.00  0.00    +0.000 C 
ATOM     16  C   UNL     1       5.648   3.615  13.822  0.00  0.00    +0.000 C 
ENDBRANCH  10  12
ENDBRANCH   3   6
ENDBRANCH   1   2
BRANCH   1  17
ATOM     17  C   UNL     1       3.140   3.091  19.166  0.00  0.00    +0.000 C 
BRANCH  17  21
ATOM     18  N   UNL     1       2.171   6.529  19.564  0.00  0.00    +0.000 N 
ATOM     19  C   UNL     1       2.004   5.556  20.653  0.00  0.00    +0.000 C 
ATOM     20  C   UNL     1       1.241   4.306  20.158  0.00  0.00    +0.000 C 
ATOM     21  N   UNL     1       1.801   3.668  18.936  0.00  0.00    +0.000 NA
ATOM     22  C   UNL     1       1.872   4.724  17.891  0.00  0.00    +0.000 C 
ATOM     23  C   UNL     1       2.667   5.994  18.287  0.00  0.00    +0.000 C 
BRANCH  18  27
ATOM     24  C   UNL     1       0.838  10.525  19.813  0.00  0.00    +0.000 A 
ATOM     25  C   UNL     1       1.345  10.020  18.621  0.00  0.00    +0.000 A 
ATOM     26  C   UNL     1       1.794   8.700  18.547  0.00  0.00    +0.000 A 
ATOM     27  C   UNL     1       1.766   7.845  19.661  0.00  0.00    +0.000 A 
ATOM     28  C   UNL     1       1.294   8.392  20.860  0.00  0.00    +0.000 A 
ATOM     29  C   UNL     1       0.835   9.714  20.942  0.00  0.00    +0.000 A 
BRANCH  24  31
ATOM     30  C   UNL     1      -0.422  12.148  18.665  0.00  0.00    +0.000 C 
ATOM     31  O   UNL     1       0.407  11.823  19.774  0.00  0.00    +0.000 OA
ENDBRANCH  24  31
ENDBRANCH  18  27
ENDBRANCH  17  21
ENDBRANCH   1  17
TORSDOF 7
ENDMDL
MODEL 2
REMARK VINA RESULT:      -8.4      1.008      1.081
REMARK  Name = 
REMARK  8 active torsions:
REMARK  status: ('A' for Active; 'I' for Inactive)
REMARK    1  A    between atoms: C_1  and  O_2
REMARK    2  A    between atoms: O_2  and  C_3
REMARK    3  A    between atoms: C_6  and  N_7
REMARK    4  A    between atoms: N_10  and  C_11
REMARK    5  A    between atoms: C_11  and  C_12
REMARK    6  A    between atoms: C_12  and  N_13
REMARK    7  A    between atoms: C_14  and  C_16
REMARK    8  A    between atoms: N_20  and  C_21
REMARK                            x       y       z     vdW  Elec       q    Type
REMARK                         _______ _______ _______ _____ _____    ______ ____
ROOT
ATOM      1  C   UNL     1       4.263   3.163  19.764  0.00  0.00    +0.000 C 
ENDROOT
BRANCH   1   2
ATOM      2  N   UNL     1       5.538   3.471  19.141  0.00  0.00    +0.000 N 
ATOM      3  C   UNL     1       6.116   4.714  19.262  0.00  0.00    +0.000 C 
ATOM      4  O   UNL     1       5.585   5.633  19.884  0.00  0.00    +0.000 OA
ATOM      5  H   UNL     1       5.905   2.805  18.471  0.00  0.00    +0.000 HD
BRANCH   3   6
ATOM      6  C   UNL     1       7.417   4.938  18.504  0.00  0.00    +0.000 C 
ATOM      7  C   UNL     1       7.638   6.426  18.280  0.00  0.00    +0.000 C 
ATOM      8  C   UNL     1       7.005   6.650  16.936  0.00  0.00    +0.000 C 
ATOM      9  O   UNL     1       6.633   7.733  16.514  0.00  0.00    +0.000 OA
ATOM     10  N   UNL     1       6.953   5.429  16.270  0.00  0.00    +0.000 N 
ATOM     11  C   UNL     1       7.442   4.348  17.106  0.00  0.00    +0.000 C 
BRANCH  10  12
ATOM     12  C   UNL     1       6.457   5.249  14.908  0.00  0.00    +0.000 C 
ATOM     13  C   UNL     1       7.574   5.063  13.881  0.00  0.00    +0.000 C 
ATOM     14  C   UNL     1       6.895   4.437  12.676  0.00  0.00    +0.000 C 
ATOM     15  C   UNL     1       5.717   3.642  13.225  0.00  0.00    +0.000 C 
ATOM     16  C   UNL     1       5.605   3.994  14.705  0.00  0.00    +0.000 C 
ENDBRANCH  10  12
ENDBRANCH   3   6
ENDBRANCH   1   2
BRANCH   1  17
ATOM     17  C   UNL     1       3.239   2.649  18.738  0.00  0.00    +0.000 C 
BRANCH  17  21
ATOM     18  N   UNL     1       2.331   6.092  19.226  0.00  0.00    +0.000 N 
ATOM     19  C   UNL     1       2.561   5.193  20.365  0.00  0.00    +0.000 C 
ATOM     20  C   UNL     1       1.723   3.901  20.221  0.00  0.00    +0.000 C 
ATOM     21  N   UNL     1       1.878   3.190  18.925  0.00  0.00    +0.000 NA
ATOM     22  C   UNL     1       1.568   4.173  17.852  0.00  0.00    +0.000 C 
ATOM     23  C   UNL     1       2.404   5.478  17.891  0.00  0.00    +0.000 C 
BRANCH  18  27
ATOM     24  C   UNL     1       1.019  10.083  19.620  0.00  0.00    +0.000 A 
ATOM     25  C   UNL     1       1.529   9.621  18.412  0.00  0.00    +0.000 A 
ATOM     26  C   UNL     1       1.971   8.302  18.290  0.00  0.00    +0.000 A 
ATOM     27  C   UNL     1       1.933   7.405  19.370  0.00  0.00    +0.000 A 
ATOM     28  C   UNL     1       1.458   7.909  20.588  0.00  0.00    +0.000 A 
ATOM     29  C   UNL     1       1.006   9.230  20.718  0.00  0.00    +0.000 A 
BRANCH  24  31
ATOM     30  C   UNL     1       1.397  12.273  20.396  0.00  0.00    +0.000 C 
ATOM     31  O   UNL     1       0.595  11.384  19.629  0.00  0.00    +0.000 OA
ENDBRANCH  24  31
ENDBRANCH  18  27
ENDBRANCH  17  21
ENDBRANCH   1  17
TORSDOF 7
ENDMDL
MODEL 3
REMARK VINA RESULT:      -8.0      3.675      5.947
REMARK  Name = 
REMARK  8 active torsions:
REMARK  status: ('A' for Active; 'I' for Inactive)
REMARK    1  A    between atoms: C_1  and  O_2
REMARK    2  A    between atoms: O_2  and  C_3
REMARK    3  A    between atoms: C_6  and  N_7
REMARK    4  A    between atoms: N_10  and  C_11
REMARK    5  A    between atoms: C_11  and  C_12
REMARK    6  A    between atoms: C_12  and  N_13
REMARK    7  A    between atoms: C_14  and  C_16
REMARK    8  A    between atoms: N_20  and  C_21
REMARK                            x       y       z     vdW  Elec       q    Type
REMARK                         _______ _______ _______ _____ _____    ______ ____
ROOT
ATOM      1  C   UNL     1       1.841   7.509  21.284  0.00  0.00    +0.000 C 
ENDROOT
BRANCH   1   2
ATOM      2  N   UNL     1       1.956   6.607  20.152  0.00  0.00    +0.000 N 
ATOM      3  C   UNL     1       2.032   5.244  20.323  0.00  0.00    +0.000 C 
ATOM      4  O   UNL     1       2.025   4.715  21.433  0.00  0.00    +0.000 OA
ATOM      5  H   UNL     1       2.153   7.016  19.246  0.00  0.00    +0.000 HD
BRANCH   3   6
ATOM      6  C   UNL     1       2.221   4.408  19.065  0.00  0.00    +0.000 C 
ATOM      7  C   UNL     1       2.685   3.008  19.437  0.00  0.00    +0.000 C 
ATOM      8  C   UNL     1       4.181   3.137  19.381  0.00  0.00    +0.000 C 
ATOM      9  O   UNL     1       4.965   2.384  19.938  0.00  0.00    +0.000 OA
ATOM     10  N   UNL     1       4.495   4.226  18.575  0.00  0.00    +0.000 N 
ATOM     11  C   UNL     1       3.300   4.917  18.127  0.00  0.00    +0.000 C 
BRANCH  10  12
ATOM     12  C   UNL     1       5.853   4.637  18.230  0.00  0.00    +0.000 C 
ATOM     13  C   UNL     1       5.915   5.541  16.998  0.00  0.00    +0.000 C 
ATOM     14  C   UNL     1       7.269   6.223  17.082  0.00  0.00    +0.000 C 
ATOM     15  C   UNL     1       7.605   6.305  18.566  0.00  0.00    +0.000 C 
ATOM     16  C   UNL     1       6.550   5.482  19.299  0.00  0.00    +0.000 C 
ENDBRANCH  10  12
ENDBRANCH   3   6
ENDBRANCH   1   2
BRANCH   1  17
ATOM     17  C   UNL     1       1.374   8.909  20.850  0.00  0.00    +0.000 C 
BRANCH  17  21
ATOM     18  N   UNL     1      -0.683  11.352  22.498  0.00  0.00    +0.000 N 
ATOM     19  C   UNL     1      -0.450  10.026  23.087  0.00  0.00    +0.000 C 
ATOM     20  C   UNL     1      -0.768   8.909  22.065  0.00  0.00    +0.000 C 
ATOM     21  N   UNL     1      -0.092   9.048  20.748  0.00  0.00    +0.000 NA
ATOM     22  C   UNL     1      -0.441  10.396  20.223  0.00  0.00    +0.000 C 
ATOM     23  C   UNL     1      -0.105  11.580  21.164  0.00  0.00    +0.000 C 
BRANCH  18  27
ATOM     24  C   UNL     1      -3.215  14.289  24.162  0.00  0.00    +0.000 A 
ATOM     25  C   UNL     1      -1.893  14.587  23.852  0.00  0.00    +0.000 A 
ATOM     26  C   UNL     1      -1.056  13.609  23.310  0.00  0.00    +0.000 A 
ATOM     27  C   UNL     1      -1.506  12.298  23.074  0.00  0.00    +0.000 A 
ATOM     28  C   UNL     1      -2.827  12.013  23.439  0.00  0.00    +0.000 A 
ATOM     29  C   UNL     1      -3.676  12.991  23.976  0.00  0.00    +0.000 A 
BRANCH  24  31
ATOM     30  C   UNL     1      -5.162  15.597  23.969  0.00  0.00    +0.000 C 
ATOM     31  O   UNL     1      -3.955  15.322  24.668  0.00  0.00    +0.000 OA
ENDBRANCH  24  31
ENDBRANCH  18  27
ENDBRANCH  17  21
ENDBRANCH   1  17
TORSDOF 7
ENDMDL
MODEL 4
REMARK VINA RESULT:      -7.8      0.958      1.228
REMARK  Name = 
REMARK  8 active torsions:
REMARK  status: ('A' for Active; 'I' for Inactive)
REMARK    1  A    between atoms: C_1  and  O_2
REMARK    2  A    between atoms: O_2  and  C_3
REMARK    3  A    between atoms: C_6  and  N_7
REMARK    4  A    between atoms: N_10  and  C_11
REMARK    5  A    between atoms: C_11  and  C_12
REMARK    6  A    between atoms: C_12  and  N_13
REMARK    7  A    between atoms: C_14  and  C_16
REMARK    8  A    between atoms: N_20  and  C_21
REMARK                            x       y       z     vdW  Elec       q    Type
REMARK                         _______ _______ _______ _____ _____    ______ ____
ROOT
ATOM      1  C   UNL     1       4.683   3.336  19.353  0.00  0.00    +0.000 C 
ENDROOT
BRANCH   1   2
ATOM      2  N   UNL     1       5.675   3.957  18.493  0.00  0.00    +0.000 N 
ATOM      3  C   UNL     1       6.532   4.925  18.966  0.00  0.00    +0.000 C 
ATOM      4  O   UNL     1       6.498   5.329  20.127  0.00  0.00    +0.000 OA
ATOM      5  H   UNL     1       5.603   3.786  17.497  0.00  0.00    +0.000 HD
BRANCH   3   6
ATOM      6  C   UNL     1       7.478   5.551  17.952  0.00  0.00    +0.000 C 
ATOM      7  C   UNL     1       6.802   6.730  17.269  0.00  0.00    +0.000 C 
ATOM      8  C   UNL     1       6.185   6.092  16.057  0.00  0.00    +0.000 C 
ATOM      9  O   UNL     1       5.262   6.569  15.414  0.00  0.00    +0.000 OA
ATOM     10  N   UNL     1       6.863   4.906  15.795  0.00  0.00    +0.000 N 
ATOM     11  C   UNL     1       7.870   4.637  16.805  0.00  0.00    +0.000 C 
BRANCH  10  12
ATOM     12  C   UNL     1       6.593   4.030  14.659  0.00  0.00    +0.000 C 
ATOM     13  C   UNL     1       5.131   4.058  14.211  0.00  0.00    +0.000 C 
ATOM     14  C   UNL     1       5.146   3.499  12.799  0.00  0.00    +0.000 C 
ATOM     15  C   UNL     1       6.514   3.846  12.225  0.00  0.00    +0.000 C 
ATOM     16  C   UNL     1       7.342   4.405  13.378  0.00  0.00    +0.000 C 
ENDBRANCH  10  12
ENDBRANCH   3   6
ENDBRANCH   1   2
BRANCH   1  17
ATOM     17  C   UNL     1       3.516   2.750  18.541  0.00  0.00    +0.000 C 
BRANCH  17  21
ATOM     18  N   UNL     1       2.479   6.152  19.055  0.00  0.00    +0.000 N 
ATOM     19  C   UNL     1       2.999   5.336  20.161  0.00  0.00    +0.000 C 
ATOM     20  C   UNL     1       2.244   3.989  20.248  0.00  0.00    +0.000 C 
ATOM     21  N   UNL     1       2.185   3.215  18.980  0.00  0.00    +0.000 NA
ATOM     22  C   UNL     1       1.595   4.115  17.952  0.00  0.00    +0.000 C 
ATOM     23  C   UNL     1       2.324   5.469  17.761  0.00  0.00    +0.000 C 
BRANCH  18  27
ATOM     24  C   UNL     1       0.995  10.076  19.517  0.00  0.00    +0.000 A 
ATOM     25  C   UNL     1       1.495   9.647  18.293  0.00  0.00    +0.000 A 
ATOM     26  C   UNL     1       1.994   8.351  18.147  0.00  0.00    +0.000 A 
ATOM     27  C   UNL     1       2.024   7.445  19.221  0.00  0.00    +0.000 A 
ATOM     28  C   UNL     1       1.558   7.917  20.454  0.00  0.00    +0.000 A 
ATOM     29  C   UNL     1       1.049   9.214  20.607  0.00  0.00    +0.000 A 
BRANCH  24  31
ATOM     30  C   UNL     1       0.740  12.055  20.764  0.00  0.00    +0.000 C 
ATOM     31  O   UNL     1       0.513  11.355  19.548  0.00  0.00    +0.000 OA
ENDBRANCH  24  31
ENDBRANCH  18  27
ENDBRANCH  17  21
ENDBRANCH   1  17
TORSDOF 7
ENDMDL
MODEL 5
REMARK VINA RESULT:      -7.7      5.135     11.473
REMARK  Name = 
REMARK  8 active torsions:
REMARK  status: ('A' for Active; 'I' for Inactive)
REMARK    1  A    between atoms: C_1  and  O_2
REMARK    2  A    between atoms: O_2  and  C_3
REMARK    3  A    between atoms: C_6  and  N_7
REMARK    4  A    between atoms: N_10  and  C_11
REMARK    5  A    between atoms: C_11  and  C_12
REMARK    6  A    between atoms: C_12  and  N_13
REMARK    7  A    between atoms: C_14  and  C_16
REMARK    8  A    between atoms: N_20  and  C_21
REMARK                            x       y       z     vdW  Elec       q    Type
REMARK                         _______ _______ _______ _____ _____    ______ ____
ROOT
ATOM      1  C   UNL     1      -1.619  11.389  22.995  0.00  0.00    +0.000 C 
ENDROOT
BRANCH   1   2
ATOM      2  N   UNL     1      -2.538  12.483  22.740  0.00  0.00    +0.000 N 
ATOM      3  C   UNL     1      -3.706  12.623  23.456  0.00  0.00    +0.000 C 
ATOM      4  O   UNL     1      -4.044  11.828  24.331  0.00  0.00    +0.000 OA
ATOM      5  H   UNL     1      -2.385  13.039  21.907  0.00  0.00    +0.000 HD
BRANCH   3   6
ATOM      6  C   UNL     1      -4.622  13.768  23.049  0.00  0.00    +0.000 C 
ATOM      7  C   UNL     1      -5.962  13.637  23.756  0.00  0.00    +0.000 C 
ATOM      8  C   UNL     1      -6.775  12.850  22.768  0.00  0.00    +0.000 C 
ATOM      9  O   UNL     1      -7.779  12.212  23.044  0.00  0.00    +0.000 OA
ATOM     10  N   UNL     1      -6.201  13.004  21.510  0.00  0.00    +0.000 N 
ATOM     11  C   UNL     1      -4.984  13.792  21.575  0.00  0.00    +0.000 C 
BRANCH  10  12
ATOM     12  C   UNL     1      -6.742  12.437  20.277  0.00  0.00    +0.000 C 
ATOM     13  C   UNL     1      -5.841  12.666  19.063  0.00  0.00    +0.000 C 
ATOM     14  C   UNL     1      -6.300  11.643  18.039  0.00  0.00    +0.000 C 
ATOM     15  C   UNL     1      -6.850  10.468  18.838  0.00  0.00    +0.000 C 
ATOM     16  C   UNL     1      -6.898  10.915  20.295  0.00  0.00    +0.000 C 
ENDBRANCH  10  12
ENDBRANCH   3   6
ENDBRANCH   1   2
BRANCH   1  17
ATOM     17  C   UNL     1      -0.936  10.909  21.702  0.00  0.00    +0.000 C 
BRANCH  17  21
ATOM     18  N   UNL     1       1.234   8.637  19.957  0.00  0.00    +0.000 N 
ATOM     19  C   UNL     1       0.744   8.339  21.311  0.00  0.00    +0.000 C 
ATOM     20  C   UNL     1       1.021   9.523  22.266  0.00  0.00    +0.000 C 
ATOM     21  N   UNL     1       0.537  10.846  21.788  0.00  0.00    +0.000 NA
ATOM     22  C   UNL     1       1.137  11.066  20.445  0.00  0.00    +0.000 C 
ATOM     23  C   UNL     1       0.861   9.949  19.407  0.00  0.00    +0.000 C 
BRANCH  18  27
ATOM     24  C   UNL     1       3.988   6.180  17.910  0.00  0.00    +0.000 A 
ATOM     25  C   UNL     1       3.634   7.425  17.401  0.00  0.00    +0.000 A 
ATOM     26  C   UNL     1       2.715   8.230  18.078  0.00  0.00    +0.000 A 
ATOM     27  C   UNL     1       2.108   7.815  19.275  0.00  0.00    +0.000 A 
ATOM     28  C   UNL     1       2.446   6.538  19.741  0.00  0.00    +0.000 A 
ATOM     29  C   UNL     1       3.373   5.727  19.072  0.00  0.00    +0.000 A 
BRANCH  24  31
ATOM     30  C   UNL     1       5.211   6.029  15.905  0.00  0.00    +0.000 C 
ATOM     31  O   UNL     1       4.910   5.481  17.182  0.00  0.00    +0.000 OA
ENDBRANCH  24  31
ENDBRANCH  18  27
ENDBRANCH  17  21
ENDBRANCH   1  17
TORSDOF 7
ENDMDL
MODEL 6
REMARK VINA RESULT:      -7.5      6.716      8.430
REMARK  Name = 
REMARK  8 active torsions:
REMARK  status: ('A' for Active; 'I' for Inactive)
REMARK    1  A    between atoms: C_1  and  O_2
REMARK    2  A    between atoms: O_2  and  C_3
REMARK    3  A    between atoms: C_6  and  N_7
REMARK    4  A    between atoms: N_10  and  C_11
REMARK    5  A    between atoms: C_11  and  C_12
REMARK    6  A    between atoms: C_12  and  N_13
REMARK    7  A    between atoms: C_14  and  C_16
REMARK    8  A    between atoms: N_20  and  C_21
REMARK                            x       y       z     vdW  Elec       q    Type
REMARK                         _______ _______ _______ _____ _____    ______ ____
ROOT
ATOM      1  C   UNL     1       8.385   8.540  18.173  0.00  0.00    +0.000 C 
ENDROOT
BRANCH   1   2
ATOM      2  N   UNL     1       7.382   7.938  17.313  0.00  0.00    +0.000 N 
ATOM      3  C   UNL     1       7.035   6.612  17.431  0.00  0.00    +0.000 C 
ATOM      4  O   UNL     1       7.560   5.862  18.252  0.00  0.00    +0.000 OA
ATOM      5  H   UNL     1       7.072   8.474  16.510  0.00  0.00    +0.000 HD
BRANCH   3   6
ATOM      6  C   UNL     1       6.025   6.079  16.425  0.00  0.00    +0.000 C 
ATOM      7  C   UNL     1       4.867   7.055  16.285  0.00  0.00    +0.000 C 
ATOM      8  C   UNL     1       3.885   6.542  17.299  0.00  0.00    +0.000 C 
ATOM      9  O   UNL     1       2.978   7.200  17.784  0.00  0.00    +0.000 OA
ATOM     10  N   UNL     1       4.177   5.205  17.551  0.00  0.00    +0.000 N 
ATOM     11  C   UNL     1       5.361   4.775  16.829  0.00  0.00    +0.000 C 
BRANCH  10  12
ATOM     12  C   UNL     1       3.405   4.341  18.440  0.00  0.00    +0.000 C 
ATOM     13  C   UNL     1       2.031   3.972  17.877  0.00  0.00    +0.000 C 
ATOM     14  C   UNL     1       1.603   2.748  18.667  0.00  0.00    +0.000 C 
ATOM     15  C   UNL     1       2.889   2.040  19.073  0.00  0.00    +0.000 C 
ATOM     16  C   UNL     1       4.037   2.973  18.700  0.00  0.00    +0.000 C 
ENDBRANCH  10  12
ENDBRANCH   3   6
ENDBRANCH   1   2
BRANCH   1  17
ATOM     17  C   UNL     1       8.328  10.077  18.123  0.00  0.00    +0.000 C 
BRANCH  17  21
ATOM     18  N   UNL     1       9.226  12.871  20.198  0.00  0.00    +0.000 N 
ATOM     19  C   UNL     1       8.777  13.061  18.811  0.00  0.00    +0.000 C 
ATOM     20  C   UNL     1       9.593  12.171  17.844  0.00  0.00    +0.000 C 
ATOM     21  N   UNL     1       9.649  10.730  18.208  0.00  0.00    +0.000 NA
ATOM     22  C   UNL     1      10.167  10.655  19.600  0.00  0.00    +0.000 C 
ATOM     23  C   UNL     1       9.372  11.477  20.647  0.00  0.00    +0.000 C 
BRANCH  18  27
ATOM     24  C   UNL     1      10.389  16.122  22.623  0.00  0.00    +0.000 A 
ATOM     25  C   UNL     1      10.977  15.920  21.380  0.00  0.00    +0.000 A 
ATOM     26  C   UNL     1      10.596  14.836  20.585  0.00  0.00    +0.000 A 
ATOM     27  C   UNL     1       9.627  13.912  21.009  0.00  0.00    +0.000 A 
ATOM     28  C   UNL     1       9.084  14.113  22.285  0.00  0.00    +0.000 A 
ATOM     29  C   UNL     1       9.455  15.202  23.086  0.00  0.00    +0.000 A 
BRANCH  24  31
ATOM     30  C   UNL     1      11.780  16.960  24.326  0.00  0.00    +0.000 C 
ATOM     31  O   UNL     1      10.818  17.223  23.312  0.00  0.00    +0.000 OA
ENDBRANCH  24  31
ENDBRANCH  18  27
ENDBRANCH  17  21
ENDBRANCH   1  17
TORSDOF 7
ENDMDL
MODEL 7
REMARK VINA RESULT:      -7.4      6.939      8.700
REMARK  Name = 
REMARK  8 active torsions:
REMARK  status: ('A' for Active; 'I' for Inactive)
REMARK    1  A    between atoms: C_1  and  O_2
REMARK    2  A    between atoms: O_2  and  C_3
REMARK    3  A    between atoms: C_6  and  N_7
REMARK    4  A    between atoms: N_10  and  C_11
REMARK    5  A    between atoms: C_11  and  C_12
REMARK    6  A    between atoms: C_12  and  N_13
REMARK    7  A    between atoms: C_14  and  C_16
REMARK    8  A    between atoms: N_20  and  C_21
REMARK                            x       y       z     vdW  Elec       q    Type
REMARK                         _______ _______ _______ _____ _____    ______ ____
ROOT
ATOM      1  C   UNL     1       8.361   8.395  18.228  0.00  0.00    +0.000 C 
ENDROOT
BRANCH   1   2
ATOM      2  N   UNL     1       7.205   8.033  17.427  0.00  0.00    +0.000 N 
ATOM      3  C   UNL     1       6.953   6.726  17.077  0.00  0.00    +0.000 C 
ATOM      4  O   UNL     1       7.693   5.799  17.403  0.00  0.00    +0.000 OA
ATOM      5  H   UNL     1       6.687   8.784  16.987  0.00  0.00    +0.000 HD
BRANCH   3   6
ATOM      6  C   UNL     1       5.752   6.481  16.176  0.00  0.00    +0.000 C 
ATOM      7  C   UNL     1       4.509   7.111  16.784  0.00  0.00    +0.000 C 
ATOM      8  C   UNL     1       3.931   5.981  17.588  0.00  0.00    +0.000 C 
ATOM      9  O   UNL     1       3.145   6.116  18.512  0.00  0.00    +0.000 OA
ATOM     10  N   UNL     1       4.424   4.785  17.075  0.00  0.00    +0.000 N 
ATOM     11  C   UNL     1       5.378   5.019  16.006  0.00  0.00    +0.000 C 
BRANCH  10  12
ATOM     12  C   UNL     1       4.045   3.459  17.555  0.00  0.00    +0.000 C 
ATOM     13  C   UNL     1       4.329   3.253  19.043  0.00  0.00    +0.000 C 
ATOM     14  C   UNL     1       3.469   2.067  19.443  0.00  0.00    +0.000 C 
ATOM     15  C   UNL     1       2.264   2.091  18.512  0.00  0.00    +0.000 C 
ATOM     16  C   UNL     1       2.549   3.153  17.455  0.00  0.00    +0.000 C 
ENDBRANCH  10  12
ENDBRANCH   3   6
ENDBRANCH   1   2
BRANCH   1  17
ATOM     17  C   UNL     1       8.547   9.920  18.298  0.00  0.00    +0.000 C 
BRANCH  17  21
ATOM     18  N   UNL     1       9.598  13.268  19.076  0.00  0.00    +0.000 N 
ATOM     19  C   UNL     1       9.838  12.679  17.751  0.00  0.00    +0.000 C 
ATOM     20  C   UNL     1      10.540  11.307  17.881  0.00  0.00    +0.000 C 
ATOM     21  N   UNL     1       9.872  10.342  18.794  0.00  0.00    +0.000 NA
ATOM     22  C   UNL     1       9.732  11.019  20.112  0.00  0.00    +0.000 C 
ATOM     23  C   UNL     1       8.992  12.380  20.080  0.00  0.00    +0.000 C 
BRANCH  18  27
ATOM     24  C   UNL     1      11.020  17.093  20.150  0.00  0.00    +0.000 A 
ATOM     25  C   UNL     1      10.944  16.075  21.094  0.00  0.00    +0.000 A 
ATOM     26  C   UNL     1      10.463  14.814  20.736  0.00  0.00    +0.000 A 
ATOM     27  C   UNL     1      10.030  14.530  19.430  0.00  0.00    +0.000 A 
ATOM     28  C   UNL     1      10.074  15.586  18.510  0.00  0.00    +0.000 A 
ATOM     29  C   UNL     1      10.562  16.853  18.860  0.00  0.00    +0.000 A 
BRANCH  24  31
ATOM     30  C   UNL     1      12.290  18.201  21.793  0.00  0.00    +0.000 C 
ATOM     31  O   UNL     1      11.524  18.283  20.598  0.00  0.00    +0.000 OA
ENDBRANCH  24  31
ENDBRANCH  18  27
ENDBRANCH  17  21
ENDBRANCH   1  17
TORSDOF 7
ENDMDL
MODEL 8
REMARK VINA RESULT:      -7.4      3.219      5.532
REMARK  Name = 
REMARK  8 active torsions:
REMARK  status: ('A' for Active; 'I' for Inactive)
REMARK    1  A    between atoms: C_1  and  O_2
REMARK    2  A    between atoms: O_2  and  C_3
REMARK    3  A    between atoms: C_6  and  N_7
REMARK    4  A    between atoms: N_10  and  C_11
REMARK    5  A    between atoms: C_11  and  C_12
REMARK    6  A    between atoms: C_12  and  N_13
REMARK    7  A    between atoms: C_14  and  C_16
REMARK    8  A    between atoms: N_20  and  C_21
REMARK                            x       y       z     vdW  Elec       q    Type
REMARK                         _______ _______ _______ _____ _____    ______ ____
ROOT
ATOM      1  C   UNL     1       1.976   7.350  20.261  0.00  0.00    +0.000 C 
ENDROOT
BRANCH   1   2
ATOM      2  N   UNL     1       2.304   6.315  19.297  0.00  0.00    +0.000 N 
ATOM      3  C   UNL     1       1.830   5.030  19.432  0.00  0.00    +0.000 C 
ATOM      4  O   UNL     1       1.121   4.682  20.375  0.00  0.00    +0.000 OA
ATOM      5  H   UNL     1       3.032   6.519  18.621  0.00  0.00    +0.000 HD
BRANCH   3   6
ATOM      6  C   UNL     1       2.301   4.017  18.399  0.00  0.00    +0.000 C 
ATOM      7  C   UNL     1       2.829   2.772  19.095  0.00  0.00    +0.000 C 
ATOM      8  C   UNL     1       4.295   3.073  19.231  0.00  0.00    +0.000 C 
ATOM      9  O   UNL     1       5.045   2.532  20.028  0.00  0.00    +0.000 OA
ATOM     10  N   UNL     1       4.632   4.035  18.284  0.00  0.00    +0.000 N 
ATOM     11  C   UNL     1       3.466   4.483  17.544  0.00  0.00    +0.000 C 
BRANCH  10  12
ATOM     12  C   UNL     1       5.983   4.544  18.065  0.00  0.00    +0.000 C 
ATOM     13  C   UNL     1       6.085   5.483  16.862  0.00  0.00    +0.000 C 
ATOM     14  C   UNL     1       7.378   6.250  17.076  0.00  0.00    +0.000 C 
ATOM     15  C   UNL     1       7.583   6.314  18.584  0.00  0.00    +0.000 C 
ATOM     16  C   UNL     1       6.529   5.404  19.207  0.00  0.00    +0.000 C 
ENDBRANCH  10  12
ENDBRANCH   3   6
ENDBRANCH   1   2
BRANCH   1  17
ATOM     17  C   UNL     1       1.645   8.684  19.570  0.00  0.00    +0.000 C 
BRANCH  17  21
ATOM     18  N   UNL     1       0.359  11.507  21.386  0.00  0.00    +0.000 N 
ATOM     19  C   UNL     1       0.446  10.175  22.002  0.00  0.00    +0.000 C 
ATOM     20  C   UNL     1      -0.232   9.112  21.106  0.00  0.00    +0.000 C 
ATOM     21  N   UNL     1       0.231   9.091  19.693  0.00  0.00    +0.000 NA
ATOM     22  C   UNL     1       0.047  10.466  19.157  0.00  0.00    +0.000 C 
ATOM     23  C   UNL     1       0.740  11.591  19.967  0.00  0.00    +0.000 C 
BRANCH  18  27
ATOM     24  C   UNL     1      -1.215  14.834  23.450  0.00  0.00    +0.000 A 
ATOM     25  C   UNL     1      -1.748  13.564  23.641  0.00  0.00    +0.000 A 
ATOM     26  C   UNL     1      -1.230  12.468  22.948  0.00  0.00    +0.000 A 
ATOM     27  C   UNL     1      -0.174  12.603  22.032  0.00  0.00    +0.000 A 
ATOM     28  C   UNL     1       0.314  13.899  21.823  0.00  0.00    +0.000 A 
ATOM     29  C   UNL     1      -0.195  15.004  22.521  0.00  0.00    +0.000 A 
BRANCH  24  31
ATOM     30  C   UNL     1      -1.382  15.871  25.556  0.00  0.00    +0.000 C 
ATOM     31  O   UNL     1      -1.780  15.834  24.191  0.00  0.00    +0.000 OA
ENDBRANCH  24  31
ENDBRANCH  18  27
ENDBRANCH  17  21
ENDBRANCH   1  17
TORSDOF 7
ENDMDL
MODEL 9
REMARK VINA RESULT:      -7.4      4.564     11.011
REMARK  Name = 
REMARK  8 active torsions:
REMARK  status: ('A' for Active; 'I' for Inactive)
REMARK    1  A    between atoms: C_1  and  O_2
REMARK    2  A    between atoms: O_2  and  C_3
REMARK    3  A    between atoms: C_6  and  N_7
REMARK    4  A    between atoms: N_10  and  C_11
REMARK    5  A    between atoms: C_11  and  C_12
REMARK    6  A    between atoms: C_12  and  N_13
REMARK    7  A    between atoms: C_14  and  C_16
REMARK    8  A    between atoms: N_20  and  C_21
REMARK                            x       y       z     vdW  Elec       q    Type
REMARK                         _______ _______ _______ _____ _____    ______ ____
ROOT
ATOM      1  C   UNL     1      -0.951  12.678  22.929  0.00  0.00    +0.000 C 
ENDROOT
BRANCH   1   2
ATOM      2  N   UNL     1      -2.112  13.393  22.430  0.00  0.00    +0.000 N 
ATOM      3  C   UNL     1      -3.386  13.071  22.839  0.00  0.00    +0.000 C 
ATOM      4  O   UNL     1      -3.615  12.157  23.630  0.00  0.00    +0.000 OA
ATOM      5  H   UNL     1      -1.975  14.016  21.642  0.00  0.00    +0.000 HD
BRANCH   3   6
ATOM      6  C   UNL     1      -4.526  13.842  22.191  0.00  0.00    +0.000 C 
ATOM      7  C   UNL     1      -5.861  13.242  22.604  0.00  0.00    +0.000 C 
ATOM      8  C   UNL     1      -6.124  12.251  21.506  0.00  0.00    +0.000 C 
ATOM      9  O   UNL     1      -6.886  11.300  21.595  0.00  0.00    +0.000 OA
ATOM     10  N   UNL     1      -5.380  12.626  20.392  0.00  0.00    +0.000 N 
ATOM     11  C   UNL     1      -4.548  13.781  20.674  0.00  0.00    +0.000 C 
BRANCH  10  12
ATOM     12  C   UNL     1      -5.415  11.941  19.103  0.00  0.00    +0.000 C 
ATOM     13  C   UNL     1      -6.050  12.780  17.992  0.00  0.00    +0.000 C 
ATOM     14  C   UNL     1      -5.580  12.135  16.700  0.00  0.00    +0.000 C 
ATOM     15  C   UNL     1      -4.228  11.506  17.014  0.00  0.00    +0.000 C 
ATOM     16  C   UNL     1      -4.038  11.608  18.524  0.00  0.00    +0.000 C 
ENDBRANCH  10  12
ENDBRANCH   3   6
ENDBRANCH   1   2
BRANCH   1  17
ATOM     17  C   UNL     1      -0.239  11.898  21.810  0.00  0.00    +0.000 C 
BRANCH  17  21
ATOM     18  N   UNL     1       1.260   8.932  20.442  0.00  0.00    +0.000 N 
ATOM     19  C   UNL     1       0.722   9.988  19.573  0.00  0.00    +0.000 C 
ATOM     20  C   UNL     1      -0.731  10.337  19.969  0.00  0.00    +0.000 C 
ATOM     21  N   UNL     1      -0.932  10.659  21.407  0.00  0.00    +0.000 NA
ATOM     22  C   UNL     1      -0.408   9.505  22.186  0.00  0.00    +0.000 C 
ATOM     23  C   UNL     1       1.064   9.121  21.888  0.00  0.00    +0.000 C 
BRANCH  18  27
ATOM     24  C   UNL     1       2.804   5.308  18.930  0.00  0.00    +0.000 A 
ATOM     25  C   UNL     1       2.212   5.356  20.187  0.00  0.00    +0.000 A 
ATOM     26  C   UNL     1       1.712   6.560  20.687  0.00  0.00    +0.000 A 
ATOM     27  C   UNL     1       1.797   7.757  19.957  0.00  0.00    +0.000 A 
ATOM     28  C   UNL     1       2.440   7.690  18.715  0.00  0.00    +0.000 A 
ATOM     29  C   UNL     1       2.939   6.484  18.202  0.00  0.00    +0.000 A 
BRANCH  24  31
ATOM     30  C   UNL     1       4.398   4.093  17.696  0.00  0.00    +0.000 C 
ATOM     31  O   UNL     1       3.244   4.077  18.526  0.00  0.00    +0.000 OA
ENDBRANCH  24  31
ENDBRANCH  18  27
ENDBRANCH  17  21
ENDBRANCH   1  17
TORSDOF 7
ENDMDL
