MODEL 1
REMARK VINA RESULT:      -7.4      0.000      0.000
REMARK  Name = 
REMARK  8 active torsions:
REMARK  status: ('A' for Active; 'I' for Inactive)
REMARK    1  A    between atoms: C_1  and  N_2
REMARK    2  A    between atoms: N_2  and  C_3
REMARK    3  A    between atoms: C_3  and  C_4
REMARK    4  A    between atoms: C_4  and  C_5
REMARK    5  A    between atoms: C_5  and  O_6
REMARK    6  A    between atoms: C_5  and  C_18
REMARK    7  A    between atoms: O_6  and  C_7
REMARK    8  A    between atoms: C_13  and  O_14
REMARK                            x       y       z     vdW  Elec       q    Type
REMARK                         _______ _______ _______ _____ _____    ______ ____
ROOT
ATOM      1  O   UNL     1       2.520   6.796  19.950  0.00  0.00    +0.000 OA
ENDROOT
BRANCH   1   2
ATOM      2  C   UNL     1       1.957   7.957  19.472  0.00  0.00    +0.000 A 
ATOM      3  C   UNL     1       2.071   8.366  18.138  0.00  0.00    +0.000 A 
ATOM      4  C   UNL     1       1.527   9.582  17.727  0.00  0.00    +0.000 A 
ATOM      5  C   UNL     1       0.888  10.411  18.646  0.00  0.00    +0.000 A 
ATOM      6  C   UNL     1       0.768  10.031  19.990  0.00  0.00    +0.000 A 
ATOM      7  C   UNL     1       0.122  10.873  20.912  0.00  0.00    +0.000 A 
ATOM      8  C   UNL     1      -0.007  10.485  22.242  0.00  0.00    +0.000 A 
ATOM      9  C   UNL     1       0.501   9.275  22.679  0.00  0.00    +0.000 A 
ATOM     10  C   UNL     1       1.154   8.433  21.775  0.00  0.00    +0.000 A 
ATOM     11  C   UNL     1       1.305   8.789  20.416  0.00  0.00    +0.000 A 
BRANCH   8  12
ATOM     12  O   UNL     1      -0.638  11.279  23.156  0.00  0.00    +0.000 OA
ATOM     13  H   UNL     1      -0.534  10.885  24.036  0.00  0.00    +0.000 HD
ENDBRANCH   8  12
ENDBRANCH   1   2
BRANCH   1  14
ATOM     14  C   UNL     1       2.941   5.816  18.992  0.00  0.00    +0.000 C 
BRANCH  14  15
ATOM     15  C   UNL     1       2.155   4.550  19.272  0.00  0.00    +0.000 A 
ATOM     16  C   UNL     1       1.469   3.781  18.351  0.00  0.00    +0.000 A 
ATOM     17  C   UNL     1       0.907   2.607  18.929  0.00  0.00    +0.000 A 
ATOM     18  C   UNL     1       1.160   2.529  20.280  0.00  0.00    +0.000 A 
ATOM     19  S   UNL     1       2.060   3.867  20.844  0.00  0.00    +0.000 S 
ENDBRANCH  14  15
BRANCH  14  20
ATOM     20  C   UNL     1       4.459   5.593  19.104  0.00  0.00    +0.000 C 
BRANCH  20  21
ATOM     21  C   UNL     1       5.017   4.530  18.148  0.00  0.00    +0.000 C 
BRANCH  21  23
ATOM     22  C   UNL     1       7.395   4.737  17.813  0.00  0.00    +0.000 C 
ATOM     23  N   UNL     1       6.343   4.060  18.563  0.00  0.00    +0.000 NA
ATOM     24  H   UNL     1       6.492   4.266  19.550  0.00  0.00    +0.000 HD
ENDBRANCH  21  23
ENDBRANCH  20  21
ENDBRANCH  14  20
ENDBRANCH   1  14
TORSDOF 7
ENDMDL
MODEL 2
REMARK VINA RESULT:      -7.3      3.300      5.910
REMARK  Name = 
REMARK  8 active torsions:
REMARK  status: ('A' for Active; 'I' for Inactive)
REMARK    1  A    between atoms: C_1  and  N_2
REMARK    2  A    between atoms: N_2  and  C_3
REMARK    3  A    between atoms: C_3  and  C_4
REMARK    4  A    between atoms: C_4  and  C_5
REMARK    5  A    between atoms: C_5  and  O_6
REMARK    6  A    between atoms: C_5  and  C_18
REMARK    7  A    between atoms: O_6  and  C_7
REMARK    8  A    between atoms: C_13  and  O_14
REMARK                            x       y       z     vdW  Elec       q    Type
REMARK                         _______ _______ _______ _____ _____    ______ ____
ROOT
ATOM      1  O   UNL     1       4.516   4.543  16.340  0.00  0.00    +0.000 OA
ENDROOT
BRANCH   1   2
ATOM      2  C   UNL     1       3.893   3.967  17.423  0.00  0.00    +0.000 A 
ATOM      3  C   UNL     1       3.790   2.582  17.596  0.00  0.00    +0.000 A 
ATOM      4  C   UNL     1       3.096   2.059  18.686  0.00  0.00    +0.000 A 
ATOM      5  C   UNL     1       2.476   2.912  19.598  0.00  0.00    +0.000 A 
ATOM      6  C   UNL     1       2.554   4.302  19.442  0.00  0.00    +0.000 A 
ATOM      7  C   UNL     1       1.925   5.157  20.366  0.00  0.00    +0.000 A 
ATOM      8  C   UNL     1       2.017   6.537  20.216  0.00  0.00    +0.000 A 
ATOM      9  C   UNL     1       2.718   7.090  19.159  0.00  0.00    +0.000 A 
ATOM     10  C   UNL     1       3.338   6.252  18.229  0.00  0.00    +0.000 A 
ATOM     11  C   UNL     1       3.271   4.845  18.345  0.00  0.00    +0.000 A 
BRANCH   8  12
ATOM     12  O   UNL     1       1.425   7.389  21.103  0.00  0.00    +0.000 OA
ATOM     13  H   UNL     1       1.283   8.244  20.668  0.00  0.00    +0.000 HD
ENDBRANCH   8  12
ENDBRANCH   1   2
BRANCH   1  14
ATOM     14  C   UNL     1       5.915   4.279  16.158  0.00  0.00    +0.000 C 
BRANCH  14  15
ATOM     15  C   UNL     1       6.663   5.119  17.174  0.00  0.00    +0.000 A 
ATOM     16  C   UNL     1       7.254   4.674  18.342  0.00  0.00    +0.000 A 
ATOM     17  C   UNL     1       7.952   5.707  19.030  0.00  0.00    +0.000 A 
ATOM     18  C   UNL     1       7.852   6.915  18.378  0.00  0.00    +0.000 A 
ATOM     19  S   UNL     1       6.915   6.803  16.954  0.00  0.00    +0.000 S 
ENDBRANCH  14  15
BRANCH  14  20
ATOM     20  C   UNL     1       6.326   4.610  14.714  0.00  0.00    +0.000 C 
BRANCH  20  21
ATOM     21  C   UNL     1       5.497   3.896  13.637  0.00  0.00    +0.000 C 
BRANCH  21  23
ATOM     22  C   UNL     1       5.540   2.497  11.675  0.00  0.00    +0.000 C 
ATOM     23  N   UNL     1       6.335   3.083  12.749  0.00  0.00    +0.000 NA
ATOM     24  H   UNL     1       7.050   3.665  12.317  0.00  0.00    +0.000 HD
ENDBRANCH  21  23
ENDBRANCH  20  21
ENDBRANCH  14  20
ENDBRANCH   1  14
TORSDOF 7
ENDMDL
MODEL 3
REMARK VINA RESULT:      -7.3      3.821      5.803
REMARK  Name = 
REMARK  8 active torsions:
REMARK  status: ('A' for Active; 'I' for Inactive)
REMARK    1  A    between atoms: C_1  and  N_2
REMARK    2  A    between atoms: N_2  and  C_3
REMARK    3  A    between atoms: C_3  and  C_4
REMARK    4  A    between atoms: C_4  and  C_5
REMARK    5  A    between atoms: C_5  and  O_6
REMARK    6  A    between atoms: C_5  and  C_18
REMARK    7  A    between atoms: O_6  and  C_7
REMARK    8  A    between atoms: C_13  and  O_14
REMARK                            x       y       z     vdW  Elec       q    Type
REMARK                         _______ _______ _______ _____ _____    ______ ____
ROOT
ATOM      1  O   UNL     1       4.865   4.896  16.477  0.00  0.00    +0.000 OA
ENDROOT
BRANCH   1   2
ATOM      2  C   UNL     1       4.013   5.624  17.277  0.00  0.00    +0.000 A 
ATOM      3  C   UNL     1       3.845   7.008  17.150  0.00  0.00    +0.000 A 
ATOM      4  C   UNL     1       3.009   7.698  18.027  0.00  0.00    +0.000 A 
ATOM      5  C   UNL     1       2.356   7.019  19.053  0.00  0.00    +0.000 A 
ATOM      6  C   UNL     1       2.515   5.635  19.210  0.00  0.00    +0.000 A 
ATOM      7  C   UNL     1       1.853   4.957  20.249  0.00  0.00    +0.000 A 
ATOM      8  C   UNL     1       2.003   3.581  20.392  0.00  0.00    +0.000 A 
ATOM      9  C   UNL     1       2.806   2.861  19.524  0.00  0.00    +0.000 A 
ATOM     10  C   UNL     1       3.477   3.525  18.495  0.00  0.00    +0.000 A 
ATOM     11  C   UNL     1       3.351   4.921  18.314  0.00  0.00    +0.000 A 
BRANCH   8  12
ATOM     12  O   UNL     1       1.364   2.896  21.385  0.00  0.00    +0.000 OA
ATOM     13  H   UNL     1       0.937   2.114  21.001  0.00  0.00    +0.000 HD
ENDBRANCH   8  12
ENDBRANCH   1   2
BRANCH   1  14
ATOM     14  C   UNL     1       5.849   5.618  15.723  0.00  0.00    +0.000 C 
BRANCH  14  15
ATOM     15  C   UNL     1       6.095   4.835  14.448  0.00  0.00    +0.000 A 
ATOM     16  C   UNL     1       5.240   3.922  13.859  0.00  0.00    +0.000 A 
ATOM     17  C   UNL     1       5.737   3.428  12.620  0.00  0.00    +0.000 A 
ATOM     18  C   UNL     1       6.968   3.959  12.312  0.00  0.00    +0.000 A 
ATOM     19  S   UNL     1       7.523   5.038  13.515  0.00  0.00    +0.000 S 
ENDBRANCH  14  15
BRANCH  14  20
ATOM     20  C   UNL     1       7.130   5.783  16.558  0.00  0.00    +0.000 C 
BRANCH  20  21
ATOM     21  C   UNL     1       7.597   4.503  17.266  0.00  0.00    +0.000 C 
BRANCH  21  23
ATOM     22  C   UNL     1       7.103   5.606  19.352  0.00  0.00    +0.000 C 
ATOM     23  N   UNL     1       6.996   4.362  18.597  0.00  0.00    +0.000 NA
ATOM     24  H   UNL     1       6.004   4.144  18.510  0.00  0.00    +0.000 HD
ENDBRANCH  21  23
ENDBRANCH  20  21
ENDBRANCH  14  20
ENDBRANCH   1  14
TORSDOF 7
ENDMDL
MODEL 4
REMARK VINA RESULT:      -7.3      3.920      5.864
REMARK  Name = 
REMARK  8 active torsions:
REMARK  status: ('A' for Active; 'I' for Inactive)
REMARK    1  A    between atoms: C_1  and  N_2
REMARK    2  A    between atoms: N_2  and  C_3
REMARK    3  A    between atoms: C_3  and  C_4
REMARK    4  A    between atoms: C_4  and  C_5
REMARK    5  A    between atoms: C_5  and  O_6
REMARK    6  A    between atoms: C_5  and  C_18
REMARK    7  A    between atoms: O_6  and  C_7
REMARK    8  A    between atoms: C_13  and  O_14
REMARK                            x       y       z     vdW  Elec       q    Type
REMARK                         _______ _______ _______ _____ _____    ______ ____
ROOT
ATOM      1  O   UNL     1       4.497   4.594  16.619  0.00  0.00    +0.000 OA
ENDROOT
BRANCH   1   2
ATOM      2  C   UNL     1       3.786   5.331  17.537  0.00  0.00    +0.000 A 
ATOM      3  C   UNL     1       3.562   6.707  17.402  0.00  0.00    +0.000 A 
ATOM      4  C   UNL     1       2.882   7.410  18.395  0.00  0.00    +0.000 A 
ATOM      5  C   UNL     1       2.444   6.754  19.544  0.00  0.00    +0.000 A 
ATOM      6  C   UNL     1       2.664   5.380  19.710  0.00  0.00    +0.000 A 
ATOM      7  C   UNL     1       2.219   4.724  20.872  0.00  0.00    +0.000 A 
ATOM      8  C   UNL     1       2.427   3.357  21.027  0.00  0.00    +0.000 A 
ATOM      9  C   UNL     1       3.077   2.624  20.049  0.00  0.00    +0.000 A 
ATOM     10  C   UNL     1       3.533   3.265  18.895  0.00  0.00    +0.000 A 
ATOM     11  C   UNL     1       3.341   4.651  18.698  0.00  0.00    +0.000 A 
BRANCH   8  12
ATOM     12  O   UNL     1       1.997   2.694  22.140  0.00  0.00    +0.000 OA
ATOM     13  H   UNL     1       1.028   2.740  22.175  0.00  0.00    +0.000 HD
ENDBRANCH   8  12
ENDBRANCH   1   2
BRANCH   1  14
ATOM     14  C   UNL     1       5.751   5.124  16.165  0.00  0.00    +0.000 C 
BRANCH  14  15
ATOM     15  C   UNL     1       5.994   4.567  14.776  0.00  0.00    +0.000 A 
ATOM     16  C   UNL     1       5.126   3.789  14.033  0.00  0.00    +0.000 A 
ATOM     17  C   UNL     1       5.626   3.503  12.730  0.00  0.00    +0.000 A 
ATOM     18  C   UNL     1       6.873   4.050  12.528  0.00  0.00    +0.000 A 
ATOM     19  S   UNL     1       7.436   4.893  13.903  0.00  0.00    +0.000 S 
ENDBRANCH  14  15
BRANCH  14  20
ATOM     20  C   UNL     1       6.868   4.739  17.149  0.00  0.00    +0.000 C 
BRANCH  20  21
ATOM     21  C   UNL     1       7.565   5.933  17.817  0.00  0.00    +0.000 C 
BRANCH  21  23
ATOM     22  C   UNL     1       7.804   8.328  17.697  0.00  0.00    +0.000 C 
ATOM     23  N   UNL     1       7.625   7.099  16.930  0.00  0.00    +0.000 NA
ATOM     24  H   UNL     1       8.419   7.016  16.298  0.00  0.00    +0.000 HD
ENDBRANCH  21  23
ENDBRANCH  20  21
ENDBRANCH  14  20
ENDBRANCH   1  14
TORSDOF 7
ENDMDL
MODEL 5
REMARK VINA RESULT:      -7.2      0.948      1.086
REMARK  Name = 
REMARK  8 active torsions:
REMARK  status: ('A' for Active; 'I' for Inactive)
REMARK    1  A    between atoms: C_1  and  N_2
REMARK    2  A    between atoms: N_2  and  C_3
REMARK    3  A    between atoms: C_3  and  C_4
REMARK    4  A    between atoms: C_4  and  C_5
REMARK    5  A    between atoms: C_5  and  O_6
REMARK    6  A    between atoms: C_5  and  C_18
REMARK    7  A    between atoms: O_6  and  C_7
REMARK    8  A    between atoms: C_13  and  O_14
REMARK                            x       y       z     vdW  Elec       q    Type
REMARK                         _______ _______ _______ _____ _____    ______ ____
ROOT
ATOM      1  O   UNL     1       2.627   6.606  19.868  0.00  0.00    +0.000 OA
ENDROOT
BRANCH   1   2
ATOM      2  C   UNL     1       2.079   7.770  19.379  0.00  0.00    +0.000 A 
ATOM      3  C   UNL     1       2.197   8.164  18.040  0.00  0.00    +0.000 A 
ATOM      4  C   UNL     1       1.669   9.383  17.617  0.00  0.00    +0.000 A 
ATOM      5  C   UNL     1       1.042  10.230  18.529  0.00  0.00    +0.000 A 
ATOM      6  C   UNL     1       0.919   9.865  19.877  0.00  0.00    +0.000 A 
ATOM      7  C   UNL     1       0.285  10.725  20.791  0.00  0.00    +0.000 A 
ATOM      8  C   UNL     1       0.153  10.352  22.125  0.00  0.00    +0.000 A 
ATOM      9  C   UNL     1       0.645   9.139  22.574  0.00  0.00    +0.000 A 
ATOM     10  C   UNL     1       1.285   8.280  21.678  0.00  0.00    +0.000 A 
ATOM     11  C   UNL     1       1.440   8.620  20.315  0.00  0.00    +0.000 A 
BRANCH   8  12
ATOM     12  O   UNL     1      -0.466  11.163  23.032  0.00  0.00    +0.000 OA
ATOM     13  H   UNL     1       0.105  11.254  23.811  0.00  0.00    +0.000 HD
ENDBRANCH   8  12
ENDBRANCH   1   2
BRANCH   1  14
ATOM     14  C   UNL     1       3.135   5.658  18.919  0.00  0.00    +0.000 C 
BRANCH  14  15
ATOM     15  C   UNL     1       2.305   4.397  19.060  0.00  0.00    +0.000 A 
ATOM     16  C   UNL     1       1.382   4.120  20.052  0.00  0.00    +0.000 A 
ATOM     17  C   UNL     1       0.712   2.881  19.846  0.00  0.00    +0.000 A 
ATOM     18  C   UNL     1       1.162   2.237  18.716  0.00  0.00    +0.000 A 
ATOM     19  S   UNL     1       2.390   3.118  17.918  0.00  0.00    +0.000 S 
ENDBRANCH  14  15
BRANCH  14  20
ATOM     20  C   UNL     1       4.628   5.403  19.183  0.00  0.00    +0.000 C 
BRANCH  20  21
ATOM     21  C   UNL     1       5.517   5.484  17.933  0.00  0.00    +0.000 C 
BRANCH  21  23
ATOM     22  C   UNL     1       5.621   3.926  16.097  0.00  0.00    +0.000 C 
ATOM     23  N   UNL     1       5.969   4.159  17.495  0.00  0.00    +0.000 NA
ATOM     24  H   UNL     1       6.983   4.095  17.571  0.00  0.00    +0.000 HD
ENDBRANCH  21  23
ENDBRANCH  20  21
ENDBRANCH  14  20
ENDBRANCH   1  14
TORSDOF 7
ENDMDL
MODEL 6
REMARK VINA RESULT:      -7.2      1.005      1.331
REMARK  Name = 
REMARK  8 active torsions:
REMARK  status: ('A' for Active; 'I' for Inactive)
REMARK    1  A    between atoms: C_1  and  N_2
REMARK    2  A    between atoms: N_2  and  C_3
REMARK    3  A    between atoms: C_3  and  C_4
REMARK    4  A    between atoms: C_4  and  C_5
REMARK    5  A    between atoms: C_5  and  O_6
REMARK    6  A    between atoms: C_5  and  C_18
REMARK    7  A    between atoms: O_6  and  C_7
REMARK    8  A    between atoms: C_13  and  O_14
REMARK                            x       y       z     vdW  Elec       q    Type
REMARK                         _______ _______ _______ _____ _____    ______ ____
ROOT
ATOM      1  O   UNL     1       2.535   6.882  19.975  0.00  0.00    +0.000 OA
ENDROOT
BRANCH   1   2
ATOM      2  C   UNL     1       1.939   8.028  19.502  0.00  0.00    +0.000 A 
ATOM      3  C   UNL     1       2.061   8.459  18.175  0.00  0.00    +0.000 A 
ATOM      4  C   UNL     1       1.481   9.660  17.769  0.00  0.00    +0.000 A 
ATOM      5  C   UNL     1       0.796  10.454  18.688  0.00  0.00    +0.000 A 
ATOM      6  C   UNL     1       0.668  10.052  20.024  0.00  0.00    +0.000 A 
ATOM      7  C   UNL     1      -0.023  10.858  20.946  0.00  0.00    +0.000 A 
ATOM      8  C   UNL     1      -0.160  10.449  22.269  0.00  0.00    +0.000 A 
ATOM      9  C   UNL     1       0.384   9.251  22.700  0.00  0.00    +0.000 A 
ATOM     10  C   UNL     1       1.081   8.446  21.797  0.00  0.00    +0.000 A 
ATOM     11  C   UNL     1       1.243   8.824  20.445  0.00  0.00    +0.000 A 
BRANCH   8  12
ATOM     12  O   UNL     1      -0.834  11.207  23.181  0.00  0.00    +0.000 OA
ATOM     13  H   UNL     1      -1.239  11.961  22.723  0.00  0.00    +0.000 HD
ENDBRANCH   8  12
ENDBRANCH   1   2
BRANCH   1  14
ATOM     14  C   UNL     1       2.936   5.894  19.015  0.00  0.00    +0.000 C 
BRANCH  14  15
ATOM     15  C   UNL     1       2.061   4.677  19.236  0.00  0.00    +0.000 A 
ATOM     16  C   UNL     1       1.568   4.220  20.444  0.00  0.00    +0.000 A 
ATOM     17  C   UNL     1       0.705   3.097  20.294  0.00  0.00    +0.000 A 
ATOM     18  C   UNL     1       0.585   2.715  18.977  0.00  0.00    +0.000 A 
ATOM     19  S   UNL     1       1.514   3.699  17.934  0.00  0.00    +0.000 S 
ENDBRANCH  14  15
BRANCH  14  20
ATOM     20  C   UNL     1       4.431   5.574  19.188  0.00  0.00    +0.000 C 
BRANCH  20  21
ATOM     21  C   UNL     1       4.880   4.266  18.521  0.00  0.00    +0.000 C 
BRANCH  21  23
ATOM     22  C   UNL     1       4.452   2.164  19.621  0.00  0.00    +0.000 C 
ATOM     23  N   UNL     1       5.371   3.291  19.501  0.00  0.00    +0.000 NA
ATOM     24  H   UNL     1       6.271   2.920  19.202  0.00  0.00    +0.000 HD
ENDBRANCH  21  23
ENDBRANCH  20  21
ENDBRANCH  14  20
ENDBRANCH   1  14
TORSDOF 7
ENDMDL
MODEL 7
REMARK VINA RESULT:      -7.1      3.937      6.398
REMARK  Name = 
REMARK  8 active torsions:
REMARK  status: ('A' for Active; 'I' for Inactive)
REMARK    1  A    between atoms: C_1  and  N_2
REMARK    2  A    between atoms: N_2  and  C_3
REMARK    3  A    between atoms: C_3  and  C_4
REMARK    4  A    between atoms: C_4  and  C_5
REMARK    5  A    between atoms: C_5  and  O_6
REMARK    6  A    between atoms: C_5  and  C_18
REMARK    7  A    between atoms: O_6  and  C_7
REMARK    8  A    between atoms: C_13  and  O_14
REMARK                            x       y       z     vdW  Elec       q    Type
REMARK                         _______ _______ _______ _____ _____    ______ ____
ROOT
ATOM      1  O   UNL     1       4.831   5.787  16.301  0.00  0.00    +0.000 OA
ENDROOT
BRANCH   1   2
ATOM      2  C   UNL     1       3.867   5.952  17.270  0.00  0.00    +0.000 A 
ATOM      3  C   UNL     1       3.607   7.182  17.886  0.00  0.00    +0.000 A 
ATOM      4  C   UNL     1       2.656   7.273  18.901  0.00  0.00    +0.000 A 
ATOM      5  C   UNL     1       1.976   6.134  19.329  0.00  0.00    +0.000 A 
ATOM      6  C   UNL     1       2.224   4.888  18.737  0.00  0.00    +0.000 A 
ATOM      7  C   UNL     1       1.534   3.744  19.174  0.00  0.00    +0.000 A 
ATOM      8  C   UNL     1       1.773   2.511  18.574  0.00  0.00    +0.000 A 
ATOM      9  C   UNL     1       2.693   2.390  17.547  0.00  0.00    +0.000 A 
ATOM     10  C   UNL     1       3.392   3.517  17.111  0.00  0.00    +0.000 A 
ATOM     11  C   UNL     1       3.179   4.787  17.692  0.00  0.00    +0.000 A 
BRANCH   8  12
ATOM     12  O   UNL     1       1.110   1.387  18.972  0.00  0.00    +0.000 OA
ATOM     13  H   UNL     1       0.700   0.974  18.196  0.00  0.00    +0.000 HD
ENDBRANCH   8  12
ENDBRANCH   1   2
BRANCH   1  14
ATOM     14  C   UNL     1       6.042   5.116  16.674  0.00  0.00    +0.000 C 
BRANCH  14  15
ATOM     15  C   UNL     1       6.932   6.143  17.346  0.00  0.00    +0.000 A 
ATOM     16  C   UNL     1       7.203   7.423  16.899  0.00  0.00    +0.000 A 
ATOM     17  C   UNL     1       8.011   8.162  17.809  0.00  0.00    +0.000 A 
ATOM     18  C   UNL     1       8.354   7.414  18.913  0.00  0.00    +0.000 A 
ATOM     19  S   UNL     1       7.713   5.832  18.843  0.00  0.00    +0.000 S 
ENDBRANCH  14  15
BRANCH  14  20
ATOM     20  C   UNL     1       6.704   4.500  15.430  0.00  0.00    +0.000 C 
BRANCH  20  21
ATOM     21  C   UNL     1       5.735   4.209  14.275  0.00  0.00    +0.000 C 
BRANCH  21  23
ATOM     22  C   UNL     1       5.475   3.232  12.086  0.00  0.00    +0.000 C 
ATOM     23  N   UNL     1       6.340   3.345  13.256  0.00  0.00    +0.000 NA
ATOM     24  H   UNL     1       7.225   3.742  12.943  0.00  0.00    +0.000 HD
ENDBRANCH  21  23
ENDBRANCH  20  21
ENDBRANCH  14  20
ENDBRANCH   1  14
TORSDOF 7
ENDMDL
MODEL 8
REMARK VINA RESULT:      -7.0      3.733      5.836
REMARK  Name = 
REMARK  8 active torsions:
REMARK  status: ('A' for Active; 'I' for Inactive)
REMARK    1  A    between atoms: C_1  and  N_2
REMARK    2  A    between atoms: N_2  and  C_3
REMARK    3  A    between atoms: C_3  and  C_4
REMARK    4  A    between atoms: C_4  and  C_5
REMARK    5  A    between atoms: C_5  and  O_6
REMARK    6  A    between atoms: C_5  and  C_18
REMARK    7  A    between atoms: O_6  and  C_7
REMARK    8  A    between atoms: C_13  and  O_14
REMARK                            x       y       z     vdW  Elec       q    Type
REMARK                         _______ _______ _______ _____ _____    ______ ____
ROOT
ATOM      1  O   UNL     1       4.999   4.762  17.174  0.00  0.00    +0.000 OA
ENDROOT
BRANCH   1   2
ATOM      2  C   UNL     1       4.056   5.436  17.915  0.00  0.00    +0.000 A 
ATOM      3  C   UNL     1       3.713   6.773  17.679  0.00  0.00    +0.000 A 
ATOM      4  C   UNL     1       2.791   7.418  18.501  0.00  0.00    +0.000 A 
ATOM      5  C   UNL     1       2.222   6.746  19.580  0.00  0.00    +0.000 A 
ATOM      6  C   UNL     1       2.555   5.411  19.847  0.00  0.00    +0.000 A 
ATOM      7  C   UNL     1       1.978   4.738  20.939  0.00  0.00    +0.000 A 
ATOM      8  C   UNL     1       2.301   3.408  21.191  0.00  0.00    +0.000 A 
ATOM      9  C   UNL     1       3.195   2.730  20.381  0.00  0.00    +0.000 A 
ATOM     10  C   UNL     1       3.783   3.390  19.299  0.00  0.00    +0.000 A 
ATOM     11  C   UNL     1       3.482   4.739  19.008  0.00  0.00    +0.000 A 
BRANCH   8  12
ATOM     12  O   UNL     1       1.748   2.729  22.238  0.00  0.00    +0.000 OA
ATOM     13  H   UNL     1       2.099   1.825  22.244  0.00  0.00    +0.000 HD
ENDBRANCH   8  12
ENDBRANCH   1   2
BRANCH   1  14
ATOM     14  C   UNL     1       6.070   5.527  16.603  0.00  0.00    +0.000 C 
BRANCH  14  15
ATOM     15  C   UNL     1       6.297   4.998  15.201  0.00  0.00    +0.000 A 
ATOM     16  C   UNL     1       7.338   5.326  14.352  0.00  0.00    +0.000 A 
ATOM     17  C   UNL     1       7.305   4.586  13.135  0.00  0.00    +0.000 A 
ATOM     18  C   UNL     1       6.225   3.735  13.082  0.00  0.00    +0.000 A 
ATOM     19  S   UNL     1       5.256   3.836  14.485  0.00  0.00    +0.000 S 
ENDBRANCH  14  15
BRANCH  14  20
ATOM     20  C   UNL     1       7.327   5.403  17.481  0.00  0.00    +0.000 C 
BRANCH  20  21
ATOM     21  C   UNL     1       7.745   6.706  18.178  0.00  0.00    +0.000 C 
BRANCH  21  23
ATOM     22  C   UNL     1       8.096   9.079  17.949  0.00  0.00    +0.000 C 
ATOM     23  N   UNL     1       7.770   7.841  17.250  0.00  0.00    +0.000 NA
ATOM     24  H   UNL     1       8.486   7.694  16.540  0.00  0.00    +0.000 HD
ENDBRANCH  21  23
ENDBRANCH  20  21
ENDBRANCH  14  20
ENDBRANCH   1  14
TORSDOF 7
ENDMDL
MODEL 9
REMARK VINA RESULT:      -7.0      3.138      5.674
REMARK  Name = 
REMARK  8 active torsions:
REMARK  status: ('A' for Active; 'I' for Inactive)
REMARK    1  A    between atoms: C_1  and  N_2
REMARK    2  A    between atoms: N_2  and  C_3
REMARK    3  A    between atoms: C_3  and  C_4
REMARK    4  A    between atoms: C_4  and  C_5
REMARK    5  A    between atoms: C_5  and  O_6
REMARK    6  A    between atoms: C_5  and  C_18
REMARK    7  A    between atoms: O_6  and  C_7
REMARK    8  A    between atoms: C_13  and  O_14
REMARK                            x       y       z     vdW  Elec       q    Type
REMARK                         _______ _______ _______ _____ _____    ______ ____
ROOT
ATOM      1  O   UNL     1       3.983   4.329  16.436  0.00  0.00    +0.000 OA
ENDROOT
BRANCH   1   2
ATOM      2  C   UNL     1       3.592   3.854  17.667  0.00  0.00    +0.000 A 
ATOM      3  C   UNL     1       3.644   2.498  18.012  0.00  0.00    +0.000 A 
ATOM      4  C   UNL     1       3.180   2.071  19.255  0.00  0.00    +0.000 A 
ATOM      5  C   UNL     1       2.635   2.986  20.153  0.00  0.00    +0.000 A 
ATOM      6  C   UNL     1       2.560   4.348  19.829  0.00  0.00    +0.000 A 
ATOM      7  C   UNL     1       2.009   5.266  20.741  0.00  0.00    +0.000 A 
ATOM      8  C   UNL     1       1.950   6.619  20.420  0.00  0.00    +0.000 A 
ATOM      9  C   UNL     1       2.424   7.081  19.205  0.00  0.00    +0.000 A 
ATOM     10  C   UNL     1       2.964   6.177  18.287  0.00  0.00    +0.000 A 
ATOM     11  C   UNL     1       3.044   4.796  18.573  0.00  0.00    +0.000 A 
BRANCH   8  12
ATOM     12  O   UNL     1       1.429   7.533  21.290  0.00  0.00    +0.000 OA
ATOM     13  H   UNL     1       2.116   8.181  21.511  0.00  0.00    +0.000 HD
ENDBRANCH   8  12
ENDBRANCH   1   2
BRANCH   1  14
ATOM     14  C   UNL     1       5.355   4.147  16.057  0.00  0.00    +0.000 C 
BRANCH  14  15
ATOM     15  C   UNL     1       6.191   5.008  16.983  0.00  0.00    +0.000 A 
ATOM     16  C   UNL     1       7.088   4.566  17.938  0.00  0.00    +0.000 A 
ATOM     17  C   UNL     1       7.775   5.636  18.579  0.00  0.00    +0.000 A 
ATOM     18  C   UNL     1       7.363   6.863  18.112  0.00  0.00    +0.000 A 
ATOM     19  S   UNL     1       6.151   6.723  16.917  0.00  0.00    +0.000 S 
ENDBRANCH  14  15
BRANCH  14  20
ATOM     20  C   UNL     1       5.544   4.530  14.579  0.00  0.00    +0.000 C 
BRANCH  20  21
ATOM     21  C   UNL     1       6.954   4.269  14.032  0.00  0.00    +0.000 C 
BRANCH  21  23
ATOM     22  C   UNL     1       8.299   5.652  12.588  0.00  0.00    +0.000 C 
ATOM     23  N   UNL     1       7.739   5.503  13.927  0.00  0.00    +0.000 NA
ATOM     24  H   UNL     1       7.143   6.311  14.099  0.00  0.00    +0.000 HD
ENDBRANCH  21  23
ENDBRANCH  20  21
ENDBRANCH  14  20
ENDBRANCH   1  14
TORSDOF 7
ENDMDL
