MODEL 1
REMARK VINA RESULT:      -7.0      0.000      0.000
REMARK  Name = 
REMARK  16 active torsions:
REMARK  status: ('A' for Active; 'I' for Inactive)
REMARK    1  A    between atoms: C_1  and  C_2
REMARK    2  A    between atoms: C_2  and  C_3
REMARK    3  A    between atoms: C_2  and  C_4
REMARK    4  A    between atoms: C_4  and  C_5
REMARK    5  A    between atoms: C_5  and  C_7
REMARK    6  A    between atoms: C_8  and  O_9
REMARK    7  A    between atoms: C_11  and  O_12
REMARK    8  A    between atoms: C_14  and  O_15
REMARK    9  A    between atoms: O_15  and  C_16
REMARK   10  A    between atoms: C_16  and  C_17
REMARK   11  A    between atoms: C_17  and  O_18
REMARK   12  A    between atoms: C_17  and  C_19
REMARK   13  A    between atoms: C_19  and  N_20
REMARK   14  A    between atoms: N_20  and  C_21
REMARK   15  A    between atoms: C_21  and  C_22
REMARK   16  A    between atoms: C_21  and  C_23
REMARK                            x       y       z     vdW  Elec       q    Type
REMARK                         _______ _______ _______ _____ _____    ______ ____
ROOT
ATOM      1  C   UNL     1       5.612   5.325  17.045  0.00  0.00    +0.000 A 
ATOM      2  C   UNL     1       5.028   6.483  16.476  0.00  0.00    +0.000 A 
ATOM      3  C   UNL     1       4.047   7.221  17.135  0.00  0.00    +0.000 A 
ATOM      4  C   UNL     1       3.558   6.758  18.343  0.00  0.00    +0.000 A 
ATOM      5  C   UNL     1       4.078   5.604  18.916  0.00  0.00    +0.000 A 
ATOM      6  C   UNL     1       5.124   4.887  18.300  0.00  0.00    +0.000 A 
ENDROOT
BRANCH   1   7
ATOM      7  C   UNL     1       6.652   4.587  16.248  0.00  0.00    +0.000 C 
ATOM      8  O   UNL     1       7.827   4.625  16.584  0.00  0.00    +0.000 OA
BRANCH   7   9
ATOM      9  C   UNL     1       6.197   3.686  15.097  0.00  0.00    +0.000 C 
BRANCH   9  11
ATOM     10  C   UNL     1       7.546   4.934  13.415  0.00  0.00    +0.000 C 
ATOM     11  C   UNL     1       6.167   4.330  13.706  0.00  0.00    +0.000 C 
ATOM     12  C   UNL     1       5.834   3.304  12.627  0.00  0.00    +0.000 C 
ENDBRANCH   9  11
ENDBRANCH   7   9
ENDBRANCH   1   7
BRANCH   2  13
ATOM     13  O   UNL     1       5.323   6.979  15.230  0.00  0.00    +0.000 OA
ATOM     14  H   UNL     1       4.578   7.524  14.919  0.00  0.00    +0.000 HD
ENDBRANCH   2  13
BRANCH   4  15
ATOM     15  O   UNL     1       2.546   7.405  18.991  0.00  0.00    +0.000 OA
ATOM     16  H   UNL     1       1.905   7.728  18.329  0.00  0.00    +0.000 HD
ENDBRANCH   4  15
BRANCH   6  17
ATOM     17  O   UNL     1       5.490   3.800  19.069  0.00  0.00    +0.000 OA
BRANCH  17  18
ATOM     18  C   UNL     1       4.588   3.379  20.086  0.00  0.00    +0.000 C 
BRANCH  18  19
ATOM     19  C   UNL     1       4.134   1.919  19.906  0.00  0.00    +0.000 C 
BRANCH  19  20
ATOM     20  O   UNL     1       5.253   1.026  19.901  0.00  0.00    +0.000 OA
ATOM     21  H   UNL     1       5.980   1.498  19.452  0.00  0.00    +0.000 HD
ENDBRANCH  19  20
BRANCH  19  22
ATOM     22  C   UNL     1       3.285   1.685  18.640  0.00  0.00    +0.000 C 
BRANCH  22  23
ATOM     23  N   UNL     1       1.833   1.570  18.901  0.00  0.00    +0.000 NA
ATOM     24  H   UNL     1       1.728   1.331  19.892  0.00  0.00    +0.000 HD
BRANCH  23  25
ATOM     25  C   UNL     1       1.052   2.794  18.650  0.00  0.00    +0.000 C 
ATOM     26  C   UNL     1       0.901   3.676  19.892  0.00  0.00    +0.000 C 
ATOM     27  C   UNL     1       1.729   3.593  17.533  0.00  0.00    +0.000 C 
ENDBRANCH  23  25
ENDBRANCH  22  23
ENDBRANCH  19  22
ENDBRANCH  18  19
ENDBRANCH  17  18
ENDBRANCH   6  17
TORSDOF 12
ENDMDL
MODEL 2
REMARK VINA RESULT:      -7.0      1.924      2.844
REMARK  Name = 
REMARK  16 active torsions:
REMARK  status: ('A' for Active; 'I' for Inactive)
REMARK    1  A    between atoms: C_1  and  C_2
REMARK    2  A    between atoms: C_2  and  C_3
REMARK    3  A    between atoms: C_2  and  C_4
REMARK    4  A    between atoms: C_4  and  C_5
REMARK    5  A    between atoms: C_5  and  C_7
REMARK    6  A    between atoms: C_8  and  O_9
REMARK    7  A    between atoms: C_11  and  O_12
REMARK    8  A    between atoms: C_14  and  O_15
REMARK    9  A    between atoms: O_15  and  C_16
REMARK   10  A    between atoms: C_16  and  C_17
REMARK   11  A    between atoms: C_17  and  O_18
REMARK   12  A    between atoms: C_17  and  C_19
REMARK   13  A    between atoms: C_19  and  N_20
REMARK   14  A    between atoms: N_20  and  C_21
REMARK   15  A    between atoms: C_21  and  C_22
REMARK   16  A    between atoms: C_21  and  C_23
REMARK                            x       y       z     vdW  Elec       q    Type
REMARK                         _______ _______ _______ _____ _____    ______ ____
ROOT
ATOM      1  C   UNL     1       6.297   5.399  16.885  0.00  0.00    +0.000 A 
ATOM      2  C   UNL     1       7.375   6.261  17.202  0.00  0.00    +0.000 A 
ATOM      3  C   UNL     1       7.943   6.304  18.473  0.00  0.00    +0.000 A 
ATOM      4  C   UNL     1       7.379   5.552  19.487  0.00  0.00    +0.000 A 
ATOM      5  C   UNL     1       6.294   4.723  19.225  0.00  0.00    +0.000 A 
ATOM      6  C   UNL     1       5.754   4.608  17.928  0.00  0.00    +0.000 A 
ENDROOT
BRANCH   1   7
ATOM      7  C   UNL     1       5.740   5.437  15.489  0.00  0.00    +0.000 C 
ATOM      8  O   UNL     1       5.247   6.467  15.051  0.00  0.00    +0.000 OA
BRANCH   7   9
ATOM      9  C   UNL     1       5.922   4.213  14.588  0.00  0.00    +0.000 C 
BRANCH   9  11
ATOM     10  C   UNL     1       7.635   4.974  12.948  0.00  0.00    +0.000 C 
ATOM     11  C   UNL     1       6.186   4.497  13.106  0.00  0.00    +0.000 C 
ATOM     12  C   UNL     1       5.977   3.248  12.255  0.00  0.00    +0.000 C 
ENDBRANCH   9  11
ENDBRANCH   7   9
ENDBRANCH   1   7
BRANCH   2  13
ATOM     13  O   UNL     1       7.946   7.155  16.330  0.00  0.00    +0.000 OA
ATOM     14  H   UNL     1       8.041   8.017  16.774  0.00  0.00    +0.000 HD
ENDBRANCH   2  13
BRANCH   4  15
ATOM     15  O   UNL     1       7.853   5.617  20.765  0.00  0.00    +0.000 OA
ATOM     16  H   UNL     1       8.488   6.355  20.827  0.00  0.00    +0.000 HD
ENDBRANCH   4  15
BRANCH   6  17
ATOM     17  O   UNL     1       4.710   3.706  17.911  0.00  0.00    +0.000 OA
BRANCH  17  18
ATOM     18  C   UNL     1       3.431   4.186  17.513  0.00  0.00    +0.000 C 
BRANCH  18  19
ATOM     19  C   UNL     1       2.372   3.070  17.451  0.00  0.00    +0.000 C 
BRANCH  19  20
ATOM     20  O   UNL     1       1.048   3.615  17.426  0.00  0.00    +0.000 OA
ATOM     21  H   UNL     1       0.951   4.063  16.565  0.00  0.00    +0.000 HD
ENDBRANCH  19  20
BRANCH  19  22
ATOM     22  C   UNL     1       2.484   2.045  18.596  0.00  0.00    +0.000 C 
BRANCH  22  23
ATOM     23  N   UNL     1       2.884   2.633  19.894  0.00  0.00    +0.000 NA
ATOM     24  H   UNL     1       3.567   3.369  19.689  0.00  0.00    +0.000 HD
BRANCH  23  25
ATOM     25  C   UNL     1       1.789   3.242  20.670  0.00  0.00    +0.000 C 
ATOM     26  C   UNL     1       1.545   2.548  22.012  0.00  0.00    +0.000 C 
ATOM     27  C   UNL     1       2.115   4.720  20.910  0.00  0.00    +0.000 C 
ENDBRANCH  23  25
ENDBRANCH  22  23
ENDBRANCH  19  22
ENDBRANCH  18  19
ENDBRANCH  17  18
ENDBRANCH   6  17
TORSDOF 12
ENDMDL
MODEL 3
REMARK VINA RESULT:      -6.9      2.048      3.101
REMARK  Name = 
REMARK  16 active torsions:
REMARK  status: ('A' for Active; 'I' for Inactive)
REMARK    1  A    between atoms: C_1  and  C_2
REMARK    2  A    between atoms: C_2  and  C_3
REMARK    3  A    between atoms: C_2  and  C_4
REMARK    4  A    between atoms: C_4  and  C_5
REMARK    5  A    between atoms: C_5  and  C_7
REMARK    6  A    between atoms: C_8  and  O_9
REMARK    7  A    between atoms: C_11  and  O_12
REMARK    8  A    between atoms: C_14  and  O_15
REMARK    9  A    between atoms: O_15  and  C_16
REMARK   10  A    between atoms: C_16  and  C_17
REMARK   11  A    between atoms: C_17  and  O_18
REMARK   12  A    between atoms: C_17  and  C_19
REMARK   13  A    between atoms: C_19  and  N_20
REMARK   14  A    between atoms: N_20  and  C_21
REMARK   15  A    between atoms: C_21  and  C_22
REMARK   16  A    between atoms: C_21  and  C_23
REMARK                            x       y       z     vdW  Elec       q    Type
REMARK                         _______ _______ _______ _____ _____    ______ ____
ROOT
ATOM      1  C   UNL     1       6.137   5.534  17.112  0.00  0.00    +0.000 A 
ATOM      2  C   UNL     1       7.262   6.348  17.391  0.00  0.00    +0.000 A 
ATOM      3  C   UNL     1       7.926   6.305  18.615  0.00  0.00    +0.000 A 
ATOM      4  C   UNL     1       7.417   5.512  19.627  0.00  0.00    +0.000 A 
ATOM      5  C   UNL     1       6.291   4.728  19.405  0.00  0.00    +0.000 A 
ATOM      6  C   UNL     1       5.651   4.700  18.150  0.00  0.00    +0.000 A 
ENDROOT
BRANCH   1   7
ATOM      7  C   UNL     1       5.478   5.664  15.767  0.00  0.00    +0.000 C 
ATOM      8  O   UNL     1       5.073   6.753  15.384  0.00  0.00    +0.000 OA
BRANCH   7   9
ATOM      9  C   UNL     1       5.445   4.448  14.840  0.00  0.00    +0.000 C 
BRANCH   9  11
ATOM     10  C   UNL     1       7.577   4.950  13.654  0.00  0.00    +0.000 C 
ATOM     11  C   UNL     1       6.090   4.629  13.461  0.00  0.00    +0.000 C 
ATOM     12  C   UNL     1       5.957   3.367  12.615  0.00  0.00    +0.000 C 
ENDBRANCH   9  11
ENDBRANCH   7   9
ENDBRANCH   1   7
BRANCH   2  13
ATOM     13  O   UNL     1       7.792   7.275  16.527  0.00  0.00    +0.000 OA
ATOM     14  H   UNL     1       8.539   6.873  16.048  0.00  0.00    +0.000 HD
ENDBRANCH   2  13
BRANCH   4  15
ATOM     15  O   UNL     1       7.988   5.493  20.866  0.00  0.00    +0.000 OA
ATOM     16  H   UNL     1       7.944   6.391  21.246  0.00  0.00    +0.000 HD
ENDBRANCH   4  15
BRANCH   6  17
ATOM     17  O   UNL     1       4.582   3.828  18.165  0.00  0.00    +0.000 OA
BRANCH  17  18
ATOM     18  C   UNL     1       4.331   3.113  19.370  0.00  0.00    +0.000 C 
BRANCH  18  19
ATOM     19  C   UNL     1       2.855   3.180  19.802  0.00  0.00    +0.000 C 
BRANCH  19  20
ATOM     20  O   UNL     1       1.986   3.238  18.665  0.00  0.00    +0.000 OA
ATOM     21  H   UNL     1       1.809   2.314  18.407  0.00  0.00    +0.000 HD
ENDBRANCH  19  20
BRANCH  19  22
ATOM     22  C   UNL     1       2.539   4.353  20.751  0.00  0.00    +0.000 C 
BRANCH  22  23
ATOM     23  N   UNL     1       1.722   5.422  20.135  0.00  0.00    +0.000 NA
ATOM     24  H   UNL     1       1.026   5.702  20.833  0.00  0.00    +0.000 HD
BRANCH  23  25
ATOM     25  C   UNL     1       2.467   6.630  19.737  0.00  0.00    +0.000 C 
ATOM     26  C   UNL     1       2.618   6.770  18.221  0.00  0.00    +0.000 C 
ATOM     27  C   UNL     1       1.749   7.862  20.297  0.00  0.00    +0.000 C 
ENDBRANCH  23  25
ENDBRANCH  22  23
ENDBRANCH  19  22
ENDBRANCH  18  19
ENDBRANCH  17  18
ENDBRANCH   6  17
TORSDOF 12
ENDMDL
MODEL 4
REMARK VINA RESULT:      -6.7      2.438      5.618
REMARK  Name = 
REMARK  16 active torsions:
REMARK  status: ('A' for Active; 'I' for Inactive)
REMARK    1  A    between atoms: C_1  and  C_2
REMARK    2  A    between atoms: C_2  and  C_3
REMARK    3  A    between atoms: C_2  and  C_4
REMARK    4  A    between atoms: C_4  and  C_5
REMARK    5  A    between atoms: C_5  and  C_7
REMARK    6  A    between atoms: C_8  and  O_9
REMARK    7  A    between atoms: C_11  and  O_12
REMARK    8  A    between atoms: C_14  and  O_15
REMARK    9  A    between atoms: O_15  and  C_16
REMARK   10  A    between atoms: C_16  and  C_17
REMARK   11  A    between atoms: C_17  and  O_18
REMARK   12  A    between atoms: C_17  and  C_19
REMARK   13  A    between atoms: C_19  and  N_20
REMARK   14  A    between atoms: N_20  and  C_21
REMARK   15  A    between atoms: C_21  and  C_22
REMARK   16  A    between atoms: C_21  and  C_23
REMARK                            x       y       z     vdW  Elec       q    Type
REMARK                         _______ _______ _______ _____ _____    ______ ____
ROOT
ATOM      1  C   UNL     1       3.532   4.658  19.249  0.00  0.00    +0.000 A 
ATOM      2  C   UNL     1       2.701   5.597  19.908  0.00  0.00    +0.000 A 
ATOM      3  C   UNL     1       2.412   6.846  19.362  0.00  0.00    +0.000 A 
ATOM      4  C   UNL     1       3.030   7.222  18.183  0.00  0.00    +0.000 A 
ATOM      5  C   UNL     1       3.884   6.344  17.527  0.00  0.00    +0.000 A 
ATOM      6  C   UNL     1       4.129   5.048  18.024  0.00  0.00    +0.000 A 
ENDROOT
BRANCH   1   7
ATOM      7  C   UNL     1       3.799   3.343  19.928  0.00  0.00    +0.000 C 
ATOM      8  O   UNL     1       4.939   3.035  20.245  0.00  0.00    +0.000 OA
BRANCH   7   9
ATOM      9  C   UNL     1       2.611   2.466  20.330  0.00  0.00    +0.000 C 
BRANCH   9  11
ATOM     10  C   UNL     1       0.571   2.702  18.922  0.00  0.00    +0.000 C 
ATOM     11  C   UNL     1       1.813   1.841  19.181  0.00  0.00    +0.000 C 
ATOM     12  C   UNL     1       2.643   1.765  17.904  0.00  0.00    +0.000 C 
ENDBRANCH   9  11
ENDBRANCH   7   9
ENDBRANCH   1   7
BRANCH   2  13
ATOM     13  O   UNL     1       2.129   5.408  21.142  0.00  0.00    +0.000 OA
ATOM     14  H   UNL     1       1.983   4.455  21.282  0.00  0.00    +0.000 HD
ENDBRANCH   2  13
BRANCH   4  15
ATOM     15  O   UNL     1       2.837   8.462  17.648  0.00  0.00    +0.000 OA
ATOM     16  H   UNL     1       3.446   9.090  18.082  0.00  0.00    +0.000 HD
ENDBRANCH   4  15
BRANCH   6  17
ATOM     17  O   UNL     1       4.980   4.355  17.188  0.00  0.00    +0.000 OA
BRANCH  17  18
ATOM     18  C   UNL     1       4.764   4.471  15.785  0.00  0.00    +0.000 C 
BRANCH  18  19
ATOM     19  C   UNL     1       6.076   4.641  14.997  0.00  0.00    +0.000 C 
BRANCH  19  20
ATOM     20  O   UNL     1       6.321   3.510  14.153  0.00  0.00    +0.000 OA
ATOM     21  H   UNL     1       6.950   2.940  14.633  0.00  0.00    +0.000 HD
ENDBRANCH  19  20
BRANCH  19  22
ATOM     22  C   UNL     1       7.307   4.893  15.889  0.00  0.00    +0.000 C 
BRANCH  22  23
ATOM     23  N   UNL     1       7.592   6.325  16.132  0.00  0.00    +0.000 NA
ATOM     24  H   UNL     1       7.002   6.859  15.486  0.00  0.00    +0.000 HD
BRANCH  23  25
ATOM     25  C   UNL     1       7.301   6.799  17.497  0.00  0.00    +0.000 C 
ATOM     26  C   UNL     1       7.814   5.851  18.584  0.00  0.00    +0.000 C 
ATOM     27  C   UNL     1       7.930   8.182  17.686  0.00  0.00    +0.000 C 
ENDBRANCH  23  25
ENDBRANCH  22  23
ENDBRANCH  19  22
ENDBRANCH  18  19
ENDBRANCH  17  18
ENDBRANCH   6  17
TORSDOF 12
ENDMDL
MODEL 5
REMARK VINA RESULT:      -6.7      2.485      5.919
REMARK  Name = 
REMARK  16 active torsions:
REMARK  status: ('A' for Active; 'I' for Inactive)
REMARK    1  A    between atoms: C_1  and  C_2
REMARK    2  A    between atoms: C_2  and  C_3
REMARK    3  A    between atoms: C_2  and  C_4
REMARK    4  A    between atoms: C_4  and  C_5
REMARK    5  A    between atoms: C_5  and  C_7
REMARK    6  A    between atoms: C_8  and  O_9
REMARK    7  A    between atoms: C_11  and  O_12
REMARK    8  A    between atoms: C_14  and  O_15
REMARK    9  A    between atoms: O_15  and  C_16
REMARK   10  A    between atoms: C_16  and  C_17
REMARK   11  A    between atoms: C_17  and  O_18
REMARK   12  A    between atoms: C_17  and  C_19
REMARK   13  A    between atoms: C_19  and  N_20
REMARK   14  A    between atoms: N_20  and  C_21
REMARK   15  A    between atoms: C_21  and  C_22
REMARK   16  A    between atoms: C_21  and  C_23
REMARK                            x       y       z     vdW  Elec       q    Type
REMARK                         _______ _______ _______ _____ _____    ______ ____
ROOT
ATOM      1  C   UNL     1       2.787   4.626  19.751  0.00  0.00    +0.000 A 
ATOM      2  C   UNL     1       1.937   3.494  19.726  0.00  0.00    +0.000 A 
ATOM      3  C   UNL     1       2.398   2.225  19.381  0.00  0.00    +0.000 A 
ATOM      4  C   UNL     1       3.706   2.079  18.957  0.00  0.00    +0.000 A 
ATOM      5  C   UNL     1       4.561   3.174  18.929  0.00  0.00    +0.000 A 
ATOM      6  C   UNL     1       4.134   4.450  19.348  0.00  0.00    +0.000 A 
ENDROOT
BRANCH   1   7
ATOM      7  C   UNL     1       2.192   5.957  20.121  0.00  0.00    +0.000 C 
ATOM      8  O   UNL     1       1.349   6.029  21.003  0.00  0.00    +0.000 OA
BRANCH   7   9
ATOM      9  C   UNL     1       2.754   7.223  19.470  0.00  0.00    +0.000 C 
BRANCH   9  11
ATOM     10  C   UNL     1       1.669   8.849  17.926  0.00  0.00    +0.000 C 
ATOM     11  C   UNL     1       2.343   7.474  18.015  0.00  0.00    +0.000 C 
ATOM     12  C   UNL     1       3.551   7.450  17.084  0.00  0.00    +0.000 C 
ENDBRANCH   9  11
ENDBRANCH   7   9
ENDBRANCH   1   7
BRANCH   2  13
ATOM     13  O   UNL     1       0.590   3.519  19.996  0.00  0.00    +0.000 OA
ATOM     14  H   UNL     1       0.213   2.638  19.817  0.00  0.00    +0.000 HD
ENDBRANCH   2  13
BRANCH   4  15
ATOM     15  O   UNL     1       4.183   0.871  18.537  0.00  0.00    +0.000 OA
ATOM     16  H   UNL     1       4.557   0.975  17.642  0.00  0.00    +0.000 HD
ENDBRANCH   4  15
BRANCH   6  17
ATOM     17  O   UNL     1       5.165   5.364  19.260  0.00  0.00    +0.000 OA
BRANCH  17  18
ATOM     18  C   UNL     1       6.496   4.868  19.355  0.00  0.00    +0.000 C 
BRANCH  18  19
ATOM     19  C   UNL     1       7.473   5.613  18.427  0.00  0.00    +0.000 C 
BRANCH  19  20
ATOM     20  O   UNL     1       8.138   6.673  19.123  0.00  0.00    +0.000 OA
ATOM     21  H   UNL     1       9.070   6.398  19.216  0.00  0.00    +0.000 HD
ENDBRANCH  19  20
BRANCH  19  22
ATOM     22  C   UNL     1       6.813   6.171  17.151  0.00  0.00    +0.000 C 
BRANCH  22  23
ATOM     23  N   UNL     1       7.426   5.686  15.894  0.00  0.00    +0.000 NA
ATOM     24  H   UNL     1       8.382   5.397  16.122  0.00  0.00    +0.000 HD
BRANCH  23  25
ATOM     25  C   UNL     1       6.749   4.535  15.270  0.00  0.00    +0.000 C 
ATOM     26  C   UNL     1       5.264   4.445  15.628  0.00  0.00    +0.000 C 
ATOM     27  C   UNL     1       6.903   4.635  13.749  0.00  0.00    +0.000 C 
ENDBRANCH  23  25
ENDBRANCH  22  23
ENDBRANCH  19  22
ENDBRANCH  18  19
ENDBRANCH  17  18
ENDBRANCH   6  17
TORSDOF 12
ENDMDL
MODEL 6
REMARK VINA RESULT:      -6.7      1.459      1.813
REMARK  Name = 
REMARK  16 active torsions:
REMARK  status: ('A' for Active; 'I' for Inactive)
REMARK    1  A    between atoms: C_1  and  C_2
REMARK    2  A    between atoms: C_2  and  C_3
REMARK    3  A    between atoms: C_2  and  C_4
REMARK    4  A    between atoms: C_4  and  C_5
REMARK    5  A    between atoms: C_5  and  C_7
REMARK    6  A    between atoms: C_8  and  O_9
REMARK    7  A    between atoms: C_11  and  O_12
REMARK    8  A    between atoms: C_14  and  O_15
REMARK    9  A    between atoms: O_15  and  C_16
REMARK   10  A    between atoms: C_16  and  C_17
REMARK   11  A    between atoms: C_17  and  O_18
REMARK   12  A    between atoms: C_17  and  C_19
REMARK   13  A    between atoms: C_19  and  N_20
REMARK   14  A    between atoms: N_20  and  C_21
REMARK   15  A    between atoms: C_21  and  C_22
REMARK   16  A    between atoms: C_21  and  C_23
REMARK                            x       y       z     vdW  Elec       q    Type
REMARK                         _______ _______ _______ _____ _____    ______ ____
ROOT
ATOM      1  C   UNL     1       5.622   5.263  16.744  0.00  0.00    +0.000 A 
ATOM      2  C   UNL     1       5.867   6.616  17.086  0.00  0.00    +0.000 A 
ATOM      3  C   UNL     1       4.894   7.421  17.676  0.00  0.00    +0.000 A 
ATOM      4  C   UNL     1       3.619   6.915  17.849  0.00  0.00    +0.000 A 
ATOM      5  C   UNL     1       3.329   5.604  17.489  0.00  0.00    +0.000 A 
ATOM      6  C   UNL     1       4.319   4.751  16.962  0.00  0.00    +0.000 A 
ENDROOT
BRANCH   1   7
ATOM      7  C   UNL     1       6.731   4.481  16.095  0.00  0.00    +0.000 C 
ATOM      8  O   UNL     1       7.845   4.461  16.598  0.00  0.00    +0.000 OA
BRANCH   7   9
ATOM      9  C   UNL     1       6.406   3.610  14.880  0.00  0.00    +0.000 C 
BRANCH   9  11
ATOM     10  C   UNL     1       7.584   5.032  13.208  0.00  0.00    +0.000 C 
ATOM     11  C   UNL     1       6.255   4.344  13.543  0.00  0.00    +0.000 C 
ATOM     12  C   UNL     1       5.894   3.380  12.417  0.00  0.00    +0.000 C 
ENDBRANCH   9  11
ENDBRANCH   7   9
ENDBRANCH   1   7
BRANCH   2  13
ATOM     13  O   UNL     1       7.043   7.284  16.850  0.00  0.00    +0.000 OA
ATOM     14  H   UNL     1       7.433   6.958  16.019  0.00  0.00    +0.000 HD
ENDBRANCH   2  13
BRANCH   4  15
ATOM     15  O   UNL     1       2.614   7.688  18.354  0.00  0.00    +0.000 OA
ATOM     16  H   UNL     1       2.140   7.180  19.039  0.00  0.00    +0.000 HD
ENDBRANCH   4  15
BRANCH   6  17
ATOM     17  O   UNL     1       3.802   3.496  16.713  0.00  0.00    +0.000 OA
BRANCH  17  18
ATOM     18  C   UNL     1       3.089   2.856  17.766  0.00  0.00    +0.000 C 
BRANCH  18  19
ATOM     19  C   UNL     1       4.018   2.106  18.738  0.00  0.00    +0.000 C 
BRANCH  19  20
ATOM     20  O   UNL     1       3.952   0.691  18.527  0.00  0.00    +0.000 OA
ATOM     21  H   UNL     1       4.117   0.276  19.394  0.00  0.00    +0.000 HD
ENDBRANCH  19  20
BRANCH  19  22
ATOM     22  C   UNL     1       3.744   2.417  20.222  0.00  0.00    +0.000 C 
BRANCH  22  23
ATOM     23  N   UNL     1       3.419   3.837  20.490  0.00  0.00    +0.000 NA
ATOM     24  H   UNL     1       3.339   4.299  19.580  0.00  0.00    +0.000 HD
BRANCH  23  25
ATOM     25  C   UNL     1       2.159   4.064  21.220  0.00  0.00    +0.000 C 
ATOM     26  C   UNL     1       1.353   5.245  20.675  0.00  0.00    +0.000 C 
ATOM     27  C   UNL     1       1.311   2.790  21.151  0.00  0.00    +0.000 C 
ENDBRANCH  23  25
ENDBRANCH  22  23
ENDBRANCH  19  22
ENDBRANCH  18  19
ENDBRANCH  17  18
ENDBRANCH   6  17
TORSDOF 12
ENDMDL
MODEL 7
REMARK VINA RESULT:      -6.6      4.014      6.029
REMARK  Name = 
REMARK  16 active torsions:
REMARK  status: ('A' for Active; 'I' for Inactive)
REMARK    1  A    between atoms: C_1  and  C_2
REMARK    2  A    between atoms: C_2  and  C_3
REMARK    3  A    between atoms: C_2  and  C_4
REMARK    4  A    between atoms: C_4  and  C_5
REMARK    5  A    between atoms: C_5  and  C_7
REMARK    6  A    between atoms: C_8  and  O_9
REMARK    7  A    between atoms: C_11  and  O_12
REMARK    8  A    between atoms: C_14  and  O_15
REMARK    9  A    between atoms: O_15  and  C_16
REMARK   10  A    between atoms: C_16  and  C_17
REMARK   11  A    between atoms: C_17  and  O_18
REMARK   12  A    between atoms: C_17  and  C_19
REMARK   13  A    between atoms: C_19  and  N_20
REMARK   14  A    between atoms: N_20  and  C_21
REMARK   15  A    between atoms: C_21  and  C_22
REMARK   16  A    between atoms: C_21  and  C_23
REMARK                            x       y       z     vdW  Elec       q    Type
REMARK                         _______ _______ _______ _____ _____    ______ ____
ROOT
ATOM      1  C   UNL     1       4.402   5.619  17.049  0.00  0.00    +0.000 A 
ATOM      2  C   UNL     1       4.365   4.210  17.186  0.00  0.00    +0.000 A 
ATOM      3  C   UNL     1       3.396   3.563  17.951  0.00  0.00    +0.000 A 
ATOM      4  C   UNL     1       2.497   4.322  18.676  0.00  0.00    +0.000 A 
ATOM      5  C   UNL     1       2.526   5.709  18.599  0.00  0.00    +0.000 A 
ATOM      6  C   UNL     1       3.449   6.379  17.772  0.00  0.00    +0.000 A 
ENDROOT
BRANCH   1   7
ATOM      7  C   UNL     1       5.497   6.226  16.216  0.00  0.00    +0.000 C 
ATOM      8  O   UNL     1       5.225   6.832  15.189  0.00  0.00    +0.000 OA
BRANCH   7   9
ATOM      9  C   UNL     1       6.934   6.185  16.743  0.00  0.00    +0.000 C 
BRANCH   9  11
ATOM     10  C   UNL     1       7.927   5.960  19.015  0.00  0.00    +0.000 C 
ATOM     11  C   UNL     1       7.189   6.912  18.067  0.00  0.00    +0.000 C 
ATOM     12  C   UNL     1       8.035   8.164  17.860  0.00  0.00    +0.000 C 
ENDBRANCH   9  11
ENDBRANCH   7   9
ENDBRANCH   1   7
BRANCH   2  13
ATOM     13  O   UNL     1       5.274   3.344  16.629  0.00  0.00    +0.000 OA
ATOM     14  H   UNL     1       5.642   3.745  15.821  0.00  0.00    +0.000 HD
ENDBRANCH   2  13
BRANCH   4  15
ATOM     15  O   UNL     1       1.578   3.736  19.497  0.00  0.00    +0.000 OA
ATOM     16  H   UNL     1       1.999   3.547  20.357  0.00  0.00    +0.000 HD
ENDBRANCH   4  15
BRANCH   6  17
ATOM     17  O   UNL     1       3.264   7.745  17.838  0.00  0.00    +0.000 OA
BRANCH  17  18
ATOM     18  C   UNL     1       2.159   8.224  18.597  0.00  0.00    +0.000 C 
BRANCH  18  19
ATOM     19  C   UNL     1       1.377   9.333  17.869  0.00  0.00    +0.000 C 
BRANCH  19  20
ATOM     20  O   UNL     1       2.262  10.319  17.327  0.00  0.00    +0.000 OA
ATOM     21  H   UNL     1       2.024  10.415  16.386  0.00  0.00    +0.000 HD
ENDBRANCH  19  20
BRANCH  19  22
ATOM     22  C   UNL     1       0.316  10.022  18.748  0.00  0.00    +0.000 C 
BRANCH  22  23
ATOM     23  N   UNL     1      -0.166  11.315  18.210  0.00  0.00    +0.000 NA
ATOM     24  H   UNL     1       0.268  11.433  17.290  0.00  0.00    +0.000 HD
BRANCH  23  25
ATOM     25  C   UNL     1      -1.626  11.414  18.032  0.00  0.00    +0.000 C 
ATOM     26  C   UNL     1      -2.276  10.083  17.647  0.00  0.00    +0.000 C 
ATOM     27  C   UNL     1      -2.249  11.932  19.331  0.00  0.00    +0.000 C 
ENDBRANCH  23  25
ENDBRANCH  22  23
ENDBRANCH  19  22
ENDBRANCH  18  19
ENDBRANCH  17  18
ENDBRANCH   6  17
TORSDOF 12
ENDMDL
MODEL 8
REMARK VINA RESULT:      -6.5      3.385      5.651
REMARK  Name = 
REMARK  16 active torsions:
REMARK  status: ('A' for Active; 'I' for Inactive)
REMARK    1  A    between atoms: C_1  and  C_2
REMARK    2  A    between atoms: C_2  and  C_3
REMARK    3  A    between atoms: C_2  and  C_4
REMARK    4  A    between atoms: C_4  and  C_5
REMARK    5  A    between atoms: C_5  and  C_7
REMARK    6  A    between atoms: C_8  and  O_9
REMARK    7  A    between atoms: C_11  and  O_12
REMARK    8  A    between atoms: C_14  and  O_15
REMARK    9  A    between atoms: O_15  and  C_16
REMARK   10  A    between atoms: C_16  and  C_17
REMARK   11  A    between atoms: C_17  and  O_18
REMARK   12  A    between atoms: C_17  and  C_19
REMARK   13  A    between atoms: C_19  and  N_20
REMARK   14  A    between atoms: N_20  and  C_21
REMARK   15  A    between atoms: C_21  and  C_22
REMARK   16  A    between atoms: C_21  and  C_23
REMARK                            x       y       z     vdW  Elec       q    Type
REMARK                         _______ _______ _______ _____ _____    ______ ____
ROOT
ATOM      1  C   UNL     1       4.302   4.827  19.343  0.00  0.00    +0.000 A 
ATOM      2  C   UNL     1       4.122   3.449  19.614  0.00  0.00    +0.000 A 
ATOM      3  C   UNL     1       2.886   2.919  19.980  0.00  0.00    +0.000 A 
ATOM      4  C   UNL     1       1.820   3.777  20.178  0.00  0.00    +0.000 A 
ATOM      5  C   UNL     1       1.967   5.142  19.962  0.00  0.00    +0.000 A 
ATOM      6  C   UNL     1       3.189   5.687  19.517  0.00  0.00    +0.000 A 
ENDROOT
BRANCH   1   7
ATOM      7  C   UNL     1       5.678   5.306  18.972  0.00  0.00    +0.000 C 
ATOM      8  O   UNL     1       6.582   5.280  19.796  0.00  0.00    +0.000 OA
BRANCH   7   9
ATOM      9  C   UNL     1       5.957   5.698  17.520  0.00  0.00    +0.000 C 
BRANCH   9  11
ATOM     10  C   UNL     1       4.852   4.094  15.967  0.00  0.00    +0.000 C 
ATOM     11  C   UNL     1       6.201   4.544  16.542  0.00  0.00    +0.000 C 
ATOM     12  C   UNL     1       7.115   4.968  15.398  0.00  0.00    +0.000 C 
ENDBRANCH   9  11
ENDBRANCH   7   9
ENDBRANCH   1   7
BRANCH   2  13
ATOM     13  O   UNL     1       5.120   2.507  19.585  0.00  0.00    +0.000 OA
ATOM     14  H   UNL     1       5.978   2.955  19.473  0.00  0.00    +0.000 HD
ENDBRANCH   2  13
BRANCH   4  15
ATOM     15  O   UNL     1       0.610   3.315  20.609  0.00  0.00    +0.000 OA
ATOM     16  H   UNL     1       0.664   3.140  21.567  0.00  0.00    +0.000 HD
ENDBRANCH   4  15
BRANCH   6  17
ATOM     17  O   UNL     1       3.082   7.052  19.344  0.00  0.00    +0.000 OA
BRANCH  17  18
ATOM     18  C   UNL     1       2.759   7.527  18.042  0.00  0.00    +0.000 C 
BRANCH  18  19
ATOM     19  C   UNL     1       1.668   8.613  18.062  0.00  0.00    +0.000 C 
BRANCH  19  20
ATOM     20  O   UNL     1       2.108   9.800  17.392  0.00  0.00    +0.000 OA
ATOM     21  H   UNL     1       3.068   9.869  17.556  0.00  0.00    +0.000 HD
ENDBRANCH  19  20
BRANCH  19  22
ATOM     22  C   UNL     1       1.178   8.974  19.478  0.00  0.00    +0.000 C 
BRANCH  22  23
ATOM     23  N   UNL     1       0.847  10.405  19.655  0.00  0.00    +0.000 NA
ATOM     24  H   UNL     1      -0.090  10.544  19.264  0.00  0.00    +0.000 HD
BRANCH  23  25
ATOM     25  C   UNL     1       0.821  10.874  21.052  0.00  0.00    +0.000 C 
ATOM     26  C   UNL     1      -0.372  11.782  21.360  0.00  0.00    +0.000 C 
ATOM     27  C   UNL     1       0.793   9.658  21.982  0.00  0.00    +0.000 C 
ENDBRANCH  23  25
ENDBRANCH  22  23
ENDBRANCH  19  22
ENDBRANCH  18  19
ENDBRANCH  17  18
ENDBRANCH   6  17
TORSDOF 12
ENDMDL
MODEL 9
REMARK VINA RESULT:      -6.5      3.458      5.763
REMARK  Name = 
REMARK  16 active torsions:
REMARK  status: ('A' for Active; 'I' for Inactive)
REMARK    1  A    between atoms: C_1  and  C_2
REMARK    2  A    between atoms: C_2  and  C_3
REMARK    3  A    between atoms: C_2  and  C_4
REMARK    4  A    between atoms: C_4  and  C_5
REMARK    5  A    between atoms: C_5  and  C_7
REMARK    6  A    between atoms: C_8  and  O_9
REMARK    7  A    between atoms: C_11  and  O_12
REMARK    8  A    between atoms: C_14  and  O_15
REMARK    9  A    between atoms: O_15  and  C_16
REMARK   10  A    between atoms: C_16  and  C_17
REMARK   11  A    between atoms: C_17  and  O_18
REMARK   12  A    between atoms: C_17  and  C_19
REMARK   13  A    between atoms: C_19  and  N_20
REMARK   14  A    between atoms: N_20  and  C_21
REMARK   15  A    between atoms: C_21  and  C_22
REMARK   16  A    between atoms: C_21  and  C_23
REMARK                            x       y       z     vdW  Elec       q    Type
REMARK                         _______ _______ _______ _____ _____    ______ ____
ROOT
ATOM      1  C   UNL     1       4.151   4.887  19.380  0.00  0.00    +0.000 A 
ATOM      2  C   UNL     1       4.015   3.499  19.630  0.00  0.00    +0.000 A 
ATOM      3  C   UNL     1       2.788   2.917  19.941  0.00  0.00    +0.000 A 
ATOM      4  C   UNL     1       1.681   3.729  20.103  0.00  0.00    +0.000 A 
ATOM      5  C   UNL     1       1.782   5.101  19.906  0.00  0.00    +0.000 A 
ATOM      6  C   UNL     1       2.997   5.699  19.517  0.00  0.00    +0.000 A 
ENDROOT
BRANCH   1   7
ATOM      7  C   UNL     1       5.520   5.425  19.070  0.00  0.00    +0.000 C 
ATOM      8  O   UNL     1       6.442   5.251  19.855  0.00  0.00    +0.000 OA
BRANCH   7   9
ATOM      9  C   UNL     1       5.768   6.071  17.705  0.00  0.00    +0.000 C 
BRANCH   9  11
ATOM     10  C   UNL     1       5.205   6.316  15.292  0.00  0.00    +0.000 C 
ATOM     11  C   UNL     1       5.123   5.377  16.501  0.00  0.00    +0.000 C 
ATOM     12  C   UNL     1       5.834   4.069  16.167  0.00  0.00    +0.000 C 
ENDBRANCH   9  11
ENDBRANCH   7   9
ENDBRANCH   1   7
BRANCH   2  13
ATOM     13  O   UNL     1       5.052   2.598  19.633  0.00  0.00    +0.000 OA
ATOM     14  H   UNL     1       5.737   2.903  20.255  0.00  0.00    +0.000 HD
ENDBRANCH   2  13
BRANCH   4  15
ATOM     15  O   UNL     1       0.475   3.214  20.480  0.00  0.00    +0.000 OA
ATOM     16  H   UNL     1       0.597   2.280  20.733  0.00  0.00    +0.000 HD
ENDBRANCH   4  15
BRANCH   6  17
ATOM     17  O   UNL     1       2.842   7.061  19.352  0.00  0.00    +0.000 OA
BRANCH  17  18
ATOM     18  C   UNL     1       2.453   7.529  18.065  0.00  0.00    +0.000 C 
BRANCH  18  19
ATOM     19  C   UNL     1       1.590   8.802  18.135  0.00  0.00    +0.000 C 
BRANCH  19  20
ATOM     20  O   UNL     1       2.199   9.878  17.412  0.00  0.00    +0.000 OA
ATOM     21  H   UNL     1       2.300  10.613  18.045  0.00  0.00    +0.000 HD
ENDBRANCH  19  20
BRANCH  19  22
ATOM     22  C   UNL     1       1.277   9.261  19.572  0.00  0.00    +0.000 C 
BRANCH  22  23
ATOM     23  N   UNL     1      -0.099   9.773  19.755  0.00  0.00    +0.000 NA
ATOM     24  H   UNL     1      -0.224   9.937  20.759  0.00  0.00    +0.000 HD
BRANCH  23  25
ATOM     25  C   UNL     1      -0.397  11.036  19.056  0.00  0.00    +0.000 C 
ATOM     26  C   UNL     1      -1.894  11.341  18.977  0.00  0.00    +0.000 C 
ATOM     27  C   UNL     1       0.322  12.181  19.775  0.00  0.00    +0.000 C 
ENDBRANCH  23  25
ENDBRANCH  22  23
ENDBRANCH  19  22
ENDBRANCH  18  19
ENDBRANCH  17  18
ENDBRANCH   6  17
TORSDOF 12
ENDMDL
