MODEL 1
REMARK VINA RESULT:      -8.2      0.000      0.000
REMARK  Name = 
REMARK  9 active torsions:
REMARK  status: ('A' for Active; 'I' for Inactive)
REMARK    1  A    between atoms: C_1  and  C_2
REMARK    2  A    between atoms: N_4  and  C_5
REMARK    3  A    between atoms: C_8  and  N_9
REMARK    4  A    between atoms: N_9  and  C_10
REMARK    5  A    between atoms: C_15  and  N_16
REMARK    6  A    between atoms: C_22  and  N_23
REMARK    7  A    between atoms: N_23  and  C_24
REMARK    8  A    between atoms: C_27  and  N_28
REMARK    9  A    between atoms: C_29  and  C_30
REMARK                            x       y       z     vdW  Elec       q    Type
REMARK                         _______ _______ _______ _____ _____    ______ ____
ROOT
ATOM      1  C   UNL     1       6.781   6.988  17.764  0.00  0.00    +0.000 A 
ATOM      2  N   UNL     1       5.474   7.199  17.557  0.00  0.00    +0.000 NA
ATOM      3  C   UNL     1       4.682   6.247  18.077  0.00  0.00    +0.000 A 
ATOM      4  C   UNL     1       3.768   5.543  17.312  0.00  0.00    +0.000 A 
ATOM      5  C   UNL     1       3.074   4.459  17.858  0.00  0.00    +0.000 A 
ATOM      6  C   UNL     1       3.099   4.311  19.242  0.00  0.00    +0.000 A 
ATOM      7  C   UNL     1       4.079   4.974  19.964  0.00  0.00    +0.000 A 
ATOM      8  C   UNL     1       5.077   5.563  19.207  0.00  0.00    +0.000 A 
ATOM      9  N   UNL     1       6.358   5.134  19.180  0.00  0.00    +0.000 NA
ATOM     10  C   UNL     1       7.125   5.694  18.207  0.00  0.00    +0.000 A 
ENDROOT
BRANCH   6  11
ATOM     11  N   UNL     1       2.118   3.465  19.910  0.00  0.00    +0.000 N 
ATOM     12  O   UNL     1       1.616   2.539  19.255  0.00  0.00    +0.000 OA
ATOM     13  O   UNL     1       1.845   3.723  21.089  0.00  0.00    +0.000 OA
ENDBRANCH   6  11
BRANCH   1  14
ATOM     14  N   UNL     1       7.817   7.844  17.294  0.00  0.00    +0.000 N 
ATOM     15  H   UNL     1       8.613   7.255  17.036  0.00  0.00    +0.000 HD
BRANCH  14  19
ATOM     16  C   UNL     1       9.172  11.458  19.046  0.00  0.00    +0.000 A 
ATOM     17  C   UNL     1       8.405  11.471  17.870  0.00  0.00    +0.000 A 
ATOM     18  C   UNL     1       7.956  10.264  17.306  0.00  0.00    +0.000 A 
ATOM     19  C   UNL     1       8.268   9.043  17.897  0.00  0.00    +0.000 A 
ATOM     20  C   UNL     1       8.952   9.051  19.114  0.00  0.00    +0.000 A 
ATOM     21  C   UNL     1       9.418  10.245  19.678  0.00  0.00    +0.000 A 
BRANCH  16  25
ATOM     22  C   UNL     1      11.185  14.447  20.202  0.00  0.00    +0.000 C 
ATOM     23  C   UNL     1      10.854  13.316  19.262  0.00  0.00    +0.000 C 
ATOM     24  O   UNL     1      11.560  13.087  18.284  0.00  0.00    +0.000 OA
ATOM     25  N   UNL     1       9.732  12.614  19.655  0.00  0.00    +0.000 N 
ATOM     26  H   UNL     1       9.266  12.936  20.495  0.00  0.00    +0.000 HD
ENDBRANCH  16  25
ENDBRANCH  14  19
ENDBRANCH   1  14
BRANCH  10  27
ATOM     27  N   UNL     1       7.713   4.913  17.106  0.00  0.00    +0.000 N 
ATOM     28  H   UNL     1       8.588   5.401  16.883  0.00  0.00    +0.000 HD
BRANCH  27  29
ATOM     29  C   UNL     1       7.097   4.523  15.880  0.00  0.00    +0.000 A 
ATOM     30  C   UNL     1       6.024   3.608  15.884  0.00  0.00    +0.000 A 
ATOM     31  C   UNL     1       5.262   3.354  14.727  0.00  0.00    +0.000 A 
ATOM     32  C   UNL     1       5.544   4.010  13.528  0.00  0.00    +0.000 A 
ATOM     33  C   UNL     1       6.665   4.854  13.497  0.00  0.00    +0.000 A 
ATOM     34  C   UNL     1       7.437   5.094  14.655  0.00  0.00    +0.000 A 
BRANCH  32  35
ATOM     35  N   UNL     1       4.747   3.919  12.359  0.00  0.00    +0.000 N 
ATOM     36  C   UNL     1       4.710   2.865  11.462  0.00  0.00    +0.000 C 
ATOM     37  C   UNL     1       3.666   3.009  10.374  0.00  0.00    +0.000 C 
ATOM     38  O   UNL     1       5.442   1.869  11.456  0.00  0.00    +0.000 OA
ATOM     39  H   UNL     1       4.093   4.673  12.204  0.00  0.00    +0.000 HD
ENDBRANCH  32  35
ENDBRANCH  27  29
ENDBRANCH  10  27
TORSDOF 7
ENDMDL
MODEL 2
REMARK VINA RESULT:      -7.9      7.729     11.202
REMARK  Name = 
REMARK  9 active torsions:
REMARK  status: ('A' for Active; 'I' for Inactive)
REMARK    1  A    between atoms: C_1  and  C_2
REMARK    2  A    between atoms: N_4  and  C_5
REMARK    3  A    between atoms: C_8  and  N_9
REMARK    4  A    between atoms: N_9  and  C_10
REMARK    5  A    between atoms: C_15  and  N_16
REMARK    6  A    between atoms: C_22  and  N_23
REMARK    7  A    between atoms: N_23  and  C_24
REMARK    8  A    between atoms: C_27  and  N_28
REMARK    9  A    between atoms: C_29  and  C_30
REMARK                            x       y       z     vdW  Elec       q    Type
REMARK                         _______ _______ _______ _____ _____    ______ ____
ROOT
ATOM      1  C   UNL     1      -1.021  12.134  19.284  0.00  0.00    +0.000 A 
ATOM      2  N   UNL     1      -1.326  13.185  20.057  0.00  0.00    +0.000 NA
ATOM      3  C   UNL     1      -0.316  14.058  20.208  0.00  0.00    +0.000 A 
ATOM      4  C   UNL     1       0.164  14.429  21.453  0.00  0.00    +0.000 A 
ATOM      5  C   UNL     1       1.311  15.219  21.563  0.00  0.00    +0.000 A 
ATOM      6  C   UNL     1       1.762  15.861  20.412  0.00  0.00    +0.000 A 
ATOM      7  C   UNL     1       1.316  15.409  19.180  0.00  0.00    +0.000 A 
ATOM      8  C   UNL     1       0.616  14.215  19.205  0.00  0.00    +0.000 A 
ATOM      9  N   UNL     1       1.080  13.056  18.689  0.00  0.00    +0.000 NA
ATOM     10  C   UNL     1       0.352  11.955  19.016  0.00  0.00    +0.000 A 
ENDROOT
BRANCH   6  11
ATOM     11  N   UNL     1       2.694  16.978  20.509  0.00  0.00    +0.000 N 
ATOM     12  O   UNL     1       2.294  18.013  21.064  0.00  0.00    +0.000 OA
ATOM     13  O   UNL     1       3.825  16.826  20.032  0.00  0.00    +0.000 OA
ENDBRANCH   6  11
BRANCH   1  14
ATOM     14  N   UNL     1      -1.916  11.067  18.992  0.00  0.00    +0.000 N 
ATOM     15  H   UNL     1      -1.515  10.210  19.382  0.00  0.00    +0.000 HD
BRANCH  14  19
ATOM     16  C   UNL     1      -3.731  10.241  15.251  0.00  0.00    +0.000 A 
ATOM     17  C   UNL     1      -2.675   9.449  15.730  0.00  0.00    +0.000 A 
ATOM     18  C   UNL     1      -2.089   9.731  16.976  0.00  0.00    +0.000 A 
ATOM     19  C   UNL     1      -2.539  10.797  17.749  0.00  0.00    +0.000 A 
ATOM     20  C   UNL     1      -3.649  11.518  17.303  0.00  0.00    +0.000 A 
ATOM     21  C   UNL     1      -4.231  11.257  16.057  0.00  0.00    +0.000 A 
BRANCH  16  25
ATOM     22  C   UNL     1      -4.698   9.735  11.628  0.00  0.00    +0.000 C 
ATOM     23  C   UNL     1      -3.737   9.724  12.790  0.00  0.00    +0.000 C 
ATOM     24  O   UNL     1      -2.556   9.438  12.622  0.00  0.00    +0.000 OA
ATOM     25  N   UNL     1      -4.343  10.083  13.977  0.00  0.00    +0.000 N 
ATOM     26  H   UNL     1      -5.332  10.294  13.938  0.00  0.00    +0.000 HD
ENDBRANCH  16  25
ENDBRANCH  14  19
ENDBRANCH   1  14
BRANCH  10  27
ATOM     27  N   UNL     1       0.894  10.849  19.823  0.00  0.00    +0.000 N 
ATOM     28  H   UNL     1       1.678  11.267  20.337  0.00  0.00    +0.000 HD
BRANCH  27  29
ATOM     29  C   UNL     1       1.294   9.553  19.379  0.00  0.00    +0.000 A 
ATOM     30  C   UNL     1       1.654   9.343  18.032  0.00  0.00    +0.000 A 
ATOM     31  C   UNL     1       2.244   8.139  17.602  0.00  0.00    +0.000 A 
ATOM     32  C   UNL     1       2.499   7.106  18.504  0.00  0.00    +0.000 A 
ATOM     33  C   UNL     1       2.062   7.277  19.827  0.00  0.00    +0.000 A 
ATOM     34  C   UNL     1       1.457   8.480  20.252  0.00  0.00    +0.000 A 
BRANCH  32  35
ATOM     35  N   UNL     1       3.210   5.922  18.185  0.00  0.00    +0.000 N 
ATOM     36  C   UNL     1       2.670   4.719  17.764  0.00  0.00    +0.000 C 
ATOM     37  C   UNL     1       3.698   3.673  17.384  0.00  0.00    +0.000 C 
ATOM     38  O   UNL     1       1.472   4.427  17.697  0.00  0.00    +0.000 OA
ATOM     39  H   UNL     1       4.218   5.986  18.207  0.00  0.00    +0.000 HD
ENDBRANCH  32  35
ENDBRANCH  27  29
ENDBRANCH  10  27
TORSDOF 7
ENDMDL
MODEL 3
REMARK VINA RESULT:      -7.9      6.944     10.639
REMARK  Name = 
REMARK  9 active torsions:
REMARK  status: ('A' for Active; 'I' for Inactive)
REMARK    1  A    between atoms: C_1  and  C_2
REMARK    2  A    between atoms: N_4  and  C_5
REMARK    3  A    between atoms: C_8  and  N_9
REMARK    4  A    between atoms: N_9  and  C_10
REMARK    5  A    between atoms: C_15  and  N_16
REMARK    6  A    between atoms: C_22  and  N_23
REMARK    7  A    between atoms: N_23  and  C_24
REMARK    8  A    between atoms: C_27  and  N_28
REMARK    9  A    between atoms: C_29  and  C_30
REMARK                            x       y       z     vdW  Elec       q    Type
REMARK                         _______ _______ _______ _____ _____    ______ ____
ROOT
ATOM      1  C   UNL     1      -0.456  11.658  19.099  0.00  0.00    +0.000 A 
ATOM      2  N   UNL     1      -0.385  12.814  19.771  0.00  0.00    +0.000 NA
ATOM      3  C   UNL     1       0.858  13.317  19.856  0.00  0.00    +0.000 A 
ATOM      4  C   UNL     1       1.456  13.617  21.068  0.00  0.00    +0.000 A 
ATOM      5  C   UNL     1       2.801  13.993  21.120  0.00  0.00    +0.000 A 
ATOM      6  C   UNL     1       3.416  14.348  19.922  0.00  0.00    +0.000 A 
ATOM      7  C   UNL     1       2.823  13.962  18.730  0.00  0.00    +0.000 A 
ATOM      8  C   UNL     1       1.770  13.071  18.853  0.00  0.00    +0.000 A 
ATOM      9  N   UNL     1       1.820  11.783  18.447  0.00  0.00    +0.000 NA
ATOM     10  C   UNL     1       0.776  11.015  18.862  0.00  0.00    +0.000 A 
ENDROOT
BRANCH   6  11
ATOM     11  N   UNL     1       4.664  15.101  19.930  0.00  0.00    +0.000 N 
ATOM     12  O   UNL     1       4.847  15.900  20.861  0.00  0.00    +0.000 OA
ATOM     13  O   UNL     1       5.463  14.899  19.007  0.00  0.00    +0.000 OA
ENDBRANCH   6  11
BRANCH   1  14
ATOM     14  N   UNL     1      -1.657  10.922  18.892  0.00  0.00    +0.000 N 
ATOM     15  H   UNL     1      -1.564  10.031  19.386  0.00  0.00    +0.000 HD
BRANCH  14  19
ATOM     16  C   UNL     1      -3.748  10.379  15.245  0.00  0.00    +0.000 A 
ATOM     17  C   UNL     1      -4.135  11.376  16.156  0.00  0.00    +0.000 A 
ATOM     18  C   UNL     1      -3.426  11.549  17.357  0.00  0.00    +0.000 A 
ATOM     19  C   UNL     1      -2.339  10.736  17.665  0.00  0.00    +0.000 A 
ATOM     20  C   UNL     1      -1.911   9.812  16.710  0.00  0.00    +0.000 A 
ATOM     21  C   UNL     1      -2.617   9.619  15.517  0.00  0.00    +0.000 A 
BRANCH  16  25
ATOM     22  C   UNL     1      -4.945   9.530  11.757  0.00  0.00    +0.000 C 
ATOM     23  C   UNL     1      -3.899   9.685  12.832  0.00  0.00    +0.000 C 
ATOM     24  O   UNL     1      -2.713   9.488  12.586  0.00  0.00    +0.000 OA
ATOM     25  N   UNL     1      -4.440  10.078  14.040  0.00  0.00    +0.000 N 
ATOM     26  H   UNL     1      -5.445  10.202  14.070  0.00  0.00    +0.000 HD
ENDBRANCH  16  25
ENDBRANCH  14  19
ENDBRANCH   1  14
BRANCH  10  27
ATOM     27  N   UNL     1       0.942   9.868  19.770  0.00  0.00    +0.000 N 
ATOM     28  H   UNL     1       1.304  10.277  20.639  0.00  0.00    +0.000 HD
BRANCH  27  29
ATOM     29  C   UNL     1       1.644   8.650  19.526  0.00  0.00    +0.000 A 
ATOM     30  C   UNL     1       1.656   7.630  20.500  0.00  0.00    +0.000 A 
ATOM     31  C   UNL     1       2.161   6.346  20.221  0.00  0.00    +0.000 A 
ATOM     32  C   UNL     1       2.667   6.035  18.958  0.00  0.00    +0.000 A 
ATOM     33  C   UNL     1       2.738   7.072  18.015  0.00  0.00    +0.000 A 
ATOM     34  C   UNL     1       2.245   8.364  18.302  0.00  0.00    +0.000 A 
BRANCH  32  35
ATOM     35  N   UNL     1       3.065   4.737  18.552  0.00  0.00    +0.000 N 
ATOM     36  C   UNL     1       2.248   3.628  18.406  0.00  0.00    +0.000 C 
ATOM     37  C   UNL     1       2.948   2.409  17.840  0.00  0.00    +0.000 C 
ATOM     38  O   UNL     1       1.054   3.542  18.707  0.00  0.00    +0.000 OA
ATOM     39  H   UNL     1       4.033   4.629  18.281  0.00  0.00    +0.000 HD
ENDBRANCH  32  35
ENDBRANCH  27  29
ENDBRANCH  10  27
TORSDOF 7
ENDMDL
MODEL 4
REMARK VINA RESULT:      -7.8      3.447     11.218
REMARK  Name = 
REMARK  9 active torsions:
REMARK  status: ('A' for Active; 'I' for Inactive)
REMARK    1  A    between atoms: C_1  and  C_2
REMARK    2  A    between atoms: N_4  and  C_5
REMARK    3  A    between atoms: C_8  and  N_9
REMARK    4  A    between atoms: N_9  and  C_10
REMARK    5  A    between atoms: C_15  and  N_16
REMARK    6  A    between atoms: C_22  and  N_23
REMARK    7  A    between atoms: N_23  and  C_24
REMARK    8  A    between atoms: C_27  and  N_28
REMARK    9  A    between atoms: C_29  and  C_30
REMARK                            x       y       z     vdW  Elec       q    Type
REMARK                         _______ _______ _______ _____ _____    ______ ____
ROOT
ATOM      1  C   UNL     1       9.291  10.120  19.028  0.00  0.00    +0.000 A 
ATOM      2  N   UNL     1       8.671  10.889  18.122  0.00  0.00    +0.000 NA
ATOM      3  C   UNL     1       9.250  12.087  17.941  0.00  0.00    +0.000 A 
ATOM      4  C   UNL     1       8.557  13.276  18.093  0.00  0.00    +0.000 A 
ATOM      5  C   UNL     1       9.231  14.500  18.046  0.00  0.00    +0.000 A 
ATOM      6  C   UNL     1      10.530  14.498  17.543  0.00  0.00    +0.000 A 
ATOM      7  C   UNL     1      11.217  13.295  17.478  0.00  0.00    +0.000 A 
ATOM      8  C   UNL     1      10.608  12.230  18.120  0.00  0.00    +0.000 A 
ATOM      9  N   UNL     1      11.087  11.652  19.242  0.00  0.00    +0.000 NA
ATOM     10  C   UNL     1      10.233  10.781  19.843  0.00  0.00    +0.000 A 
ENDROOT
BRANCH   6  11
ATOM     11  N   UNL     1      11.152  15.742  17.107  0.00  0.00    +0.000 N 
ATOM     12  O   UNL     1      12.318  15.960  17.471  0.00  0.00    +0.000 OA
ATOM     13  O   UNL     1      10.480  16.504  16.401  0.00  0.00    +0.000 OA
ENDBRANCH   6  11
BRANCH   1  14
ATOM     14  N   UNL     1       8.858   8.819  19.408  0.00  0.00    +0.000 N 
ATOM     15  H   UNL     1       9.609   8.388  19.953  0.00  0.00    +0.000 HD
BRANCH  14  19
ATOM     16  C   UNL     1       7.039   5.892  16.939  0.00  0.00    +0.000 A 
ATOM     17  C   UNL     1       7.657   5.532  18.147  0.00  0.00    +0.000 A 
ATOM     18  C   UNL     1       8.249   6.515  18.959  0.00  0.00    +0.000 A 
ATOM     19  C   UNL     1       8.237   7.853  18.578  0.00  0.00    +0.000 A 
ATOM     20  C   UNL     1       7.539   8.208  17.421  0.00  0.00    +0.000 A 
ATOM     21  C   UNL     1       6.960   7.236  16.596  0.00  0.00    +0.000 A 
BRANCH  16  25
ATOM     22  C   UNL     1       5.952   3.757  14.009  0.00  0.00    +0.000 C 
ATOM     23  C   UNL     1       6.827   4.776  14.695  0.00  0.00    +0.000 C 
ATOM     24  O   UNL     1       7.721   5.348  14.079  0.00  0.00    +0.000 OA
ATOM     25  N   UNL     1       6.476   4.968  16.016  0.00  0.00    +0.000 N 
ATOM     26  H   UNL     1       5.705   4.413  16.367  0.00  0.00    +0.000 HD
ENDBRANCH  16  25
ENDBRANCH  14  19
ENDBRANCH   1  14
BRANCH  10  27
ATOM     27  N   UNL     1       9.681  11.005  21.190  0.00  0.00    +0.000 N 
ATOM     28  H   UNL     1       8.943  10.299  21.286  0.00  0.00    +0.000 HD
BRANCH  27  29
ATOM     29  C   UNL     1       9.203  12.228  21.750  0.00  0.00    +0.000 A 
ATOM     30  C   UNL     1       9.912  13.429  21.543  0.00  0.00    +0.000 A 
ATOM     31  C   UNL     1       9.373  14.679  21.903  0.00  0.00    +0.000 A 
ATOM     32  C   UNL     1       8.104  14.772  22.477  0.00  0.00    +0.000 A 
ATOM     33  C   UNL     1       7.433  13.573  22.764  0.00  0.00    +0.000 A 
ATOM     34  C   UNL     1       7.983  12.320  22.416  0.00  0.00    +0.000 A 
BRANCH  32  35
ATOM     35  N   UNL     1       7.432  15.991  22.740  0.00  0.00    +0.000 N 
ATOM     36  C   UNL     1       6.857  16.838  21.808  0.00  0.00    +0.000 C 
ATOM     37  C   UNL     1       6.105  18.008  22.409  0.00  0.00    +0.000 C 
ATOM     38  O   UNL     1       6.923  16.742  20.578  0.00  0.00    +0.000 OA
ATOM     39  H   UNL     1       7.305  16.231  23.713  0.00  0.00    +0.000 HD
ENDBRANCH  32  35
ENDBRANCH  27  29
ENDBRANCH  10  27
TORSDOF 7
ENDMDL
MODEL 5
REMARK VINA RESULT:      -7.7      6.153      9.692
REMARK  Name = 
REMARK  9 active torsions:
REMARK  status: ('A' for Active; 'I' for Inactive)
REMARK    1  A    between atoms: C_1  and  C_2
REMARK    2  A    between atoms: N_4  and  C_5
REMARK    3  A    between atoms: C_8  and  N_9
REMARK    4  A    between atoms: N_9  and  C_10
REMARK    5  A    between atoms: C_15  and  N_16
REMARK    6  A    between atoms: C_22  and  N_23
REMARK    7  A    between atoms: N_23  and  C_24
REMARK    8  A    between atoms: C_27  and  N_28
REMARK    9  A    between atoms: C_29  and  C_30
REMARK                            x       y       z     vdW  Elec       q    Type
REMARK                         _______ _______ _______ _____ _____    ______ ____
ROOT
ATOM      1  C   UNL     1       2.796   7.699  18.062  0.00  0.00    +0.000 A 
ATOM      2  N   UNL     1       3.918   7.093  17.652  0.00  0.00    +0.000 NA
ATOM      3  C   UNL     1       4.045   5.831  18.092  0.00  0.00    +0.000 A 
ATOM      4  C   UNL     1       5.149   5.402  18.810  0.00  0.00    +0.000 A 
ATOM      5  C   UNL     1       5.173   4.126  19.379  0.00  0.00    +0.000 A 
ATOM      6  C   UNL     1       4.211   3.214  18.951  0.00  0.00    +0.000 A 
ATOM      7  C   UNL     1       3.083   3.692  18.302  0.00  0.00    +0.000 A 
ATOM      8  C   UNL     1       2.923   5.067  18.327  0.00  0.00    +0.000 A 
ATOM      9  N   UNL     1       1.951   5.702  19.018  0.00  0.00    +0.000 NA
ATOM     10  C   UNL     1       2.101   7.051  19.103  0.00  0.00    +0.000 A 
ENDROOT
BRANCH   6  11
ATOM     11  N   UNL     1       4.390   1.788  19.192  0.00  0.00    +0.000 N 
ATOM     12  O   UNL     1       5.104   1.452  20.150  0.00  0.00    +0.000 OA
ATOM     13  O   UNL     1       3.820   0.999  18.428  0.00  0.00    +0.000 OA
ENDBRANCH   6  11
BRANCH   1  14
ATOM     14  N   UNL     1       2.446   9.041  17.743  0.00  0.00    +0.000 N 
ATOM     15  H   UNL     1       3.253   9.632  17.958  0.00  0.00    +0.000 HD
BRANCH  14  19
ATOM     16  C   UNL     1      -1.129  11.057  18.805  0.00  0.00    +0.000 A 
ATOM     17  C   UNL     1       0.123  11.552  19.204  0.00  0.00    +0.000 A 
ATOM     18  C   UNL     1       1.300  10.877  18.837  0.00  0.00    +0.000 A 
ATOM     19  C   UNL     1       1.244   9.710  18.081  0.00  0.00    +0.000 A 
ATOM     20  C   UNL     1      -0.001   9.281  17.615  0.00  0.00    +0.000 A 
ATOM     21  C   UNL     1      -1.181   9.935  17.987  0.00  0.00    +0.000 A 
BRANCH  16  25
ATOM     22  C   UNL     1      -4.623  12.473  19.135  0.00  0.00    +0.000 C 
ATOM     23  C   UNL     1      -3.517  11.743  18.415  0.00  0.00    +0.000 C 
ATOM     24  O   UNL     1      -3.675  11.344  17.265  0.00  0.00    +0.000 OA
ATOM     25  N   UNL     1      -2.376  11.625  19.183  0.00  0.00    +0.000 N 
ATOM     26  H   UNL     1      -2.414  12.017  20.116  0.00  0.00    +0.000 HD
ENDBRANCH  16  25
ENDBRANCH  14  19
ENDBRANCH   1  14
BRANCH  10  27
ATOM     27  N   UNL     1       2.317   7.751  20.380  0.00  0.00    +0.000 N 
ATOM     28  H   UNL     1       2.918   7.120  20.922  0.00  0.00    +0.000 HD
BRANCH  27  29
ATOM     29  C   UNL     1       1.334   8.293  21.262  0.00  0.00    +0.000 A 
ATOM     30  C   UNL     1       1.718   9.147  22.316  0.00  0.00    +0.000 A 
ATOM     31  C   UNL     1       0.770   9.858  23.076  0.00  0.00    +0.000 A 
ATOM     32  C   UNL     1      -0.594   9.744  22.806  0.00  0.00    +0.000 A 
ATOM     33  C   UNL     1      -0.985   8.828  21.817  0.00  0.00    +0.000 A 
ATOM     34  C   UNL     1      -0.033   8.104  21.066  0.00  0.00    +0.000 A 
BRANCH  32  35
ATOM     35  N   UNL     1      -1.601  10.524  23.427  0.00  0.00    +0.000 N 
ATOM     36  C   UNL     1      -2.106  11.733  22.978  0.00  0.00    +0.000 C 
ATOM     37  C   UNL     1      -3.264  12.266  23.797  0.00  0.00    +0.000 C 
ATOM     38  O   UNL     1      -1.696  12.400  22.023  0.00  0.00    +0.000 OA
ATOM     39  H   UNL     1      -2.037  10.123  24.246  0.00  0.00    +0.000 HD
ENDBRANCH  32  35
ENDBRANCH  27  29
ENDBRANCH  10  27
TORSDOF 7
ENDMDL
MODEL 6
REMARK VINA RESULT:      -7.6      3.470     11.578
REMARK  Name = 
REMARK  9 active torsions:
REMARK  status: ('A' for Active; 'I' for Inactive)
REMARK    1  A    between atoms: C_1  and  C_2
REMARK    2  A    between atoms: N_4  and  C_5
REMARK    3  A    between atoms: C_8  and  N_9
REMARK    4  A    between atoms: N_9  and  C_10
REMARK    5  A    between atoms: C_15  and  N_16
REMARK    6  A    between atoms: C_22  and  N_23
REMARK    7  A    between atoms: N_23  and  C_24
REMARK    8  A    between atoms: C_27  and  N_28
REMARK    9  A    between atoms: C_29  and  C_30
REMARK                            x       y       z     vdW  Elec       q    Type
REMARK                         _______ _______ _______ _____ _____    ______ ____
ROOT
ATOM      1  C   UNL     1       9.304  10.248  19.008  0.00  0.00    +0.000 A 
ATOM      2  N   UNL     1       8.668  11.017  18.114  0.00  0.00    +0.000 NA
ATOM      3  C   UNL     1       9.242  12.216  17.923  0.00  0.00    +0.000 A 
ATOM      4  C   UNL     1       8.551  13.405  18.089  0.00  0.00    +0.000 A 
ATOM      5  C   UNL     1       9.222  14.629  18.030  0.00  0.00    +0.000 A 
ATOM      6  C   UNL     1      10.512  14.629  17.506  0.00  0.00    +0.000 A 
ATOM      7  C   UNL     1      11.199  13.427  17.427  0.00  0.00    +0.000 A 
ATOM      8  C   UNL     1      10.603  12.361  18.078  0.00  0.00    +0.000 A 
ATOM      9  N   UNL     1      11.102  11.782  19.192  0.00  0.00    +0.000 NA
ATOM     10  C   UNL     1      10.259  10.910  19.807  0.00  0.00    +0.000 A 
ENDROOT
BRANCH   6  11
ATOM     11  N   UNL     1      11.125  15.874  17.059  0.00  0.00    +0.000 N 
ATOM     12  O   UNL     1      10.397  16.875  16.974  0.00  0.00    +0.000 OA
ATOM     13  O   UNL     1      12.333  15.856  16.792  0.00  0.00    +0.000 OA
ENDBRANCH   6  11
BRANCH   1  14
ATOM     14  N   UNL     1       8.879   8.946  19.394  0.00  0.00    +0.000 N 
ATOM     15  H   UNL     1       9.633   8.523  19.941  0.00  0.00    +0.000 HD
BRANCH  14  19
ATOM     16  C   UNL     1       7.077   5.995  16.941  0.00  0.00    +0.000 A 
ATOM     17  C   UNL     1       7.651   5.653  18.177  0.00  0.00    +0.000 A 
ATOM     18  C   UNL     1       8.237   6.645  18.982  0.00  0.00    +0.000 A 
ATOM     19  C   UNL     1       8.264   7.973  18.569  0.00  0.00    +0.000 A 
ATOM     20  C   UNL     1       7.610   8.312  17.382  0.00  0.00    +0.000 A 
ATOM     21  C   UNL     1       7.036   7.332  16.563  0.00  0.00    +0.000 A 
BRANCH  16  25
ATOM     22  C   UNL     1       6.015   3.830  14.025  0.00  0.00    +0.000 C 
ATOM     23  C   UNL     1       6.880   4.861  14.705  0.00  0.00    +0.000 C 
ATOM     24  O   UNL     1       7.770   5.437  14.087  0.00  0.00    +0.000 OA
ATOM     25  N   UNL     1       6.525   5.060  16.024  0.00  0.00    +0.000 N 
ATOM     26  H   UNL     1       5.758   4.501  16.378  0.00  0.00    +0.000 HD
ENDBRANCH  16  25
ENDBRANCH  14  19
ENDBRANCH   1  14
BRANCH  10  27
ATOM     27  N   UNL     1       9.731  11.132  21.163  0.00  0.00    +0.000 N 
ATOM     28  H   UNL     1       8.941  10.483  21.241  0.00  0.00    +0.000 HD
BRANCH  27  29
ATOM     29  C   UNL     1       9.351  12.369  21.765  0.00  0.00    +0.000 A 
ATOM     30  C   UNL     1       8.413  12.388  22.818  0.00  0.00    +0.000 A 
ATOM     31  C   UNL     1       8.164  13.553  23.568  0.00  0.00    +0.000 A 
ATOM     32  C   UNL     1       8.849  14.738  23.295  0.00  0.00    +0.000 A 
ATOM     33  C   UNL     1       9.718  14.747  22.193  0.00  0.00    +0.000 A 
ATOM     34  C   UNL     1       9.953  13.581  21.432  0.00  0.00    +0.000 A 
BRANCH  32  35
ATOM     35  N   UNL     1       8.762  15.912  24.084  0.00  0.00    +0.000 N 
ATOM     36  C   UNL     1       7.676  16.765  24.183  0.00  0.00    +0.000 C 
ATOM     37  C   UNL     1       7.844  17.872  25.204  0.00  0.00    +0.000 C 
ATOM     38  O   UNL     1       6.634  16.720  23.521  0.00  0.00    +0.000 OA
ATOM     39  H   UNL     1       9.552  16.108  24.684  0.00  0.00    +0.000 HD
ENDBRANCH  32  35
ENDBRANCH  27  29
ENDBRANCH  10  27
TORSDOF 7
ENDMDL
MODEL 7
REMARK VINA RESULT:      -7.6      4.482      5.946
REMARK  Name = 
REMARK  9 active torsions:
REMARK  status: ('A' for Active; 'I' for Inactive)
REMARK    1  A    between atoms: C_1  and  C_2
REMARK    2  A    between atoms: N_4  and  C_5
REMARK    3  A    between atoms: C_8  and  N_9
REMARK    4  A    between atoms: N_9  and  C_10
REMARK    5  A    between atoms: C_15  and  N_16
REMARK    6  A    between atoms: C_22  and  N_23
REMARK    7  A    between atoms: N_23  and  C_24
REMARK    8  A    between atoms: C_27  and  N_28
REMARK    9  A    between atoms: C_29  and  C_30
REMARK                            x       y       z     vdW  Elec       q    Type
REMARK                         _______ _______ _______ _____ _____    ______ ____
ROOT
ATOM      1  C   UNL     1       2.873   6.746  18.267  0.00  0.00    +0.000 A 
ATOM      2  N   UNL     1       2.246   5.597  17.979  0.00  0.00    +0.000 NA
ATOM      3  C   UNL     1       2.908   4.501  18.385  0.00  0.00    +0.000 A 
ATOM      4  C   UNL     1       3.256   3.480  17.518  0.00  0.00    +0.000 A 
ATOM      5  C   UNL     1       4.074   2.432  17.949  0.00  0.00    +0.000 A 
ATOM      6  C   UNL     1       4.265   2.290  19.321  0.00  0.00    +0.000 A 
ATOM      7  C   UNL     1       3.975   3.363  20.149  0.00  0.00    +0.000 A 
ATOM      8  C   UNL     1       3.716   4.558  19.500  0.00  0.00    +0.000 A 
ATOM      9  N   UNL     1       4.533   5.633  19.541  0.00  0.00    +0.000 NA
ATOM     10  C   UNL     1       4.221   6.620  18.660  0.00  0.00    +0.000 A 
ENDROOT
BRANCH   6  11
ATOM     11  N   UNL     1       4.770   1.036  19.868  0.00  0.00    +0.000 N 
ATOM     12  O   UNL     1       4.513  -0.007  19.246  0.00  0.00    +0.000 OA
ATOM     13  O   UNL     1       5.422   1.088  20.918  0.00  0.00    +0.000 OA
ENDBRANCH   6  11
BRANCH   1  14
ATOM     14  N   UNL     1       2.382   8.036  17.922  0.00  0.00    +0.000 N 
ATOM     15  H   UNL     1       3.140   8.542  17.455  0.00  0.00    +0.000 HD
BRANCH  14  19
ATOM     16  C   UNL     1       0.152  10.621  20.434  0.00  0.00    +0.000 A 
ATOM     17  C   UNL     1       0.708   9.433  20.935  0.00  0.00    +0.000 A 
ATOM     18  C   UNL     1       1.452   8.591  20.091  0.00  0.00    +0.000 A 
ATOM     19  C   UNL     1       1.644   8.915  18.752  0.00  0.00    +0.000 A 
ATOM     20  C   UNL     1       1.163  10.143  18.291  0.00  0.00    +0.000 A 
ATOM     21  C   UNL     1       0.408  10.983  19.117  0.00  0.00    +0.000 A 
BRANCH  16  25
ATOM     22  C   UNL     1      -1.897  12.539  22.973  0.00  0.00    +0.000 C 
ATOM     23  C   UNL     1      -0.896  11.495  22.548  0.00  0.00    +0.000 C 
ATOM     24  O   UNL     1      -0.389  10.741  23.372  0.00  0.00    +0.000 OA
ATOM     25  N   UNL     1      -0.673  11.502  21.185  0.00  0.00    +0.000 N 
ATOM     26  H   UNL     1      -1.181  12.193  20.645  0.00  0.00    +0.000 HD
ENDBRANCH  16  25
ENDBRANCH  14  19
ENDBRANCH   1  14
BRANCH  10  27
ATOM     27  N   UNL     1       5.117   7.021  17.562  0.00  0.00    +0.000 N 
ATOM     28  H   UNL     1       4.698   7.881  17.189  0.00  0.00    +0.000 HD
BRANCH  27  29
ATOM     29  C   UNL     1       5.563   6.232  16.460  0.00  0.00    +0.000 A 
ATOM     30  C   UNL     1       6.550   5.242  16.650  0.00  0.00    +0.000 A 
ATOM     31  C   UNL     1       6.869   4.312  15.641  0.00  0.00    +0.000 A 
ATOM     32  C   UNL     1       6.211   4.337  14.412  0.00  0.00    +0.000 A 
ATOM     33  C   UNL     1       5.292   5.374  14.188  0.00  0.00    +0.000 A 
ATOM     34  C   UNL     1       4.985   6.315  15.195  0.00  0.00    +0.000 A 
BRANCH  32  35
ATOM     35  N   UNL     1       6.371   3.359  13.398  0.00  0.00    +0.000 N 
ATOM     36  C   UNL     1       6.984   3.534  12.169  0.00  0.00    +0.000 C 
ATOM     37  C   UNL     1       7.107   2.266  11.349  0.00  0.00    +0.000 C 
ATOM     38  O   UNL     1       7.400   4.594  11.690  0.00  0.00    +0.000 OA
ATOM     39  H   UNL     1       6.063   2.424  13.626  0.00  0.00    +0.000 HD
ENDBRANCH  32  35
ENDBRANCH  27  29
ENDBRANCH  10  27
TORSDOF 7
ENDMDL
MODEL 8
REMARK VINA RESULT:      -7.6      4.467      5.822
REMARK  Name = 
REMARK  9 active torsions:
REMARK  status: ('A' for Active; 'I' for Inactive)
REMARK    1  A    between atoms: C_1  and  C_2
REMARK    2  A    between atoms: N_4  and  C_5
REMARK    3  A    between atoms: C_8  and  N_9
REMARK    4  A    between atoms: N_9  and  C_10
REMARK    5  A    between atoms: C_15  and  N_16
REMARK    6  A    between atoms: C_22  and  N_23
REMARK    7  A    between atoms: N_23  and  C_24
REMARK    8  A    between atoms: C_27  and  N_28
REMARK    9  A    between atoms: C_29  and  C_30
REMARK                            x       y       z     vdW  Elec       q    Type
REMARK                         _______ _______ _______ _____ _____    ______ ____
ROOT
ATOM      1  C   UNL     1       2.639   6.898  18.300  0.00  0.00    +0.000 A 
ATOM      2  N   UNL     1       1.976   5.761  18.049  0.00  0.00    +0.000 NA
ATOM      3  C   UNL     1       2.656   4.651  18.383  0.00  0.00    +0.000 A 
ATOM      4  C   UNL     1       2.917   3.639  17.474  0.00  0.00    +0.000 A 
ATOM      5  C   UNL     1       3.755   2.576  17.821  0.00  0.00    +0.000 A 
ATOM      6  C   UNL     1       4.058   2.410  19.170  0.00  0.00    +0.000 A 
ATOM      7  C   UNL     1       3.853   3.474  20.034  0.00  0.00    +0.000 A 
ATOM      8  C   UNL     1       3.555   4.682  19.426  0.00  0.00    +0.000 A 
ATOM      9  N   UNL     1       4.387   5.746  19.414  0.00  0.00    +0.000 NA
ATOM     10  C   UNL     1       4.014   6.750  18.575  0.00  0.00    +0.000 A 
ENDROOT
BRANCH   6  11
ATOM     11  N   UNL     1       4.591   1.142  19.654  0.00  0.00    +0.000 N 
ATOM     12  O   UNL     1       5.306   1.169  20.667  0.00  0.00    +0.000 OA
ATOM     13  O   UNL     1       4.299   0.118  19.025  0.00  0.00    +0.000 OA
ENDBRANCH   6  11
BRANCH   1  14
ATOM     14  N   UNL     1       2.138   8.199  18.016  0.00  0.00    +0.000 N 
ATOM     15  H   UNL     1       2.904   8.746  17.615  0.00  0.00    +0.000 HD
BRANCH  14  19
ATOM     16  C   UNL     1      -0.223  10.669  20.524  0.00  0.00    +0.000 A 
ATOM     17  C   UNL     1      -0.253  10.821  19.128  0.00  0.00    +0.000 A 
ATOM     18  C   UNL     1       0.529   9.989  18.310  0.00  0.00    +0.000 A 
ATOM     19  C   UNL     1       1.347   9.009  18.866  0.00  0.00    +0.000 A 
ATOM     20  C   UNL     1       1.297   8.809  20.247  0.00  0.00    +0.000 A 
ATOM     21  C   UNL     1       0.534   9.642  21.074  0.00  0.00    +0.000 A 
BRANCH  16  25
ATOM     22  C   UNL     1      -1.464  13.232  23.017  0.00  0.00    +0.000 C 
ATOM     23  C   UNL     1      -0.466  12.660  22.042  0.00  0.00    +0.000 C 
ATOM     24  O   UNL     1       0.621  13.203  21.868  0.00  0.00    +0.000 OA
ATOM     25  N   UNL     1      -0.920  11.504  21.440  0.00  0.00    +0.000 N 
ATOM     26  H   UNL     1      -1.846  11.188  21.702  0.00  0.00    +0.000 HD
ENDBRANCH  16  25
ENDBRANCH  14  19
ENDBRANCH   1  14
BRANCH  10  27
ATOM     27  N   UNL     1       4.819   7.158  17.412  0.00  0.00    +0.000 N 
ATOM     28  H   UNL     1       4.252   7.875  16.946  0.00  0.00    +0.000 HD
BRANCH  27  29
ATOM     29  C   UNL     1       5.395   6.324  16.407  0.00  0.00    +0.000 A 
ATOM     30  C   UNL     1       6.209   5.232  16.772  0.00  0.00    +0.000 A 
ATOM     31  C   UNL     1       6.627   4.273  15.829  0.00  0.00    +0.000 A 
ATOM     32  C   UNL     1       6.242   4.370  14.492  0.00  0.00    +0.000 A 
ATOM     33  C   UNL     1       5.506   5.502  14.109  0.00  0.00    +0.000 A 
ATOM     34  C   UNL     1       5.101   6.471  15.053  0.00  0.00    +0.000 A 
BRANCH  32  35
ATOM     35  N   UNL     1       6.500   3.380  13.511  0.00  0.00    +0.000 N 
ATOM     36  C   UNL     1       5.729   3.098  12.396  0.00  0.00    +0.000 C 
ATOM     37  C   UNL     1       6.331   2.063  11.467  0.00  0.00    +0.000 C 
ATOM     38  O   UNL     1       4.625   3.577  12.117  0.00  0.00    +0.000 OA
ATOM     39  H   UNL     1       7.371   2.875  13.603  0.00  0.00    +0.000 HD
ENDBRANCH  32  35
ENDBRANCH  27  29
ENDBRANCH  10  27
TORSDOF 7
ENDMDL
MODEL 9
REMARK VINA RESULT:      -7.6      4.755      7.591
REMARK  Name = 
REMARK  9 active torsions:
REMARK  status: ('A' for Active; 'I' for Inactive)
REMARK    1  A    between atoms: C_1  and  C_2
REMARK    2  A    between atoms: N_4  and  C_5
REMARK    3  A    between atoms: C_8  and  N_9
REMARK    4  A    between atoms: N_9  and  C_10
REMARK    5  A    between atoms: C_15  and  N_16
REMARK    6  A    between atoms: C_22  and  N_23
REMARK    7  A    between atoms: N_23  and  C_24
REMARK    8  A    between atoms: C_27  and  N_28
REMARK    9  A    between atoms: C_29  and  C_30
REMARK                            x       y       z     vdW  Elec       q    Type
REMARK                         _______ _______ _______ _____ _____    ______ ____
ROOT
ATOM      1  C   UNL     1       3.066   6.362  19.358  0.00  0.00    +0.000 A 
ATOM      2  N   UNL     1       4.404   6.364  19.414  0.00  0.00    +0.000 NA
ATOM      3  C   UNL     1       4.995   5.908  18.297  0.00  0.00    +0.000 A 
ATOM      4  C   UNL     1       5.896   4.856  18.310  0.00  0.00    +0.000 A 
ATOM      5  C   UNL     1       6.370   4.315  17.112  0.00  0.00    +0.000 A 
ATOM      6  C   UNL     1       6.156   5.047  15.947  0.00  0.00    +0.000 A 
ATOM      7  C   UNL     1       5.190   6.042  15.954  0.00  0.00    +0.000 A 
ATOM      8  C   UNL     1       4.379   6.072  17.076  0.00  0.00    +0.000 A 
ATOM      9  N   UNL     1       3.066   5.754  17.066  0.00  0.00    +0.000 NA
ATOM     10  C   UNL     1       2.503   5.622  18.297  0.00  0.00    +0.000 A 
ENDROOT
BRANCH   6  11
ATOM     11  N   UNL     1       6.928   4.760  14.744  0.00  0.00    +0.000 N 
ATOM     12  O   UNL     1       7.909   5.481  14.506  0.00  0.00    +0.000 OA
ATOM     13  O   UNL     1       6.558   3.816  14.035  0.00  0.00    +0.000 OA
ENDBRANCH   6  11
BRANCH   1  14
ATOM     14  N   UNL     1       2.217   6.780  20.421  0.00  0.00    +0.000 N 
ATOM     15  H   UNL     1       1.558   6.020  20.609  0.00  0.00    +0.000 HD
BRANCH  14  19
ATOM     16  C   UNL     1       0.253  10.511  20.852  0.00  0.00    +0.000 A 
ATOM     17  C   UNL     1       0.435   9.661  21.955  0.00  0.00    +0.000 A 
ATOM     18  C   UNL     1       1.095   8.431  21.797  0.00  0.00    +0.000 A 
ATOM     19  C   UNL     1       1.572   8.034  20.552  0.00  0.00    +0.000 A 
ATOM     20  C   UNL     1       1.465   8.929  19.485  0.00  0.00    +0.000 A 
ATOM     21  C   UNL     1       0.795  10.150  19.625  0.00  0.00    +0.000 A 
BRANCH  16  25
ATOM     22  C   UNL     1      -1.061  14.038  21.249  0.00  0.00    +0.000 C 
ATOM     23  C   UNL     1       0.016  12.983  21.256  0.00  0.00    +0.000 C 
ATOM     24  O   UNL     1       1.165  13.263  21.581  0.00  0.00    +0.000 OA
ATOM     25  N   UNL     1      -0.462  11.739  20.892  0.00  0.00    +0.000 N 
ATOM     26  H   UNL     1      -1.445  11.682  20.656  0.00  0.00    +0.000 HD
ENDBRANCH  16  25
ENDBRANCH  14  19
ENDBRANCH   1  14
BRANCH  10  27
ATOM     27  N   UNL     1       1.957   4.347  18.792  0.00  0.00    +0.000 N 
ATOM     28  H   UNL     1       1.333   4.616  19.561  0.00  0.00    +0.000 HD
BRANCH  27  29
ATOM     29  C   UNL     1       2.675   3.180  19.191  0.00  0.00    +0.000 A 
ATOM     30  C   UNL     1       2.999   2.187  18.243  0.00  0.00    +0.000 A 
ATOM     31  C   UNL     1       3.874   1.128  18.551  0.00  0.00    +0.000 A 
ATOM     32  C   UNL     1       4.459   1.027  19.813  0.00  0.00    +0.000 A 
ATOM     33  C   UNL     1       4.071   1.962  20.785  0.00  0.00    +0.000 A 
ATOM     34  C   UNL     1       3.181   3.015  20.479  0.00  0.00    +0.000 A 
BRANCH  32  35
ATOM     35  N   UNL     1       5.452   0.077  20.161  0.00  0.00    +0.000 N 
ATOM     36  C   UNL     1       6.074  -0.057  21.391  0.00  0.00    +0.000 C 
ATOM     37  C   UNL     1       7.007  -1.246  21.491  0.00  0.00    +0.000 C 
ATOM     38  O   UNL     1       5.959   0.692  22.367  0.00  0.00    +0.000 OA
ATOM     39  H   UNL     1       5.680  -0.611  19.458  0.00  0.00    +0.000 HD
ENDBRANCH  32  35
ENDBRANCH  27  29
ENDBRANCH  10  27
TORSDOF 7
ENDMDL
