MODEL 1
REMARK VINA RESULT:      -9.2      0.000      0.000
REMARK  Name = 
REMARK  5 active torsions:
REMARK  status: ('A' for Active; 'I' for Inactive)
REMARK    1  A    between atoms: C_2  and  C_13
REMARK    2  A    between atoms: N_3  and  C_4
REMARK    3  A    between atoms: C_4  and  C_5
REMARK    4  A    between atoms: C_5  and  C_6
REMARK    5  A    between atoms: C_15  and  C_16
REMARK                            x       y       z     vdW  Elec       q    Type
REMARK                         _______ _______ _______ _____ _____    ______ ____
ROOT
ATOM      1  C   UNL     1       2.603   6.712  19.464  0.00  0.00    +0.000 A 
ATOM      2  N   UNL     1       3.568   6.777  18.473  0.00  0.00    +0.000 NA
ATOM      3  C   UNL     1       3.995   5.537  18.266  0.00  0.00    +0.000 A 
ATOM      4  N   UNL     1       3.349   4.669  19.144  0.00  0.00    +0.000 N 
ATOM      5  C   UNL     1       2.425   5.398  19.865  0.00  0.00    +0.000 A 
ATOM      6  C   UNL     1       1.460   4.840  20.865  0.00  0.00    +0.000 C 
ATOM      7  C   UNL     1       0.848   3.519  20.420  0.00  0.00    +0.000 C 
ATOM      8  C   UNL     1       1.735   2.318  20.727  0.00  0.00    +0.000 C 
ATOM      9  C   UNL     1       3.233   2.570  20.579  0.00  0.00    +0.000 C 
ATOM     10  C   UNL     1       3.604   3.240  19.263  0.00  0.00    +0.000 C 
ENDROOT
BRANCH   3  11
ATOM     11  C   UNL     1       5.029   5.181  17.270  0.00  0.00    +0.000 A 
ATOM     12  C   UNL     1       6.380   5.167  17.660  0.00  0.00    +0.000 A 
ATOM     13  C   UNL     1       7.396   4.841  16.753  0.00  0.00    +0.000 A 
ATOM     14  C   UNL     1       7.073   4.514  15.438  0.00  0.00    +0.000 A 
ATOM     15  C   UNL     1       5.749   4.538  15.042  0.00  0.00    +0.000 A 
ATOM     16  F   UNL     1       5.428   4.223  13.781  0.00  0.00    +0.000 F 
ATOM     17  C   UNL     1       4.737   4.885  15.933  0.00  0.00    +0.000 A 
ENDBRANCH   3  11
BRANCH   1  19
ATOM     18  O   UNL     1       1.565   8.002  21.170  0.00  0.00    +0.000 OA
ATOM     19  C   UNL     1       1.881   7.880  19.988  0.00  0.00    +0.000 C 
ATOM     20  N   UNL     1       1.569   8.841  19.051  0.00  0.00    +0.000 N 
ATOM     21  H   UNL     1       1.817   8.644  18.087  0.00  0.00    +0.000 HD
BRANCH  20  22
ATOM     22  C   UNL     1       0.793   9.991  19.460  0.00  0.00    +0.000 C 
BRANCH  22  23
ATOM     23  C   UNL     1       0.357  10.890  18.309  0.00  0.00    +0.000 C 
BRANCH  23  24
ATOM     24  C   UNL     1      -1.150  10.916  18.184  0.00  0.00    +0.000 A 
ATOM     25  C   UNL     1      -1.906  11.850  18.907  0.00  0.00    +0.000 A 
ATOM     26  C   UNL     1      -3.302  11.849  18.823  0.00  0.00    +0.000 A 
ATOM     27  C   UNL     1      -3.947  10.908  18.024  0.00  0.00    +0.000 A 
ATOM     28 CL   UNL     1      -5.665  10.905  17.927  0.00  0.00    +0.000 Cl
ATOM     29  C   UNL     1      -3.211   9.968  17.309  0.00  0.00    +0.000 A 
ATOM     30  C   UNL     1      -1.815   9.971  17.389  0.00  0.00    +0.000 A 
ENDBRANCH  23  24
ENDBRANCH  22  23
ENDBRANCH  20  22
ENDBRANCH   1  19
TORSDOF 5
ENDMDL
MODEL 2
REMARK VINA RESULT:      -9.2      0.942      1.267
REMARK  Name = 
REMARK  5 active torsions:
REMARK  status: ('A' for Active; 'I' for Inactive)
REMARK    1  A    between atoms: C_2  and  C_13
REMARK    2  A    between atoms: N_3  and  C_4
REMARK    3  A    between atoms: C_4  and  C_5
REMARK    4  A    between atoms: C_5  and  C_6
REMARK    5  A    between atoms: C_15  and  C_16
REMARK                            x       y       z     vdW  Elec       q    Type
REMARK                         _______ _______ _______ _____ _____    ______ ____
ROOT
ATOM      1  C   UNL     1       2.480   6.779  19.590  0.00  0.00    +0.000 A 
ATOM      2  N   UNL     1       3.517   6.889  18.679  0.00  0.00    +0.000 NA
ATOM      3  C   UNL     1       3.971   5.662  18.459  0.00  0.00    +0.000 A 
ATOM      4  N   UNL     1       3.271   4.755  19.253  0.00  0.00    +0.000 N 
ATOM      5  C   UNL     1       2.287   5.450  19.928  0.00  0.00    +0.000 A 
ATOM      6  C   UNL     1       1.256   4.846  20.832  0.00  0.00    +0.000 C 
ATOM      7  C   UNL     1       0.695   3.538  20.294  0.00  0.00    +0.000 C 
ATOM      8  C   UNL     1       1.569   2.334  20.624  0.00  0.00    +0.000 C 
ATOM      9  C   UNL     1       3.071   2.604  20.598  0.00  0.00    +0.000 C 
ATOM     10  C   UNL     1       3.533   3.326  19.339  0.00  0.00    +0.000 C 
ENDROOT
BRANCH   3  11
ATOM     11  C   UNL     1       5.082   5.352  17.532  0.00  0.00    +0.000 A 
ATOM     12  C   UNL     1       4.900   5.552  16.152  0.00  0.00    +0.000 A 
ATOM     13  C   UNL     1       5.921   5.268  15.236  0.00  0.00    +0.000 A 
ATOM     14  C   UNL     1       7.147   4.786  15.689  0.00  0.00    +0.000 A 
ATOM     15  C   UNL     1       7.330   4.575  17.042  0.00  0.00    +0.000 A 
ATOM     16  F   UNL     1       8.505   4.114  17.488  0.00  0.00    +0.000 F 
ATOM     17  C   UNL     1       6.312   4.831  17.956  0.00  0.00    +0.000 A 
ENDBRANCH   3  11
BRANCH   1  19
ATOM     18  O   UNL     1       1.317   8.004  21.263  0.00  0.00    +0.000 OA
ATOM     19  C   UNL     1       1.708   7.920  20.100  0.00  0.00    +0.000 C 
ATOM     20  N   UNL     1       1.438   8.903  19.172  0.00  0.00    +0.000 N 
ATOM     21  H   UNL     1       1.749   8.738  18.220  0.00  0.00    +0.000 HD
BRANCH  20  22
ATOM     22  C   UNL     1       0.618  10.029  19.563  0.00  0.00    +0.000 C 
BRANCH  22  23
ATOM     23  C   UNL     1       0.212  10.936  18.408  0.00  0.00    +0.000 C 
BRANCH  23  24
ATOM     24  C   UNL     1      -1.290  10.963  18.244  0.00  0.00    +0.000 A 
ATOM     25  C   UNL     1      -2.067  11.878  18.970  0.00  0.00    +0.000 A 
ATOM     26  C   UNL     1      -3.460  11.878  18.850  0.00  0.00    +0.000 A 
ATOM     27  C   UNL     1      -4.082  10.956  18.011  0.00  0.00    +0.000 A 
ATOM     28 CL   UNL     1      -5.797  10.954  17.869  0.00  0.00    +0.000 Cl
ATOM     29  C   UNL     1      -3.326  10.035  17.292  0.00  0.00    +0.000 A 
ATOM     30  C   UNL     1      -1.932  10.038  17.408  0.00  0.00    +0.000 A 
ENDBRANCH  23  24
ENDBRANCH  22  23
ENDBRANCH  20  22
ENDBRANCH   1  19
TORSDOF 5
ENDMDL
MODEL 3
REMARK VINA RESULT:      -9.0      2.025      2.538
REMARK  Name = 
REMARK  5 active torsions:
REMARK  status: ('A' for Active; 'I' for Inactive)
REMARK    1  A    between atoms: C_2  and  C_13
REMARK    2  A    between atoms: N_3  and  C_4
REMARK    3  A    between atoms: C_4  and  C_5
REMARK    4  A    between atoms: C_5  and  C_6
REMARK    5  A    between atoms: C_15  and  C_16
REMARK                            x       y       z     vdW  Elec       q    Type
REMARK                         _______ _______ _______ _____ _____    ______ ____
ROOT
ATOM      1  C   UNL     1       2.681   6.769  19.321  0.00  0.00    +0.000 A 
ATOM      2  N   UNL     1       3.651   6.774  18.333  0.00  0.00    +0.000 NA
ATOM      3  C   UNL     1       4.021   5.513  18.145  0.00  0.00    +0.000 A 
ATOM      4  N   UNL     1       3.334   4.688  19.034  0.00  0.00    +0.000 N 
ATOM      5  C   UNL     1       2.443   5.471  19.741  0.00  0.00    +0.000 A 
ATOM      6  C   UNL     1       1.451   4.972  20.747  0.00  0.00    +0.000 C 
ATOM      7  C   UNL     1       0.780   3.675  20.320  0.00  0.00    +0.000 C 
ATOM      8  C   UNL     1       1.609   2.439  20.649  0.00  0.00    +0.000 C 
ATOM      9  C   UNL     1       3.117   2.619  20.501  0.00  0.00    +0.000 C 
ATOM     10  C   UNL     1       3.522   3.251  19.176  0.00  0.00    +0.000 C 
ENDROOT
BRANCH   3  11
ATOM     11  C   UNL     1       5.040   5.094  17.158  0.00  0.00    +0.000 A 
ATOM     12  C   UNL     1       6.386   5.006  17.558  0.00  0.00    +0.000 A 
ATOM     13  C   UNL     1       7.387   4.619  16.659  0.00  0.00    +0.000 A 
ATOM     14  C   UNL     1       7.055   4.305  15.343  0.00  0.00    +0.000 A 
ATOM     15  C   UNL     1       5.738   4.401  14.938  0.00  0.00    +0.000 A 
ATOM     16  F   UNL     1       5.408   4.098  13.676  0.00  0.00    +0.000 F 
ATOM     17  C   UNL     1       4.741   4.808  15.820  0.00  0.00    +0.000 A 
ENDBRANCH   3  11
BRANCH   1  19
ATOM     18  O   UNL     1       1.497   8.817  19.090  0.00  0.00    +0.000 OA
ATOM     19  C   UNL     1       2.013   7.976  19.825  0.00  0.00    +0.000 C 
ATOM     20  N   UNL     1       2.010   8.111  21.196  0.00  0.00    +0.000 N 
ATOM     21  H   UNL     1       2.500   7.403  21.732  0.00  0.00    +0.000 HD
BRANCH  20  22
ATOM     22  C   UNL     1       1.441   9.307  21.780  0.00  0.00    +0.000 C 
BRANCH  22  23
ATOM     23  C   UNL     1       0.016   9.134  22.291  0.00  0.00    +0.000 C 
BRANCH  23  24
ATOM     24  C   UNL     1      -0.791  10.395  22.081  0.00  0.00    +0.000 A 
ATOM     25  C   UNL     1      -0.826  11.013  20.822  0.00  0.00    +0.000 A 
ATOM     26  C   UNL     1      -1.539  12.202  20.637  0.00  0.00    +0.000 A 
ATOM     27  C   UNL     1      -2.211  12.782  21.711  0.00  0.00    +0.000 A 
ATOM     28 CL   UNL     1      -3.082  14.248  21.482  0.00  0.00    +0.000 Cl
ATOM     29  C   UNL     1      -2.176  12.186  22.968  0.00  0.00    +0.000 A 
ATOM     30  C   UNL     1      -1.466  10.995  23.154  0.00  0.00    +0.000 A 
ENDBRANCH  23  24
ENDBRANCH  22  23
ENDBRANCH  20  22
ENDBRANCH   1  19
TORSDOF 5
ENDMDL
MODEL 4
REMARK VINA RESULT:      -8.9      0.983      1.227
REMARK  Name = 
REMARK  5 active torsions:
REMARK  status: ('A' for Active; 'I' for Inactive)
REMARK    1  A    between atoms: C_2  and  C_13
REMARK    2  A    between atoms: N_3  and  C_4
REMARK    3  A    between atoms: C_4  and  C_5
REMARK    4  A    between atoms: C_5  and  C_6
REMARK    5  A    between atoms: C_15  and  C_16
REMARK                            x       y       z     vdW  Elec       q    Type
REMARK                         _______ _______ _______ _____ _____    ______ ____
ROOT
ATOM      1  C   UNL     1       2.594   6.814  19.166  0.00  0.00    +0.000 A 
ATOM      2  N   UNL     1       3.580   6.801  18.192  0.00  0.00    +0.000 NA
ATOM      3  C   UNL     1       4.007   5.548  18.089  0.00  0.00    +0.000 A 
ATOM      4  N   UNL     1       3.342   4.751  19.019  0.00  0.00    +0.000 N 
ATOM      5  C   UNL     1       2.406   5.535  19.663  0.00  0.00    +0.000 A 
ATOM      6  C   UNL     1       1.420   5.056  20.684  0.00  0.00    +0.000 C 
ATOM      7  C   UNL     1       0.814   3.706  20.330  0.00  0.00    +0.000 C 
ATOM      8  C   UNL     1       1.691   2.531  20.747  0.00  0.00    +0.000 C 
ATOM      9  C   UNL     1       3.192   2.769  20.609  0.00  0.00    +0.000 C 
ATOM     10  C   UNL     1       3.591   3.335  19.253  0.00  0.00    +0.000 C 
ENDROOT
BRANCH   3  11
ATOM     11  C   UNL     1       5.060   5.116  17.145  0.00  0.00    +0.000 A 
ATOM     12  C   UNL     1       6.397   5.075  17.581  0.00  0.00    +0.000 A 
ATOM     13  C   UNL     1       7.430   4.677  16.722  0.00  0.00    +0.000 A 
ATOM     14  C   UNL     1       7.138   4.303  15.412  0.00  0.00    +0.000 A 
ATOM     15  C   UNL     1       5.829   4.352  14.972  0.00  0.00    +0.000 A 
ATOM     16  F   UNL     1       5.538   3.993  13.716  0.00  0.00    +0.000 F 
ATOM     17  C   UNL     1       4.801   4.770  15.813  0.00  0.00    +0.000 A 
ENDBRANCH   3  11
BRANCH   1  19
ATOM     18  O   UNL     1       1.597   8.272  20.757  0.00  0.00    +0.000 OA
ATOM     19  C   UNL     1       1.865   8.019  19.583  0.00  0.00    +0.000 C 
ATOM     20  N   UNL     1       1.487   8.857  18.556  0.00  0.00    +0.000 N 
ATOM     21  H   UNL     1       1.699   8.554  17.611  0.00  0.00    +0.000 HD
BRANCH  20  22
ATOM     22  C   UNL     1       0.699  10.030  18.864  0.00  0.00    +0.000 C 
BRANCH  22  23
ATOM     23  C   UNL     1      -0.562  10.173  18.020  0.00  0.00    +0.000 C 
BRANCH  23  24
ATOM     24  C   UNL     1      -1.581  11.046  18.716  0.00  0.00    +0.000 A 
ATOM     25  C   UNL     1      -1.246  11.725  19.897  0.00  0.00    +0.000 A 
ATOM     26  C   UNL     1      -2.199  12.501  20.563  0.00  0.00    +0.000 A 
ATOM     27  C   UNL     1      -3.494  12.594  20.056  0.00  0.00    +0.000 A 
ATOM     28 CL   UNL     1      -4.667  13.546  20.880  0.00  0.00    +0.000 Cl
ATOM     29  C   UNL     1      -3.844  11.919  18.891  0.00  0.00    +0.000 A 
ATOM     30  C   UNL     1      -2.890  11.145  18.222  0.00  0.00    +0.000 A 
ENDBRANCH  23  24
ENDBRANCH  22  23
ENDBRANCH  20  22
ENDBRANCH   1  19
TORSDOF 5
ENDMDL
MODEL 5
REMARK VINA RESULT:      -8.9      5.844      7.895
REMARK  Name = 
REMARK  5 active torsions:
REMARK  status: ('A' for Active; 'I' for Inactive)
REMARK    1  A    between atoms: C_2  and  C_13
REMARK    2  A    between atoms: N_3  and  C_4
REMARK    3  A    between atoms: C_4  and  C_5
REMARK    4  A    between atoms: C_5  and  C_6
REMARK    5  A    between atoms: C_15  and  C_16
REMARK                            x       y       z     vdW  Elec       q    Type
REMARK                         _______ _______ _______ _____ _____    ______ ____
ROOT
ATOM      1  C   UNL     1       7.154   6.262  17.305  0.00  0.00    +0.000 A 
ATOM      2  N   UNL     1       7.544   5.994  16.003  0.00  0.00    +0.000 NA
ATOM      3  C   UNL     1       6.620   5.201  15.476  0.00  0.00    +0.000 A 
ATOM      4  N   UNL     1       5.652   4.911  16.436  0.00  0.00    +0.000 N 
ATOM      5  C   UNL     1       5.954   5.626  17.578  0.00  0.00    +0.000 A 
ATOM      6  C   UNL     1       5.129   5.666  18.827  0.00  0.00    +0.000 C 
ATOM      7  C   UNL     1       3.635   5.743  18.544  0.00  0.00    +0.000 C 
ATOM      8  C   UNL     1       3.009   4.380  18.273  0.00  0.00    +0.000 C 
ATOM      9  C   UNL     1       3.896   3.407  17.502  0.00  0.00    +0.000 C 
ATOM     10  C   UNL     1       4.517   4.017  16.252  0.00  0.00    +0.000 C 
ENDROOT
BRANCH   3  11
ATOM     11  C   UNL     1       6.669   4.692  14.088  0.00  0.00    +0.000 A 
ATOM     12  C   UNL     1       7.620   5.221  13.197  0.00  0.00    +0.000 A 
ATOM     13  C   UNL     1       7.702   4.775  11.872  0.00  0.00    +0.000 A 
ATOM     14  C   UNL     1       6.835   3.783  11.419  0.00  0.00    +0.000 A 
ATOM     15  C   UNL     1       5.889   3.267  12.283  0.00  0.00    +0.000 A 
ATOM     16  F   UNL     1       5.053   2.312  11.858  0.00  0.00    +0.000 F 
ATOM     17  C   UNL     1       5.786   3.723  13.594  0.00  0.00    +0.000 A 
ENDBRANCH   3  11
BRANCH   1  19
ATOM     18  O   UNL     1       8.408   6.685  19.279  0.00  0.00    +0.000 OA
ATOM     19  C   UNL     1       7.915   7.107  18.235  0.00  0.00    +0.000 C 
ATOM     20  N   UNL     1       8.033   8.428  17.858  0.00  0.00    +0.000 N 
ATOM     21  H   UNL     1       7.554   8.711  17.009  0.00  0.00    +0.000 HD
BRANCH  20  22
ATOM     22  C   UNL     1       8.700   9.352  18.749  0.00  0.00    +0.000 C 
BRANCH  22  23
ATOM     23  C   UNL     1       9.307  10.563  18.050  0.00  0.00    +0.000 C 
BRANCH  23  24
ATOM     24  C   UNL     1       9.528  11.696  19.027  0.00  0.00    +0.000 A 
ATOM     25  C   UNL     1       9.480  13.028  18.590  0.00  0.00    +0.000 A 
ATOM     26  C   UNL     1       9.723  14.075  19.484  0.00  0.00    +0.000 A 
ATOM     27  C   UNL     1      10.024  13.794  20.815  0.00  0.00    +0.000 A 
ATOM     28 CL   UNL     1      10.328  15.085  21.912  0.00  0.00    +0.000 Cl
ATOM     29  C   UNL     1      10.085  12.477  21.261  0.00  0.00    +0.000 A 
ATOM     30  C   UNL     1       9.838  11.429  20.368  0.00  0.00    +0.000 A 
ENDBRANCH  23  24
ENDBRANCH  22  23
ENDBRANCH  20  22
ENDBRANCH   1  19
TORSDOF 5
ENDMDL
MODEL 6
REMARK VINA RESULT:      -8.8      1.500      1.879
REMARK  Name = 
REMARK  5 active torsions:
REMARK  status: ('A' for Active; 'I' for Inactive)
REMARK    1  A    between atoms: C_2  and  C_13
REMARK    2  A    between atoms: N_3  and  C_4
REMARK    3  A    between atoms: C_4  and  C_5
REMARK    4  A    between atoms: C_5  and  C_6
REMARK    5  A    between atoms: C_15  and  C_16
REMARK                            x       y       z     vdW  Elec       q    Type
REMARK                         _______ _______ _______ _____ _____    ______ ____
ROOT
ATOM      1  C   UNL     1       2.655   6.897  19.053  0.00  0.00    +0.000 A 
ATOM      2  N   UNL     1       3.622   6.847  18.063  0.00  0.00    +0.000 NA
ATOM      3  C   UNL     1       4.008   5.581  17.960  0.00  0.00    +0.000 A 
ATOM      4  N   UNL     1       3.335   4.810  18.907  0.00  0.00    +0.000 N 
ATOM      5  C   UNL     1       2.436   5.627  19.562  0.00  0.00    +0.000 A 
ATOM      6  C   UNL     1       1.454   5.185  20.604  0.00  0.00    +0.000 C 
ATOM      7  C   UNL     1       0.800   3.853  20.269  0.00  0.00    +0.000 C 
ATOM      8  C   UNL     1       1.647   2.654  20.678  0.00  0.00    +0.000 C 
ATOM      9  C   UNL     1       3.152   2.843  20.512  0.00  0.00    +0.000 C 
ATOM     10  C   UNL     1       3.544   3.389  19.145  0.00  0.00    +0.000 C 
ENDROOT
BRANCH   3  11
ATOM     11  C   UNL     1       5.030   5.110  17.000  0.00  0.00    +0.000 A 
ATOM     12  C   UNL     1       6.371   5.021  17.415  0.00  0.00    +0.000 A 
ATOM     13  C   UNL     1       7.375   4.584  16.541  0.00  0.00    +0.000 A 
ATOM     14  C   UNL     1       7.049   4.222  15.236  0.00  0.00    +0.000 A 
ATOM     15  C   UNL     1       5.736   4.318  14.816  0.00  0.00    +0.000 A 
ATOM     16  F   UNL     1       5.413   3.970  13.565  0.00  0.00    +0.000 F 
ATOM     17  C   UNL     1       4.738   4.774  15.672  0.00  0.00    +0.000 A 
ENDBRANCH   3  11
BRANCH   1  19
ATOM     18  O   UNL     1       1.562   8.310  20.621  0.00  0.00    +0.000 OA
ATOM     19  C   UNL     1       1.972   8.126  19.476  0.00  0.00    +0.000 C 
ATOM     20  N   UNL     1       1.810   9.073  18.487  0.00  0.00    +0.000 N 
ATOM     21  H   UNL     1       2.129   8.827  17.556  0.00  0.00    +0.000 HD
BRANCH  20  22
ATOM     22  C   UNL     1       1.081  10.285  18.791  0.00  0.00    +0.000 C 
BRANCH  22  23
ATOM     23  C   UNL     1      -0.423  10.180  18.569  0.00  0.00    +0.000 C 
BRANCH  23  24
ATOM     24  C   UNL     1      -1.178  11.014  19.579  0.00  0.00    +0.000 A 
ATOM     25  C   UNL     1      -2.275  11.792  19.180  0.00  0.00    +0.000 A 
ATOM     26  C   UNL     1      -2.949  12.594  20.105  0.00  0.00    +0.000 A 
ATOM     27  C   UNL     1      -2.523  12.630  21.431  0.00  0.00    +0.000 A 
ATOM     28 CL   UNL     1      -3.350  13.623  22.567  0.00  0.00    +0.000 Cl
ATOM     29  C   UNL     1      -1.429  11.873  21.840  0.00  0.00    +0.000 A 
ATOM     30  C   UNL     1      -0.757  11.066  20.916  0.00  0.00    +0.000 A 
ENDBRANCH  23  24
ENDBRANCH  22  23
ENDBRANCH  20  22
ENDBRANCH   1  19
TORSDOF 5
ENDMDL
MODEL 7
REMARK VINA RESULT:      -8.8      2.290      2.810
REMARK  Name = 
REMARK  5 active torsions:
REMARK  status: ('A' for Active; 'I' for Inactive)
REMARK    1  A    between atoms: C_2  and  C_13
REMARK    2  A    between atoms: N_3  and  C_4
REMARK    3  A    between atoms: C_4  and  C_5
REMARK    4  A    between atoms: C_5  and  C_6
REMARK    5  A    between atoms: C_15  and  C_16
REMARK                            x       y       z     vdW  Elec       q    Type
REMARK                         _______ _______ _______ _____ _____    ______ ____
ROOT
ATOM      1  C   UNL     1       2.589   6.852  19.540  0.00  0.00    +0.000 A 
ATOM      2  N   UNL     1       3.626   6.924  18.625  0.00  0.00    +0.000 NA
ATOM      3  C   UNL     1       4.016   5.679  18.382  0.00  0.00    +0.000 A 
ATOM      4  N   UNL     1       3.274   4.796  19.165  0.00  0.00    +0.000 N 
ATOM      5  C   UNL     1       2.330   5.528  19.857  0.00  0.00    +0.000 A 
ATOM      6  C   UNL     1       1.273   4.963  20.755  0.00  0.00    +0.000 C 
ATOM      7  C   UNL     1       0.643   3.695  20.199  0.00  0.00    +0.000 C 
ATOM      8  C   UNL     1       1.456   2.442  20.504  0.00  0.00    +0.000 C 
ATOM      9  C   UNL     1       2.970   2.635  20.475  0.00  0.00    +0.000 C 
ATOM     10  C   UNL     1       3.462   3.354  19.226  0.00  0.00    +0.000 C 
ENDROOT
BRANCH   3  11
ATOM     11  C   UNL     1       5.106   5.328  17.445  0.00  0.00    +0.000 A 
ATOM     12  C   UNL     1       4.894   5.473  16.062  0.00  0.00    +0.000 A 
ATOM     13  C   UNL     1       5.894   5.150  15.136  0.00  0.00    +0.000 A 
ATOM     14  C   UNL     1       7.128   4.682  15.582  0.00  0.00    +0.000 A 
ATOM     15  C   UNL     1       7.340   4.524  16.938  0.00  0.00    +0.000 A 
ATOM     16  F   UNL     1       8.524   4.078  17.376  0.00  0.00    +0.000 F 
ATOM     17  C   UNL     1       6.343   4.821  17.863  0.00  0.00    +0.000 A 
ENDBRANCH   3  11
BRANCH   1  19
ATOM     18  O   UNL     1       1.346   8.870  19.358  0.00  0.00    +0.000 OA
ATOM     19  C   UNL     1       1.878   8.022  20.072  0.00  0.00    +0.000 C 
ATOM     20  N   UNL     1       1.855   8.114  21.447  0.00  0.00    +0.000 N 
ATOM     21  H   UNL     1       2.360   7.404  21.967  0.00  0.00    +0.000 HD
BRANCH  20  22
ATOM     22  C   UNL     1       1.243   9.273  22.061  0.00  0.00    +0.000 C 
BRANCH  22  23
ATOM     23  C   UNL     1      -0.273   9.185  22.185  0.00  0.00    +0.000 C 
BRANCH  23  24
ATOM     24  C   UNL     1      -0.904  10.555  22.075  0.00  0.00    +0.000 A 
ATOM     25  C   UNL     1      -1.526  11.141  23.188  0.00  0.00    +0.000 A 
ATOM     26  C   UNL     1      -2.144  12.390  23.078  0.00  0.00    +0.000 A 
ATOM     27  C   UNL     1      -2.152  13.053  21.853  0.00  0.00    +0.000 A 
ATOM     28 CL   UNL     1      -2.919  14.588  21.719  0.00  0.00    +0.000 Cl
ATOM     29  C   UNL     1      -1.549  12.480  20.738  0.00  0.00    +0.000 A 
ATOM     30  C   UNL     1      -0.926  11.232  20.848  0.00  0.00    +0.000 A 
ENDBRANCH  23  24
ENDBRANCH  22  23
ENDBRANCH  20  22
ENDBRANCH   1  19
TORSDOF 5
ENDMDL
MODEL 8
REMARK VINA RESULT:      -8.7      1.300      1.686
REMARK  Name = 
REMARK  5 active torsions:
REMARK  status: ('A' for Active; 'I' for Inactive)
REMARK    1  A    between atoms: C_2  and  C_13
REMARK    2  A    between atoms: N_3  and  C_4
REMARK    3  A    between atoms: C_4  and  C_5
REMARK    4  A    between atoms: C_5  and  C_6
REMARK    5  A    between atoms: C_15  and  C_16
REMARK                            x       y       z     vdW  Elec       q    Type
REMARK                         _______ _______ _______ _____ _____    ______ ____
ROOT
ATOM      1  C   UNL     1       2.472   6.966  19.291  0.00  0.00    +0.000 A 
ATOM      2  N   UNL     1       3.529   6.999  18.397  0.00  0.00    +0.000 NA
ATOM      3  C   UNL     1       4.006   5.763  18.314  0.00  0.00    +0.000 A 
ATOM      4  N   UNL     1       3.300   4.931  19.180  0.00  0.00    +0.000 N 
ATOM      5  C   UNL     1       2.290   5.674  19.758  0.00  0.00    +0.000 A 
ATOM      6  C   UNL     1       1.246   5.149  20.695  0.00  0.00    +0.000 C 
ATOM      7  C   UNL     1       0.716   3.784  20.281  0.00  0.00    +0.000 C 
ATOM      8  C   UNL     1       1.599   2.634  20.751  0.00  0.00    +0.000 C 
ATOM      9  C   UNL     1       3.097   2.924  20.733  0.00  0.00    +0.000 C 
ATOM     10  C   UNL     1       3.579   3.522  19.418  0.00  0.00    +0.000 C 
ENDROOT
BRANCH   3  11
ATOM     11  C   UNL     1       5.144   5.379  17.449  0.00  0.00    +0.000 A 
ATOM     12  C   UNL     1       5.013   5.492  16.054  0.00  0.00    +0.000 A 
ATOM     13  C   UNL     1       6.060   5.136  15.194  0.00  0.00    +0.000 A 
ATOM     14  C   UNL     1       7.261   4.668  15.721  0.00  0.00    +0.000 A 
ATOM     15  C   UNL     1       7.394   4.541  17.090  0.00  0.00    +0.000 A 
ATOM     16  F   UNL     1       8.545   4.093  17.607  0.00  0.00    +0.000 F 
ATOM     17  C   UNL     1       6.349   4.869  17.949  0.00  0.00    +0.000 A 
ENDBRANCH   3  11
BRANCH   1  19
ATOM     18  O   UNL     1       1.345   8.393  20.822  0.00  0.00    +0.000 OA
ATOM     19  C   UNL     1       1.672   8.140  19.664  0.00  0.00    +0.000 C 
ATOM     20  N   UNL     1       1.298   8.948  18.612  0.00  0.00    +0.000 N 
ATOM     21  H   UNL     1       1.562   8.646  17.680  0.00  0.00    +0.000 HD
BRANCH  20  22
ATOM     22  C   UNL     1       0.445  10.087  18.874  0.00  0.00    +0.000 C 
BRANCH  22  23
ATOM     23  C   UNL     1      -0.735  10.215  17.917  0.00  0.00    +0.000 C 
BRANCH  23  24
ATOM     24  C   UNL     1      -1.847  11.031  18.536  0.00  0.00    +0.000 A 
ATOM     25  C   UNL     1      -1.601  11.819  19.671  0.00  0.00    +0.000 A 
ATOM     26  C   UNL     1      -2.637  12.543  20.268  0.00  0.00    +0.000 A 
ATOM     27  C   UNL     1      -3.924  12.475  19.739  0.00  0.00    +0.000 A 
ATOM     28 CL   UNL     1      -5.199  13.363  20.479  0.00  0.00    +0.000 Cl
ATOM     29  C   UNL     1      -4.186  11.691  18.620  0.00  0.00    +0.000 A 
ATOM     30  C   UNL     1      -3.148  10.969  18.019  0.00  0.00    +0.000 A 
ENDBRANCH  23  24
ENDBRANCH  22  23
ENDBRANCH  20  22
ENDBRANCH   1  19
TORSDOF 5
ENDMDL
MODEL 9
REMARK VINA RESULT:      -8.7      1.888      2.315
REMARK  Name = 
REMARK  5 active torsions:
REMARK  status: ('A' for Active; 'I' for Inactive)
REMARK    1  A    between atoms: C_2  and  C_13
REMARK    2  A    between atoms: N_3  and  C_4
REMARK    3  A    between atoms: C_4  and  C_5
REMARK    4  A    between atoms: C_5  and  C_6
REMARK    5  A    between atoms: C_15  and  C_16
REMARK                            x       y       z     vdW  Elec       q    Type
REMARK                         _______ _______ _______ _____ _____    ______ ____
ROOT
ATOM      1  C   UNL     1       2.667   6.855  19.163  0.00  0.00    +0.000 A 
ATOM      2  N   UNL     1       3.626   6.834  18.163  0.00  0.00    +0.000 NA
ATOM      3  C   UNL     1       3.995   5.569  18.006  0.00  0.00    +0.000 A 
ATOM      4  N   UNL     1       3.320   4.768  18.925  0.00  0.00    +0.000 N 
ATOM      5  C   UNL     1       2.436   5.568  19.621  0.00  0.00    +0.000 A 
ATOM      6  C   UNL     1       1.456   5.096  20.651  0.00  0.00    +0.000 C 
ATOM      7  C   UNL     1       0.783   3.787  20.268  0.00  0.00    +0.000 C 
ATOM      8  C   UNL     1       1.618   2.562  20.621  0.00  0.00    +0.000 C 
ATOM      9  C   UNL     1       3.125   2.740  20.451  0.00  0.00    +0.000 C 
ATOM     10  C   UNL     1       3.513   3.336  19.104  0.00  0.00    +0.000 C 
ENDROOT
BRANCH   3  11
ATOM     11  C   UNL     1       5.005   5.125  17.020  0.00  0.00    +0.000 A 
ATOM     12  C   UNL     1       6.355   5.052  17.405  0.00  0.00    +0.000 A 
ATOM     13  C   UNL     1       7.347   4.642  16.506  0.00  0.00    +0.000 A 
ATOM     14  C   UNL     1       7.000   4.289  15.204  0.00  0.00    +0.000 A 
ATOM     15  C   UNL     1       5.678   4.370  14.812  0.00  0.00    +0.000 A 
ATOM     16  F   UNL     1       5.333   4.031  13.564  0.00  0.00    +0.000 F 
ATOM     17  C   UNL     1       4.690   4.800  15.694  0.00  0.00    +0.000 A 
ENDBRANCH   3  11
BRANCH   1  19
ATOM     18  O   UNL     1       1.689   8.255  20.816  0.00  0.00    +0.000 OA
ATOM     19  C   UNL     1       2.003   8.075  19.640  0.00  0.00    +0.000 C 
ATOM     20  N   UNL     1       1.742   9.016  18.668  0.00  0.00    +0.000 N 
ATOM     21  H   UNL     1       1.984   8.773  17.713  0.00  0.00    +0.000 HD
BRANCH  20  22
ATOM     22  C   UNL     1       1.022  10.217  19.031  0.00  0.00    +0.000 C 
BRANCH  22  23
ATOM     23  C   UNL     1      -0.454   9.990  19.338  0.00  0.00    +0.000 C 
BRANCH  23  24
ATOM     24  C   UNL     1      -0.929  10.924  20.428  0.00  0.00    +0.000 A 
ATOM     25  C   UNL     1      -0.599  10.676  21.769  0.00  0.00    +0.000 A 
ATOM     26  C   UNL     1      -1.071  11.517  22.781  0.00  0.00    +0.000 A 
ATOM     27  C   UNL     1      -1.881  12.603  22.458  0.00  0.00    +0.000 A 
ATOM     28 CL   UNL     1      -2.466  13.633  23.707  0.00  0.00    +0.000 Cl
ATOM     29  C   UNL     1      -2.226  12.856  21.134  0.00  0.00    +0.000 A 
ATOM     30  C   UNL     1      -1.751  12.018  20.120  0.00  0.00    +0.000 A 
ENDBRANCH  23  24
ENDBRANCH  22  23
ENDBRANCH  20  22
ENDBRANCH   1  19
TORSDOF 5
ENDMDL
