MODEL 1
REMARK VINA RESULT:      -8.4      0.000      0.000
REMARK  Name = 
REMARK  5 active torsions:
REMARK  status: ('A' for Active; 'I' for Inactive)
REMARK    1  A    between atoms: C_2  and  C_13
REMARK    2  A    between atoms: N_3  and  C_4
REMARK    3  A    between atoms: C_4  and  C_5
REMARK    4  A    between atoms: C_5  and  C_6
REMARK    5  A    between atoms: C_16  and  C_17
REMARK                            x       y       z     vdW  Elec       q    Type
REMARK                         _______ _______ _______ _____ _____    ______ ____
ROOT
ATOM      1  O   UNL     1       7.926   6.959  16.446  0.00  0.00    +0.000 OA
ATOM      2  C   UNL     1       7.202   7.341  17.352  0.00  0.00    +0.000 C 
ATOM      3  N   UNL     1       7.386   8.539  18.019  0.00  0.00    +0.000 N 
ATOM      4  H   UNL     1       6.708   8.787  18.733  0.00  0.00    +0.000 HD
ENDROOT
BRANCH   2   5
ATOM      5  C   UNL     1       6.040   6.506  17.798  0.00  0.00    +0.000 A 
ATOM      6  C   UNL     1       4.855   6.585  17.077  0.00  0.00    +0.000 A 
ATOM      7  C   UNL     1       3.778   5.806  17.481  0.00  0.00    +0.000 A 
ATOM      8  C   UNL     1       3.889   4.976  18.605  0.00  0.00    +0.000 A 
ATOM      9  C   UNL     1       5.128   4.990  19.262  0.00  0.00    +0.000 A 
ATOM     10  N   UNL     1       6.211   5.715  18.888  0.00  0.00    +0.000 NA
BRANCH   8  11
ATOM     11  C   UNL     1       2.770   4.140  19.066  0.00  0.00    +0.000 A 
ATOM     12  C   UNL     1       2.007   3.378  18.163  0.00  0.00    +0.000 A 
ATOM     13  C   UNL     1       0.909   2.632  18.595  0.00  0.00    +0.000 A 
ATOM     14  C   UNL     1       0.561   2.623  19.941  0.00  0.00    +0.000 A 
ATOM     15  C   UNL     1       1.320   3.342  20.860  0.00  0.00    +0.000 A 
ATOM     16  C   UNL     1       2.415   4.088  20.426  0.00  0.00    +0.000 A 
ENDBRANCH   8  11
ENDBRANCH   2   5
BRANCH   3  17
ATOM     17  C   UNL     1       8.503   9.400  17.681  0.00  0.00    +0.000 C 
BRANCH  17  18
ATOM     18  C   UNL     1       9.048  10.184  18.873  0.00  0.00    +0.000 C 
BRANCH  18  19
ATOM     19  C   UNL     1       9.942  11.321  18.448  0.00  0.00    +0.000 A 
ATOM     20  C   UNL     1      11.303  11.338  18.787  0.00  0.00    +0.000 A 
ATOM     21  C   UNL     1      12.119  12.403  18.394  0.00  0.00    +0.000 A 
ATOM     22  C   UNL     1      11.587  13.467  17.665  0.00  0.00    +0.000 A 
ATOM     23  C   UNL     1      10.233  13.465  17.330  0.00  0.00    +0.000 A 
ATOM     24  C   UNL     1       9.427  12.401  17.723  0.00  0.00    +0.000 A 
ATOM     25  F   UNL     1       8.127  12.421  17.391  0.00  0.00    +0.000 F 
ENDBRANCH  18  19
ENDBRANCH  17  18
ENDBRANCH   3  17
TORSDOF 5
ENDMDL
MODEL 2
REMARK VINA RESULT:      -8.2      5.919      9.012
REMARK  Name = 
REMARK  5 active torsions:
REMARK  status: ('A' for Active; 'I' for Inactive)
REMARK    1  A    between atoms: C_2  and  C_13
REMARK    2  A    between atoms: N_3  and  C_4
REMARK    3  A    between atoms: C_4  and  C_5
REMARK    4  A    between atoms: C_5  and  C_6
REMARK    5  A    between atoms: C_16  and  C_17
REMARK                            x       y       z     vdW  Elec       q    Type
REMARK                         _______ _______ _______ _____ _____    ______ ____
ROOT
ATOM      1  O   UNL     1       4.095   7.050  16.986  0.00  0.00    +0.000 OA
ATOM      2  C   UNL     1       3.288   6.604  17.786  0.00  0.00    +0.000 C 
ATOM      3  N   UNL     1       3.065   5.250  17.967  0.00  0.00    +0.000 N 
ATOM      4  H   UNL     1       2.400   4.976  18.685  0.00  0.00    +0.000 HD
ENDROOT
BRANCH   2   5
ATOM      5  C   UNL     1       2.478   7.529  18.643  0.00  0.00    +0.000 A 
ATOM      6  C   UNL     1       1.990   8.699  18.073  0.00  0.00    +0.000 A 
ATOM      7  C   UNL     1       1.230   9.555  18.860  0.00  0.00    +0.000 A 
ATOM      8  C   UNL     1       0.983   9.245  20.204  0.00  0.00    +0.000 A 
ATOM      9  C   UNL     1       1.538   8.046  20.673  0.00  0.00    +0.000 A 
ATOM     10  N   UNL     1       2.264   7.170  19.935  0.00  0.00    +0.000 NA
BRANCH   8  11
ATOM     11  C   UNL     1       0.186  10.128  21.070  0.00  0.00    +0.000 A 
ATOM     12  C   UNL     1      -0.239   9.713  22.345  0.00  0.00    +0.000 A 
ATOM     13  C   UNL     1      -1.044  10.529  23.140  0.00  0.00    +0.000 A 
ATOM     14  C   UNL     1      -1.429  11.784  22.681  0.00  0.00    +0.000 A 
ATOM     15  C   UNL     1      -0.994  12.232  21.438  0.00  0.00    +0.000 A 
ATOM     16  C   UNL     1      -0.192  11.414  20.644  0.00  0.00    +0.000 A 
ENDBRANCH   8  11
ENDBRANCH   2   5
BRANCH   3  17
ATOM     17  C   UNL     1       3.778   4.278  17.161  0.00  0.00    +0.000 C 
BRANCH  17  18
ATOM     18  C   UNL     1       3.628   2.844  17.666  0.00  0.00    +0.000 C 
BRANCH  18  19
ATOM     19  C   UNL     1       2.844   2.772  18.952  0.00  0.00    +0.000 A 
ATOM     20  C   UNL     1       1.444   2.872  18.953  0.00  0.00    +0.000 A 
ATOM     21  C   UNL     1       0.729   2.813  20.153  0.00  0.00    +0.000 A 
ATOM     22  C   UNL     1       1.401   2.659  21.366  0.00  0.00    +0.000 A 
ATOM     23  C   UNL     1       2.793   2.567  21.378  0.00  0.00    +0.000 A 
ATOM     24  C   UNL     1       3.497   2.625  20.180  0.00  0.00    +0.000 A 
ATOM     25  F   UNL     1       4.836   2.537  20.214  0.00  0.00    +0.000 F 
ENDBRANCH  18  19
ENDBRANCH  17  18
ENDBRANCH   3  17
TORSDOF 5
ENDMDL
MODEL 3
REMARK VINA RESULT:      -8.2      0.960      1.415
REMARK  Name = 
REMARK  5 active torsions:
REMARK  status: ('A' for Active; 'I' for Inactive)
REMARK    1  A    between atoms: C_2  and  C_13
REMARK    2  A    between atoms: N_3  and  C_4
REMARK    3  A    between atoms: C_4  and  C_5
REMARK    4  A    between atoms: C_5  and  C_6
REMARK    5  A    between atoms: C_16  and  C_17
REMARK                            x       y       z     vdW  Elec       q    Type
REMARK                         _______ _______ _______ _____ _____    ______ ____
ROOT
ATOM      1  O   UNL     1       7.964   7.073  16.492  0.00  0.00    +0.000 OA
ATOM      2  C   UNL     1       7.253   7.442  17.413  0.00  0.00    +0.000 C 
ATOM      3  N   UNL     1       7.477   8.605  18.128  0.00  0.00    +0.000 N 
ATOM      4  H   UNL     1       6.807   8.847  18.852  0.00  0.00    +0.000 HD
ENDROOT
BRANCH   2   5
ATOM      5  C   UNL     1       6.063   6.630  17.825  0.00  0.00    +0.000 A 
ATOM      6  C   UNL     1       4.864   6.825  17.150  0.00  0.00    +0.000 A 
ATOM      7  C   UNL     1       3.760   6.069  17.523  0.00  0.00    +0.000 A 
ATOM      8  C   UNL     1       3.859   5.145  18.571  0.00  0.00    +0.000 A 
ATOM      9  C   UNL     1       5.114   5.044  19.189  0.00  0.00    +0.000 A 
ATOM     10  N   UNL     1       6.223   5.745  18.843  0.00  0.00    +0.000 NA
BRANCH   8  11
ATOM     11  C   UNL     1       2.712   4.328  18.997  0.00  0.00    +0.000 A 
ATOM     12  C   UNL     1       2.188   4.425  20.299  0.00  0.00    +0.000 A 
ATOM     13  C   UNL     1       1.138   3.607  20.718  0.00  0.00    +0.000 A 
ATOM     14  C   UNL     1       0.582   2.685  19.838  0.00  0.00    +0.000 A 
ATOM     15  C   UNL     1       1.060   2.592  18.535  0.00  0.00    +0.000 A 
ATOM     16  C   UNL     1       2.110   3.409  18.119  0.00  0.00    +0.000 A 
ENDBRANCH   8  11
ENDBRANCH   2   5
BRANCH   3  17
ATOM     17  C   UNL     1       8.624   9.441  17.824  0.00  0.00    +0.000 C 
BRANCH  17  18
ATOM     18  C   UNL     1       9.208  10.138  19.051  0.00  0.00    +0.000 C 
BRANCH  18  19
ATOM     19  C   UNL     1       9.756  11.504  18.723  0.00  0.00    +0.000 A 
ATOM     20  C   UNL     1      10.557  11.711  17.590  0.00  0.00    +0.000 A 
ATOM     21  C   UNL     1      11.066  12.980  17.303  0.00  0.00    +0.000 A 
ATOM     22  C   UNL     1      10.788  14.058  18.144  0.00  0.00    +0.000 A 
ATOM     23  C   UNL     1      10.000  13.863  19.278  0.00  0.00    +0.000 A 
ATOM     24  C   UNL     1       9.496  12.596  19.558  0.00  0.00    +0.000 A 
ATOM     25  F   UNL     1       8.741  12.431  20.655  0.00  0.00    +0.000 F 
ENDBRANCH  18  19
ENDBRANCH  17  18
ENDBRANCH   3  17
TORSDOF 5
ENDMDL
MODEL 4
REMARK VINA RESULT:      -8.2      5.819      9.059
REMARK  Name = 
REMARK  5 active torsions:
REMARK  status: ('A' for Active; 'I' for Inactive)
REMARK    1  A    between atoms: C_2  and  C_13
REMARK    2  A    between atoms: N_3  and  C_4
REMARK    3  A    between atoms: C_4  and  C_5
REMARK    4  A    between atoms: C_5  and  C_6
REMARK    5  A    between atoms: C_16  and  C_17
REMARK                            x       y       z     vdW  Elec       q    Type
REMARK                         _______ _______ _______ _____ _____    ______ ____
ROOT
ATOM      1  O   UNL     1       4.628   5.708  19.571  0.00  0.00    +0.000 OA
ATOM      2  C   UNL     1       3.788   5.902  18.708  0.00  0.00    +0.000 C 
ATOM      3  N   UNL     1       3.587   5.050  17.636  0.00  0.00    +0.000 N 
ATOM      4  H   UNL     1       2.837   5.278  16.990  0.00  0.00    +0.000 HD
ENDROOT
BRANCH   2   5
ATOM      5  C   UNL     1       2.901   7.109  18.769  0.00  0.00    +0.000 A 
ATOM      6  C   UNL     1       2.817   7.924  17.648  0.00  0.00    +0.000 A 
ATOM      7  C   UNL     1       1.989   9.039  17.696  0.00  0.00    +0.000 A 
ATOM      8  C   UNL     1       1.274   9.336  18.864  0.00  0.00    +0.000 A 
ATOM      9  C   UNL     1       1.449   8.451  19.937  0.00  0.00    +0.000 A 
ATOM     10  N   UNL     1       2.226   7.340  19.925  0.00  0.00    +0.000 NA
BRANCH   8  11
ATOM     11  C   UNL     1       0.391  10.509  18.956  0.00  0.00    +0.000 A 
ATOM     12  C   UNL     1       0.911  11.816  18.985  0.00  0.00    +0.000 A 
ATOM     13  C   UNL     1       0.075  12.923  19.131  0.00  0.00    +0.000 A 
ATOM     14  C   UNL     1      -1.301  12.747  19.237  0.00  0.00    +0.000 A 
ATOM     15  C   UNL     1      -1.843  11.467  19.178  0.00  0.00    +0.000 A 
ATOM     16  C   UNL     1      -1.006  10.361  19.034  0.00  0.00    +0.000 A 
ENDBRANCH   8  11
ENDBRANCH   2   5
BRANCH   3  17
ATOM     17  C   UNL     1       4.419   3.873  17.472  0.00  0.00    +0.000 C 
BRANCH  17  18
ATOM     18  C   UNL     1       3.689   2.567  17.780  0.00  0.00    +0.000 C 
BRANCH  18  19
ATOM     19  C   UNL     1       2.839   2.668  19.021  0.00  0.00    +0.000 A 
ATOM     20  C   UNL     1       1.462   2.929  18.937  0.00  0.00    +0.000 A 
ATOM     21  C   UNL     1       0.687   3.029  20.095  0.00  0.00    +0.000 A 
ATOM     22  C   UNL     1       1.274   2.877  21.352  0.00  0.00    +0.000 A 
ATOM     23  C   UNL     1       2.643   2.626  21.448  0.00  0.00    +0.000 A 
ATOM     24  C   UNL     1       3.409   2.527  20.291  0.00  0.00    +0.000 A 
ATOM     25  F   UNL     1       4.724   2.287  20.407  0.00  0.00    +0.000 F 
ENDBRANCH  18  19
ENDBRANCH  17  18
ENDBRANCH   3  17
TORSDOF 5
ENDMDL
MODEL 5
REMARK VINA RESULT:      -8.2      0.973      1.390
REMARK  Name = 
REMARK  5 active torsions:
REMARK  status: ('A' for Active; 'I' for Inactive)
REMARK    1  A    between atoms: C_2  and  C_13
REMARK    2  A    between atoms: N_3  and  C_4
REMARK    3  A    between atoms: C_4  and  C_5
REMARK    4  A    between atoms: C_5  and  C_6
REMARK    5  A    between atoms: C_16  and  C_17
REMARK                            x       y       z     vdW  Elec       q    Type
REMARK                         _______ _______ _______ _____ _____    ______ ____
ROOT
ATOM      1  O   UNL     1       7.920   7.013  16.362  0.00  0.00    +0.000 OA
ATOM      2  C   UNL     1       7.257   7.344  17.332  0.00  0.00    +0.000 C 
ATOM      3  N   UNL     1       7.513   8.484  18.074  0.00  0.00    +0.000 N 
ATOM      4  H   UNL     1       6.882   8.695  18.842  0.00  0.00    +0.000 HD
ENDROOT
BRANCH   2   5
ATOM      5  C   UNL     1       6.096   6.509  17.779  0.00  0.00    +0.000 A 
ATOM      6  C   UNL     1       4.919   6.566  17.043  0.00  0.00    +0.000 A 
ATOM      7  C   UNL     1       3.843   5.786  17.449  0.00  0.00    +0.000 A 
ATOM      8  C   UNL     1       3.947   4.978  18.589  0.00  0.00    +0.000 A 
ATOM      9  C   UNL     1       5.177   5.013  19.260  0.00  0.00    +0.000 A 
ATOM     10  N   UNL     1       6.260   5.740  18.887  0.00  0.00    +0.000 NA
BRANCH   8  11
ATOM     11  C   UNL     1       2.828   4.142  19.052  0.00  0.00    +0.000 A 
ATOM     12  C   UNL     1       2.195   3.227  18.192  0.00  0.00    +0.000 A 
ATOM     13  C   UNL     1       1.097   2.478  18.616  0.00  0.00    +0.000 A 
ATOM     14  C   UNL     1       0.618   2.619  19.914  0.00  0.00    +0.000 A 
ATOM     15  C   UNL     1       1.248   3.493  20.795  0.00  0.00    +0.000 A 
ATOM     16  C   UNL     1       2.344   4.243  20.368  0.00  0.00    +0.000 A 
ENDBRANCH   8  11
ENDBRANCH   2   5
BRANCH   3  17
ATOM     17  C   UNL     1       8.636   9.338  17.739  0.00  0.00    +0.000 C 
BRANCH  17  18
ATOM     18  C   UNL     1       9.154  10.152  18.922  0.00  0.00    +0.000 C 
BRANCH  18  19
ATOM     19  C   UNL     1       9.627  11.523  18.509  0.00  0.00    +0.000 A 
ATOM     20  C   UNL     1       8.747  12.447  17.925  0.00  0.00    +0.000 A 
ATOM     21  C   UNL     1       9.200  13.710  17.537  0.00  0.00    +0.000 A 
ATOM     22  C   UNL     1      10.536  14.068  17.722  0.00  0.00    +0.000 A 
ATOM     23  C   UNL     1      11.422  13.154  18.294  0.00  0.00    +0.000 A 
ATOM     24  C   UNL     1      10.964  11.898  18.678  0.00  0.00    +0.000 A 
ATOM     25  F   UNL     1      11.834  11.034  19.224  0.00  0.00    +0.000 F 
ENDBRANCH  18  19
ENDBRANCH  17  18
ENDBRANCH   3  17
TORSDOF 5
ENDMDL
MODEL 6
REMARK VINA RESULT:      -8.2      2.789      9.695
REMARK  Name = 
REMARK  5 active torsions:
REMARK  status: ('A' for Active; 'I' for Inactive)
REMARK    1  A    between atoms: C_2  and  C_13
REMARK    2  A    between atoms: N_3  and  C_4
REMARK    3  A    between atoms: C_4  and  C_5
REMARK    4  A    between atoms: C_5  and  C_6
REMARK    5  A    between atoms: C_16  and  C_17
REMARK                            x       y       z     vdW  Elec       q    Type
REMARK                         _______ _______ _______ _____ _____    ______ ____
ROOT
ATOM      1  O   UNL     1       6.339   5.788  15.700  0.00  0.00    +0.000 OA
ATOM      2  C   UNL     1       6.361   5.981  16.905  0.00  0.00    +0.000 C 
ATOM      3  N   UNL     1       5.688   5.186  17.816  0.00  0.00    +0.000 N 
ATOM      4  H   UNL     1       5.799   5.405  18.802  0.00  0.00    +0.000 HD
ENDROOT
BRANCH   2   5
ATOM      5  C   UNL     1       7.146   7.123  17.477  0.00  0.00    +0.000 A 
ATOM      6  C   UNL     1       7.983   6.873  18.557  0.00  0.00    +0.000 A 
ATOM      7  C   UNL     1       8.721   7.926  19.084  0.00  0.00    +0.000 A 
ATOM      8  C   UNL     1       8.600   9.213  18.543  0.00  0.00    +0.000 A 
ATOM      9  C   UNL     1       7.714   9.348  17.464  0.00  0.00    +0.000 A 
ATOM     10  N   UNL     1       6.994   8.345  16.904  0.00  0.00    +0.000 NA
BRANCH   8  11
ATOM     11  C   UNL     1       9.361  10.354  19.076  0.00  0.00    +0.000 A 
ATOM     12  C   UNL     1       9.353  10.661  20.448  0.00  0.00    +0.000 A 
ATOM     13  C   UNL     1      10.027  11.778  20.943  0.00  0.00    +0.000 A 
ATOM     14  C   UNL     1      10.735  12.603  20.075  0.00  0.00    +0.000 A 
ATOM     15  C   UNL     1      10.786  12.302  18.718  0.00  0.00    +0.000 A 
ATOM     16  C   UNL     1      10.110  11.187  18.225  0.00  0.00    +0.000 A 
ENDBRANCH   8  11
ENDBRANCH   2   5
BRANCH   3  17
ATOM     17  C   UNL     1       4.874   4.077  17.356  0.00  0.00    +0.000 C 
BRANCH  17  18
ATOM     18  C   UNL     1       3.413   4.454  17.117  0.00  0.00    +0.000 C 
BRANCH  18  19
ATOM     19  C   UNL     1       2.525   4.053  18.268  0.00  0.00    +0.000 A 
ATOM     20  C   UNL     1       2.254   4.945  19.317  0.00  0.00    +0.000 A 
ATOM     21  C   UNL     1       1.437   4.559  20.383  0.00  0.00    +0.000 A 
ATOM     22  C   UNL     1       0.885   3.278  20.420  0.00  0.00    +0.000 A 
ATOM     23  C   UNL     1       1.155   2.380  19.387  0.00  0.00    +0.000 A 
ATOM     24  C   UNL     1       1.968   2.772  18.328  0.00  0.00    +0.000 A 
ATOM     25  F   UNL     1       2.216   1.891  17.346  0.00  0.00    +0.000 F 
ENDBRANCH  18  19
ENDBRANCH  17  18
ENDBRANCH   3  17
TORSDOF 5
ENDMDL
MODEL 7
REMARK VINA RESULT:      -8.1      1.218      1.674
REMARK  Name = 
REMARK  5 active torsions:
REMARK  status: ('A' for Active; 'I' for Inactive)
REMARK    1  A    between atoms: C_2  and  C_13
REMARK    2  A    between atoms: N_3  and  C_4
REMARK    3  A    between atoms: C_4  and  C_5
REMARK    4  A    between atoms: C_5  and  C_6
REMARK    5  A    between atoms: C_16  and  C_17
REMARK                            x       y       z     vdW  Elec       q    Type
REMARK                         _______ _______ _______ _____ _____    ______ ____
ROOT
ATOM      1  O   UNL     1       7.988   6.881  16.320  0.00  0.00    +0.000 OA
ATOM      2  C   UNL     1       7.342   7.193  17.308  0.00  0.00    +0.000 C 
ATOM      3  N   UNL     1       7.639   8.290  18.096  0.00  0.00    +0.000 N 
ATOM      4  H   UNL     1       7.019   8.490  18.876  0.00  0.00    +0.000 HD
ENDROOT
BRANCH   2   5
ATOM      5  C   UNL     1       6.156   6.378  17.727  0.00  0.00    +0.000 A 
ATOM      6  C   UNL     1       6.375   5.222  18.464  0.00  0.00    +0.000 A 
ATOM      7  C   UNL     1       5.278   4.468  18.863  0.00  0.00    +0.000 A 
ATOM      8  C   UNL     1       3.983   4.866  18.507  0.00  0.00    +0.000 A 
ATOM      9  C   UNL     1       3.884   6.042  17.749  0.00  0.00    +0.000 A 
ATOM     10  N   UNL     1       4.925   6.819  17.359  0.00  0.00    +0.000 NA
BRANCH   8  11
ATOM     11  C   UNL     1       2.796   4.093  18.907  0.00  0.00    +0.000 A 
ATOM     12  C   UNL     1       2.429   2.915  18.231  0.00  0.00    +0.000 A 
ATOM     13  C   UNL     1       1.271   2.217  18.574  0.00  0.00    +0.000 A 
ATOM     14  C   UNL     1       0.464   2.675  19.611  0.00  0.00    +0.000 A 
ATOM     15  C   UNL     1       0.823   3.819  20.317  0.00  0.00    +0.000 A 
ATOM     16  C   UNL     1       1.979   4.517  19.971  0.00  0.00    +0.000 A 
ENDBRANCH   8  11
ENDBRANCH   2   5
BRANCH   3  17
ATOM     17  C   UNL     1       8.789   9.121  17.790  0.00  0.00    +0.000 C 
BRANCH  17  18
ATOM     18  C   UNL     1       8.564  10.601  18.088  0.00  0.00    +0.000 C 
BRANCH  18  19
ATOM     19  C   UNL     1       9.812  11.275  18.602  0.00  0.00    +0.000 A 
ATOM     20  C   UNL     1      10.775  11.787  17.718  0.00  0.00    +0.000 A 
ATOM     21  C   UNL     1      11.931  12.401  18.207  0.00  0.00    +0.000 A 
ATOM     22  C   UNL     1      12.146  12.506  19.582  0.00  0.00    +0.000 A 
ATOM     23  C   UNL     1      11.200  11.993  20.469  0.00  0.00    +0.000 A 
ATOM     24  C   UNL     1      10.050  11.385  19.976  0.00  0.00    +0.000 A 
ATOM     25  F   UNL     1       9.155  10.896  20.848  0.00  0.00    +0.000 F 
ENDBRANCH  18  19
ENDBRANCH  17  18
ENDBRANCH   3  17
TORSDOF 5
ENDMDL
MODEL 8
REMARK VINA RESULT:      -8.1      5.852      9.034
REMARK  Name = 
REMARK  5 active torsions:
REMARK  status: ('A' for Active; 'I' for Inactive)
REMARK    1  A    between atoms: C_2  and  C_13
REMARK    2  A    between atoms: N_3  and  C_4
REMARK    3  A    between atoms: C_4  and  C_5
REMARK    4  A    between atoms: C_5  and  C_6
REMARK    5  A    between atoms: C_16  and  C_17
REMARK                            x       y       z     vdW  Elec       q    Type
REMARK                         _______ _______ _______ _____ _____    ______ ____
ROOT
ATOM      1  O   UNL     1       4.448   7.067  17.535  0.00  0.00    +0.000 OA
ATOM      2  C   UNL     1       3.376   6.685  17.978  0.00  0.00    +0.000 C 
ATOM      3  N   UNL     1       2.931   5.379  17.871  0.00  0.00    +0.000 N 
ATOM      4  H   UNL     1       2.042   5.149  18.306  0.00  0.00    +0.000 HD
ENDROOT
BRANCH   2   5
ATOM      5  C   UNL     1       2.463   7.640  18.684  0.00  0.00    +0.000 A 
ATOM      6  C   UNL     1       1.949   8.714  17.968  0.00  0.00    +0.000 A 
ATOM      7  C   UNL     1       1.094   9.597  18.616  0.00  0.00    +0.000 A 
ATOM      8  C   UNL     1       0.780   9.410  19.969  0.00  0.00    +0.000 A 
ATOM      9  C   UNL     1       1.369   8.301  20.592  0.00  0.00    +0.000 A 
ATOM     10  N   UNL     1       2.188   7.402  19.993  0.00  0.00    +0.000 NA
BRANCH   8  11
ATOM     11  C   UNL     1      -0.118  10.326  20.690  0.00  0.00    +0.000 A 
ATOM     12  C   UNL     1      -0.937  11.240  20.003  0.00  0.00    +0.000 A 
ATOM     13  C   UNL     1      -1.743  12.147  20.691  0.00  0.00    +0.000 A 
ATOM     14  C   UNL     1      -1.757  12.149  22.082  0.00  0.00    +0.000 A 
ATOM     15  C   UNL     1      -0.981  11.233  22.785  0.00  0.00    +0.000 A 
ATOM     16  C   UNL     1      -0.175  10.329  22.096  0.00  0.00    +0.000 A 
ENDBRANCH   8  11
ENDBRANCH   2   5
BRANCH   3  17
ATOM     17  C   UNL     1       3.731   4.388  17.176  0.00  0.00    +0.000 C 
BRANCH  17  18
ATOM     18  C   UNL     1       3.372   2.951  17.545  0.00  0.00    +0.000 C 
BRANCH  18  19
ATOM     19  C   UNL     1       2.670   2.862  18.876  0.00  0.00    +0.000 A 
ATOM     20  C   UNL     1       1.269   2.879  18.959  0.00  0.00    +0.000 A 
ATOM     21  C   UNL     1       0.630   2.806  20.199  0.00  0.00    +0.000 A 
ATOM     22  C   UNL     1       1.378   2.722  21.374  0.00  0.00    +0.000 A 
ATOM     23  C   UNL     1       2.772   2.712  21.305  0.00  0.00    +0.000 A 
ATOM     24  C   UNL     1       3.401   2.784  20.066  0.00  0.00    +0.000 A 
ATOM     25  F   UNL     1       4.742   2.776  20.024  0.00  0.00    +0.000 F 
ENDBRANCH  18  19
ENDBRANCH  17  18
ENDBRANCH   3  17
TORSDOF 5
ENDMDL
MODEL 9
REMARK VINA RESULT:      -8.1      5.852      9.135
REMARK  Name = 
REMARK  5 active torsions:
REMARK  status: ('A' for Active; 'I' for Inactive)
REMARK    1  A    between atoms: C_2  and  C_13
REMARK    2  A    between atoms: N_3  and  C_4
REMARK    3  A    between atoms: C_4  and  C_5
REMARK    4  A    between atoms: C_5  and  C_6
REMARK    5  A    between atoms: C_16  and  C_17
REMARK                            x       y       z     vdW  Elec       q    Type
REMARK                         _______ _______ _______ _____ _____    ______ ____
ROOT
ATOM      1  O   UNL     1       4.531   5.616  19.636  0.00  0.00    +0.000 OA
ATOM      2  C   UNL     1       3.757   5.851  18.722  0.00  0.00    +0.000 C 
ATOM      3  N   UNL     1       3.592   5.017  17.631  0.00  0.00    +0.000 N 
ATOM      4  H   UNL     1       2.895   5.280  16.941  0.00  0.00    +0.000 HD
ENDROOT
BRANCH   2   5
ATOM      5  C   UNL     1       2.918   7.093  18.739  0.00  0.00    +0.000 A 
ATOM      6  C   UNL     1       2.154   7.359  19.869  0.00  0.00    +0.000 A 
ATOM      7  C   UNL     1       1.382   8.514  19.893  0.00  0.00    +0.000 A 
ATOM      8  C   UNL     1       1.365   9.375  18.788  0.00  0.00    +0.000 A 
ATOM      9  C   UNL     1       2.163   8.997  17.699  0.00  0.00    +0.000 A 
ATOM     10  N   UNL     1       2.950   7.893  17.642  0.00  0.00    +0.000 NA
BRANCH   8  11
ATOM     11  C   UNL     1       0.558  10.604  18.774  0.00  0.00    +0.000 A 
ATOM     12  C   UNL     1      -0.845  10.557  18.671  0.00  0.00    +0.000 A 
ATOM     13  C   UNL     1      -1.603  11.726  18.599  0.00  0.00    +0.000 A 
ATOM     14  C   UNL     1      -0.976  12.966  18.642  0.00  0.00    +0.000 A 
ATOM     15  C   UNL     1       0.407  13.040  18.778  0.00  0.00    +0.000 A 
ATOM     16  C   UNL     1       1.164  11.872  18.848  0.00  0.00    +0.000 A 
ENDBRANCH   8  11
ENDBRANCH   2   5
BRANCH   3  17
ATOM     17  C   UNL     1       4.384   3.807  17.509  0.00  0.00    +0.000 C 
BRANCH  17  18
ATOM     18  C   UNL     1       3.589   2.532  17.782  0.00  0.00    +0.000 C 
BRANCH  18  19
ATOM     19  C   UNL     1       2.766   2.631  19.041  0.00  0.00    +0.000 A 
ATOM     20  C   UNL     1       1.381   2.856  18.985  0.00  0.00    +0.000 A 
ATOM     21  C   UNL     1       0.631   2.955  20.159  0.00  0.00    +0.000 A 
ATOM     22  C   UNL     1       1.250   2.839  21.404  0.00  0.00    +0.000 A 
ATOM     23  C   UNL     1       2.627   2.624  21.472  0.00  0.00    +0.000 A 
ATOM     24  C   UNL     1       3.368   2.525  20.299  0.00  0.00    +0.000 A 
ATOM     25  F   UNL     1       4.691   2.321  20.388  0.00  0.00    +0.000 F 
ENDBRANCH  18  19
ENDBRANCH  17  18
ENDBRANCH   3  17
TORSDOF 5
ENDMDL
