MODEL 1
REMARK VINA RESULT:      -6.3      0.000      0.000
REMARK  Name = 
REMARK  3 active torsions:
REMARK  status: ('A' for Active; 'I' for Inactive)
REMARK    1  A    between atoms: C_1  and  C_2
REMARK    2  A    between atoms: C_8  and  N_9
REMARK    3  A    between atoms: C_10  and  C_12
REMARK                            x       y       z     vdW  Elec       q    Type
REMARK                         _______ _______ _______ _____ _____    ______ ____
ROOT
ATOM      1  C   UNL     1       3.917   7.257  17.481  0.00  0.00    +0.000 C 
ATOM      2  C   UNL     1       4.481   5.973  16.931  0.00  0.00    +0.000 A 
ATOM      3  C   UNL     1       5.369   6.069  15.837  0.00  0.00    +0.000 A 
ATOM      4  C   UNL     1       5.934   4.927  15.276  0.00  0.00    +0.000 A 
ATOM      5 BR   UNL     1       7.096   5.074  13.792  0.00  0.00    +0.000 Br
ATOM      6  C   UNL     1       5.647   3.679  15.802  0.00  0.00    +0.000 A 
ATOM      7  C   UNL     1       4.773   3.574  16.886  0.00  0.00    +0.000 A 
ATOM      8  C   UNL     1       4.164   4.702  17.455  0.00  0.00    +0.000 A 
ENDROOT
BRANCH   8   9
ATOM      9  N   UNL     1       3.267   4.577  18.550  0.00  0.00    +0.000 N 
ATOM     10  C   UNL     1       1.919   4.241  18.482  0.00  0.00    +0.000 C 
ATOM     11  O   UNL     1       1.274   4.118  17.436  0.00  0.00    +0.000 OA
ATOM     12  H   UNL     1       3.610   4.799  19.480  0.00  0.00    +0.000 HD
BRANCH  10  13
ATOM     13  C   UNL     1       1.236   4.031  19.858  0.00  0.00    +0.000 C 
ATOM     14  C   UNL     1       2.095   4.194  21.120  0.00  0.00    +0.000 C 
ATOM     15  C   UNL     1       1.346   2.956  21.602  0.00  0.00    +0.000 C 
ATOM     16  O   UNL     1       0.949   2.638  20.235  0.00  0.00    +0.000 OA
ENDBRANCH  10  13
ENDBRANCH   8   9
TORSDOF 2
ENDMDL
MODEL 2
REMARK VINA RESULT:      -6.2      3.700      6.054
REMARK  Name = 
REMARK  3 active torsions:
REMARK  status: ('A' for Active; 'I' for Inactive)
REMARK    1  A    between atoms: C_1  and  C_2
REMARK    2  A    between atoms: C_8  and  N_9
REMARK    3  A    between atoms: C_10  and  C_12
REMARK                            x       y       z     vdW  Elec       q    Type
REMARK                         _______ _______ _______ _____ _____    ______ ____
ROOT
ATOM      1  C   UNL     1       2.749   6.561  18.279  0.00  0.00    +0.000 C 
ATOM      2  C   UNL     1       2.899   5.096  18.594  0.00  0.00    +0.000 A 
ATOM      3  C   UNL     1       2.273   4.614  19.764  0.00  0.00    +0.000 A 
ATOM      4  C   UNL     1       2.365   3.271  20.120  0.00  0.00    +0.000 A 
ATOM      5 BR   UNL     1       1.547   2.652  21.706  0.00  0.00    +0.000 Br
ATOM      6  C   UNL     1       3.056   2.383  19.312  0.00  0.00    +0.000 A 
ATOM      7  C   UNL     1       3.676   2.850  18.150  0.00  0.00    +0.000 A 
ATOM      8  C   UNL     1       3.628   4.202  17.781  0.00  0.00    +0.000 A 
ENDROOT
BRANCH   8   9
ATOM      9  N   UNL     1       4.274   4.662  16.602  0.00  0.00    +0.000 N 
ATOM     10  C   UNL     1       5.626   4.956  16.459  0.00  0.00    +0.000 C 
ATOM     11  O   UNL     1       6.447   4.971  17.383  0.00  0.00    +0.000 OA
ATOM     12  H   UNL     1       3.703   4.851  15.783  0.00  0.00    +0.000 HD
BRANCH  10  13
ATOM     13  C   UNL     1       6.065   5.290  15.010  0.00  0.00    +0.000 C 
ATOM     14  C   UNL     1       6.050   4.156  13.975  0.00  0.00    +0.000 C 
ATOM     15  C   UNL     1       7.377   4.759  13.525  0.00  0.00    +0.000 C 
ATOM     16  O   UNL     1       7.509   5.467  14.793  0.00  0.00    +0.000 OA
ENDBRANCH  10  13
ENDBRANCH   8   9
TORSDOF 2
ENDMDL
MODEL 3
REMARK VINA RESULT:      -5.9      3.669      6.239
REMARK  Name = 
REMARK  3 active torsions:
REMARK  status: ('A' for Active; 'I' for Inactive)
REMARK    1  A    between atoms: C_1  and  C_2
REMARK    2  A    between atoms: C_8  and  N_9
REMARK    3  A    between atoms: C_10  and  C_12
REMARK                            x       y       z     vdW  Elec       q    Type
REMARK                         _______ _______ _______ _____ _____    ______ ____
ROOT
ATOM      1  C   UNL     1       5.860   4.946  19.119  0.00  0.00    +0.000 C 
ATOM      2  C   UNL     1       4.457   4.497  18.804  0.00  0.00    +0.000 A 
ATOM      3  C   UNL     1       3.668   4.027  19.877  0.00  0.00    +0.000 A 
ATOM      4  C   UNL     1       2.361   3.597  19.666  0.00  0.00    +0.000 A 
ATOM      5 BR   UNL     1       1.332   2.943  21.109  0.00  0.00    +0.000 Br
ATOM      6  C   UNL     1       1.809   3.648  18.396  0.00  0.00    +0.000 A 
ATOM      7  C   UNL     1       2.581   4.114  17.329  0.00  0.00    +0.000 A 
ATOM      8  C   UNL     1       3.910   4.525  17.504  0.00  0.00    +0.000 A 
ENDROOT
BRANCH   8   9
ATOM      9  N   UNL     1       4.684   4.986  16.405  0.00  0.00    +0.000 N 
ATOM     10  C   UNL     1       5.549   4.226  15.625  0.00  0.00    +0.000 C 
ATOM     11  O   UNL     1       5.859   3.051  15.854  0.00  0.00    +0.000 OA
ATOM     12  H   UNL     1       4.659   5.976  16.181  0.00  0.00    +0.000 HD
BRANCH  10  13
ATOM     13  C   UNL     1       6.138   4.971  14.400  0.00  0.00    +0.000 C 
ATOM     14  C   UNL     1       6.525   4.138  13.169  0.00  0.00    +0.000 C 
ATOM     15  C   UNL     1       7.754   5.040  13.138  0.00  0.00    +0.000 C 
ATOM     16  O   UNL     1       7.531   5.428  14.525  0.00  0.00    +0.000 OA
ENDBRANCH  10  13
ENDBRANCH   8   9
TORSDOF 2
ENDMDL
MODEL 4
REMARK VINA RESULT:      -5.8      3.957      5.757
REMARK  Name = 
REMARK  3 active torsions:
REMARK  status: ('A' for Active; 'I' for Inactive)
REMARK    1  A    between atoms: C_1  and  C_2
REMARK    2  A    between atoms: C_8  and  N_9
REMARK    3  A    between atoms: C_10  and  C_12
REMARK                            x       y       z     vdW  Elec       q    Type
REMARK                         _______ _______ _______ _____ _____    ______ ____
ROOT
ATOM      1  C   UNL     1       2.732   7.052  18.538  0.00  0.00    +0.000 C 
ATOM      2  C   UNL     1       2.993   5.580  18.350  0.00  0.00    +0.000 A 
ATOM      3  C   UNL     1       1.924   4.692  18.600  0.00  0.00    +0.000 A 
ATOM      4  C   UNL     1       2.089   3.318  18.444  0.00  0.00    +0.000 A 
ATOM      5 BR   UNL     1       0.656   2.144  18.814  0.00  0.00    +0.000 Br
ATOM      6  C   UNL     1       3.303   2.807  18.017  0.00  0.00    +0.000 A 
ATOM      7  C   UNL     1       4.365   3.678  17.764  0.00  0.00    +0.000 A 
ATOM      8  C   UNL     1       4.241   5.064  17.941  0.00  0.00    +0.000 A 
ENDROOT
BRANCH   8   9
ATOM      9  N   UNL     1       5.335   5.935  17.690  0.00  0.00    +0.000 N 
ATOM     10  C   UNL     1       6.564   5.930  18.341  0.00  0.00    +0.000 C 
ATOM     11  O   UNL     1       6.839   5.234  19.324  0.00  0.00    +0.000 OA
ATOM     12  H   UNL     1       5.213   6.675  17.005  0.00  0.00    +0.000 HD
BRANCH  10  13
ATOM     13  C   UNL     1       7.616   6.899  17.744  0.00  0.00    +0.000 C 
ATOM     14  C   UNL     1       8.401   7.794  18.714  0.00  0.00    +0.000 C 
ATOM     15  C   UNL     1       8.174   8.872  17.659  0.00  0.00    +0.000 C 
ATOM     16  O   UNL     1       7.089   8.096  17.070  0.00  0.00    +0.000 OA
ENDBRANCH  10  13
ENDBRANCH   8   9
TORSDOF 2
ENDMDL
MODEL 5
REMARK VINA RESULT:      -5.8      3.888      5.736
REMARK  Name = 
REMARK  3 active torsions:
REMARK  status: ('A' for Active; 'I' for Inactive)
REMARK    1  A    between atoms: C_1  and  C_2
REMARK    2  A    between atoms: C_8  and  N_9
REMARK    3  A    between atoms: C_10  and  C_12
REMARK                            x       y       z     vdW  Elec       q    Type
REMARK                         _______ _______ _______ _____ _____    ______ ____
ROOT
ATOM      1  C   UNL     1       3.081   7.109  17.983  0.00  0.00    +0.000 C 
ATOM      2  C   UNL     1       3.289   5.648  18.282  0.00  0.00    +0.000 A 
ATOM      3  C   UNL     1       2.138   4.847  18.449  0.00  0.00    +0.000 A 
ATOM      4  C   UNL     1       2.250   3.487  18.724  0.00  0.00    +0.000 A 
ATOM      5 BR   UNL     1       0.698   2.439  18.975  0.00  0.00    +0.000 Br
ATOM      6  C   UNL     1       3.500   2.896  18.816  0.00  0.00    +0.000 A 
ATOM      7  C   UNL     1       4.644   3.680  18.650  0.00  0.00    +0.000 A 
ATOM      8  C   UNL     1       4.565   5.058  18.401  0.00  0.00    +0.000 A 
ENDROOT
BRANCH   8   9
ATOM      9  N   UNL     1       5.740   5.842  18.246  0.00  0.00    +0.000 N 
ATOM     10  C   UNL     1       6.478   6.007  17.079  0.00  0.00    +0.000 C 
ATOM     11  O   UNL     1       6.280   5.391  16.026  0.00  0.00    +0.000 OA
ATOM     12  H   UNL     1       6.127   6.297  19.068  0.00  0.00    +0.000 HD
BRANCH  10  13
ATOM     13  C   UNL     1       7.624   7.046  17.180  0.00  0.00    +0.000 C 
ATOM     14  C   UNL     1       8.225   7.321  18.566  0.00  0.00    +0.000 C 
ATOM     15  C   UNL     1       8.195   8.779  18.118  0.00  0.00    +0.000 C 
ATOM     16  O   UNL     1       7.231   8.459  17.072  0.00  0.00    +0.000 OA
ENDBRANCH  10  13
ENDBRANCH   8   9
TORSDOF 2
ENDMDL
MODEL 6
REMARK VINA RESULT:      -5.8      1.593      1.757
REMARK  Name = 
REMARK  3 active torsions:
REMARK  status: ('A' for Active; 'I' for Inactive)
REMARK    1  A    between atoms: C_1  and  C_2
REMARK    2  A    between atoms: C_8  and  N_9
REMARK    3  A    between atoms: C_10  and  C_12
REMARK                            x       y       z     vdW  Elec       q    Type
REMARK                         _______ _______ _______ _____ _____    ______ ____
ROOT
ATOM      1  C   UNL     1       7.089   5.537  19.066  0.00  0.00    +0.000 C 
ATOM      2  C   UNL     1       6.423   4.989  17.830  0.00  0.00    +0.000 A 
ATOM      3  C   UNL     1       7.094   5.160  16.599  0.00  0.00    +0.000 A 
ATOM      4  C   UNL     1       6.543   4.678  15.415  0.00  0.00    +0.000 A 
ATOM      5 BR   UNL     1       7.440   4.945  13.774  0.00  0.00    +0.000 Br
ATOM      6  C   UNL     1       5.334   4.001  15.435  0.00  0.00    +0.000 A 
ATOM      7  C   UNL     1       4.665   3.824  16.649  0.00  0.00    +0.000 A 
ATOM      8  C   UNL     1       5.179   4.324  17.854  0.00  0.00    +0.000 A 
ENDROOT
BRANCH   8   9
ATOM      9  N   UNL     1       4.479   4.145  19.078  0.00  0.00    +0.000 N 
ATOM     10  C   UNL     1       3.246   4.692  19.414  0.00  0.00    +0.000 C 
ATOM     11  O   UNL     1       2.629   5.517  18.731  0.00  0.00    +0.000 OA
ATOM     12  H   UNL     1       4.929   3.610  19.815  0.00  0.00    +0.000 HD
BRANCH  10  13
ATOM     13  C   UNL     1       2.663   4.193  20.762  0.00  0.00    +0.000 C 
ATOM     14  C   UNL     1       2.750   2.692  21.071  0.00  0.00    +0.000 C 
ATOM     15  C   UNL     1       1.327   2.874  21.589  0.00  0.00    +0.000 C 
ATOM     16  O   UNL     1       1.197   4.125  20.851  0.00  0.00    +0.000 OA
ENDBRANCH  10  13
ENDBRANCH   8   9
TORSDOF 2
ENDMDL
MODEL 7
REMARK VINA RESULT:      -5.8      3.569      5.980
REMARK  Name = 
REMARK  3 active torsions:
REMARK  status: ('A' for Active; 'I' for Inactive)
REMARK    1  A    between atoms: C_1  and  C_2
REMARK    2  A    between atoms: C_8  and  N_9
REMARK    3  A    between atoms: C_10  and  C_12
REMARK                            x       y       z     vdW  Elec       q    Type
REMARK                         _______ _______ _______ _____ _____    ______ ____
ROOT
ATOM      1  C   UNL     1       1.416   4.680  17.190  0.00  0.00    +0.000 C 
ATOM      2  C   UNL     1       2.286   4.014  18.223  0.00  0.00    +0.000 A 
ATOM      3  C   UNL     1       1.670   3.598  19.423  0.00  0.00    +0.000 A 
ATOM      4  C   UNL     1       2.408   2.972  20.424  0.00  0.00    +0.000 A 
ATOM      5 BR   UNL     1       1.571   2.451  22.036  0.00  0.00    +0.000 Br
ATOM      6  C   UNL     1       3.760   2.729  20.242  0.00  0.00    +0.000 A 
ATOM      7  C   UNL     1       4.378   3.134  19.056  0.00  0.00    +0.000 A 
ATOM      8  C   UNL     1       3.668   3.794  18.043  0.00  0.00    +0.000 A 
ENDROOT
BRANCH   8   9
ATOM      9  N   UNL     1       4.316   4.209  16.848  0.00  0.00    +0.000 N 
ATOM     10  C   UNL     1       4.928   5.437  16.622  0.00  0.00    +0.000 C 
ATOM     11  O   UNL     1       4.892   6.398  17.399  0.00  0.00    +0.000 OA
ATOM     12  H   UNL     1       4.298   3.583  16.048  0.00  0.00    +0.000 HD
BRANCH  10  13
ATOM     13  C   UNL     1       5.684   5.544  15.272  0.00  0.00    +0.000 C 
ATOM     14  C   UNL     1       5.740   4.297  14.379  0.00  0.00    +0.000 C 
ATOM     15  C   UNL     1       7.192   4.707  14.161  0.00  0.00    +0.000 C 
ATOM     16  O   UNL     1       7.153   5.551  15.349  0.00  0.00    +0.000 OA
ENDBRANCH  10  13
ENDBRANCH   8   9
TORSDOF 2
ENDMDL
MODEL 8
REMARK VINA RESULT:      -5.7      1.712      2.082
REMARK  Name = 
REMARK  3 active torsions:
REMARK  status: ('A' for Active; 'I' for Inactive)
REMARK    1  A    between atoms: C_1  and  C_2
REMARK    2  A    between atoms: C_8  and  N_9
REMARK    3  A    between atoms: C_10  and  C_12
REMARK                            x       y       z     vdW  Elec       q    Type
REMARK                         _______ _______ _______ _____ _____    ______ ____
ROOT
ATOM      1  C   UNL     1       7.290   5.102  18.178  0.00  0.00    +0.000 C 
ATOM      2  C   UNL     1       6.709   4.745  16.835  0.00  0.00    +0.000 A 
ATOM      3  C   UNL     1       7.438   5.126  15.687  0.00  0.00    +0.000 A 
ATOM      4  C   UNL     1       6.967   4.827  14.412  0.00  0.00    +0.000 A 
ATOM      5 BR   UNL     1       7.942   5.374  12.888  0.00  0.00    +0.000 Br
ATOM      6  C   UNL     1       5.781   4.128  14.255  0.00  0.00    +0.000 A 
ATOM      7  C   UNL     1       5.055   3.744  15.384  0.00  0.00    +0.000 A 
ATOM      8  C   UNL     1       5.487   4.056  16.681  0.00  0.00    +0.000 A 
ENDROOT
BRANCH   8   9
ATOM      9  N   UNL     1       4.729   3.668  17.818  0.00  0.00    +0.000 N 
ATOM     10  C   UNL     1       3.561   4.265  18.279  0.00  0.00    +0.000 C 
ATOM     11  O   UNL     1       3.074   5.307  17.825  0.00  0.00    +0.000 OA
ATOM     12  H   UNL     1       5.084   2.912  18.398  0.00  0.00    +0.000 HD
BRANCH  10  13
ATOM     13  C   UNL     1       2.876   3.524  19.456  0.00  0.00    +0.000 C 
ATOM     14  C   UNL     1       1.365   3.267  19.362  0.00  0.00    +0.000 C 
ATOM     15  C   UNL     1       1.362   3.669  20.833  0.00  0.00    +0.000 C 
ATOM     16  O   UNL     1       2.665   4.307  20.683  0.00  0.00    +0.000 OA
ENDBRANCH  10  13
ENDBRANCH   8   9
TORSDOF 2
ENDMDL
MODEL 9
REMARK VINA RESULT:      -5.7      1.703      2.023
REMARK  Name = 
REMARK  3 active torsions:
REMARK  status: ('A' for Active; 'I' for Inactive)
REMARK    1  A    between atoms: C_1  and  C_2
REMARK    2  A    between atoms: C_8  and  N_9
REMARK    3  A    between atoms: C_10  and  C_12
REMARK                            x       y       z     vdW  Elec       q    Type
REMARK                         _______ _______ _______ _____ _____    ______ ____
ROOT
ATOM      1  C   UNL     1       2.877   3.389  16.745  0.00  0.00    +0.000 C 
ATOM      2  C   UNL     1       4.283   3.905  16.898  0.00  0.00    +0.000 A 
ATOM      3  C   UNL     1       5.023   4.138  15.718  0.00  0.00    +0.000 A 
ATOM      4  C   UNL     1       6.328   4.618  15.778  0.00  0.00    +0.000 A 
ATOM      5 BR   UNL     1       7.312   4.894  14.189  0.00  0.00    +0.000 Br
ATOM      6  C   UNL     1       6.912   4.895  17.004  0.00  0.00    +0.000 A 
ATOM      7  C   UNL     1       6.187   4.670  18.177  0.00  0.00    +0.000 A 
ATOM      8  C   UNL     1       4.881   4.159  18.150  0.00  0.00    +0.000 A 
ENDROOT
BRANCH   8   9
ATOM      9  N   UNL     1       4.162   3.926  19.354  0.00  0.00    +0.000 N 
ATOM     10  C   UNL     1       3.235   4.778  19.943  0.00  0.00    +0.000 C 
ATOM     11  O   UNL     1       2.989   5.927  19.561  0.00  0.00    +0.000 OA
ATOM     12  H   UNL     1       4.366   3.081  19.880  0.00  0.00    +0.000 HD
BRANCH  10  13
ATOM     13  C   UNL     1       2.500   4.184  21.172  0.00  0.00    +0.000 C 
ATOM     14  C   UNL     1       2.758   2.711  21.521  0.00  0.00    +0.000 C 
ATOM     15  C   UNL     1       1.254   2.666  21.768  0.00  0.00    +0.000 C 
ATOM     16  O   UNL     1       1.070   3.888  20.994  0.00  0.00    +0.000 OA
ENDBRANCH  10  13
ENDBRANCH   8   9
TORSDOF 2
ENDMDL
