MODEL 1
REMARK VINA RESULT:      -7.9      0.000      0.000
REMARK  Name = 
REMARK  1 active torsions:
REMARK  status: ('A' for Active; 'I' for Inactive)
REMARK    1  A    between atoms: C_6  and  O_7
REMARK                            x       y       z     vdW  Elec       q    Type
REMARK                         _______ _______ _______ _____ _____    ______ ____
ROOT
ATOM      1  N   UNL     1       2.876   7.672  18.439  0.00  0.00    +0.000 NA
ATOM      2  C   UNL     1       3.510   6.726  17.830  0.00  0.00    +0.000 A 
ATOM      3  N   UNL     1       4.562   6.998  16.987  0.00  0.00    +0.000 N 
ATOM      4  C   UNL     1       5.144   5.983  16.190  0.00  0.00    +0.000 A 
ATOM      5  C   UNL     1       6.293   6.256  15.433  0.00  0.00    +0.000 A 
ATOM      6  C   UNL     1       6.938   5.221  14.759  0.00  0.00    +0.000 A 
ATOM      7  C   UNL     1       6.455   3.917  14.815  0.00  0.00    +0.000 A 
ATOM      8  C   UNL     1       5.335   3.620  15.589  0.00  0.00    +0.000 A 
ATOM      9  C   UNL     1       4.701   4.643  16.302  0.00  0.00    +0.000 A 
ATOM     10  N   UNL     1       3.684   4.361  17.257  0.00  0.00    +0.000 N 
ATOM     11  C   UNL     1       3.154   3.133  17.596  0.00  0.00    +0.000 A 
ATOM     12  C   UNL     1       2.400   3.318  18.725  0.00  0.00    +0.000 A 
ATOM     13  C   UNL     1       1.779   2.328  19.473  0.00  0.00    +0.000 A 
ATOM     14  F   UNL     1       1.747   1.033  19.145  0.00  0.00    +0.000 F 
ATOM     15  C   UNL     1       1.203   2.825  20.653  0.00  0.00    +0.000 A 
ATOM     16  C   UNL     1       1.261   4.212  21.024  0.00  0.00    +0.000 A 
ATOM     17  C   UNL     1       1.863   5.227  20.232  0.00  0.00    +0.000 A 
ATOM     18  C   UNL     1       2.429   4.703  19.067  0.00  0.00    +0.000 A 
ATOM     19  C   UNL     1       3.149   5.354  18.084  0.00  0.00    +0.000 A 
ATOM     20  H   UNL     1       3.224   8.581  18.167  0.00  0.00    +0.000 HD
ATOM     21  H   UNL     1       4.755   7.955  16.719  0.00  0.00    +0.000 HD
ENDROOT
BRANCH   6  22
ATOM     22  O   UNL     1       8.076   5.431  14.039  0.00  0.00    +0.000 OA
ATOM     23  H   UNL     1       8.824   5.578  14.639  0.00  0.00    +0.000 HD
ENDBRANCH   6  22
TORSDOF 1
ENDMDL
MODEL 2
REMARK VINA RESULT:      -7.5      3.116      6.195
REMARK  Name = 
REMARK  1 active torsions:
REMARK  status: ('A' for Active; 'I' for Inactive)
REMARK    1  A    between atoms: C_6  and  O_7
REMARK                            x       y       z     vdW  Elec       q    Type
REMARK                         _______ _______ _______ _____ _____    ______ ____
ROOT
ATOM      1  N   UNL     1       7.804   6.677  16.803  0.00  0.00    +0.000 NA
ATOM      2  C   UNL     1       6.694   6.020  16.856  0.00  0.00    +0.000 A 
ATOM      3  N   UNL     1       5.808   6.198  17.894  0.00  0.00    +0.000 N 
ATOM      4  C   UNL     1       4.677   5.359  18.043  0.00  0.00    +0.000 A 
ATOM      5  C   UNL     1       3.724   5.635  19.033  0.00  0.00    +0.000 A 
ATOM      6  C   UNL     1       2.549   4.888  19.088  0.00  0.00    +0.000 A 
ATOM      7  C   UNL     1       2.308   3.861  18.181  0.00  0.00    +0.000 A 
ATOM      8  C   UNL     1       3.228   3.594  17.169  0.00  0.00    +0.000 A 
ATOM      9  C   UNL     1       4.394   4.362  17.079  0.00  0.00    +0.000 A 
ATOM     10  N   UNL     1       5.263   4.263  15.955  0.00  0.00    +0.000 N 
ATOM     11  C   UNL     1       5.144   3.430  14.861  0.00  0.00    +0.000 A 
ATOM     12  C   UNL     1       6.051   3.860  13.930  0.00  0.00    +0.000 A 
ATOM     13  C   UNL     1       6.194   3.380  12.635  0.00  0.00    +0.000 A 
ATOM     14  F   UNL     1       5.515   2.348  12.127  0.00  0.00    +0.000 F 
ATOM     15  C   UNL     1       7.116   4.124  11.882  0.00  0.00    +0.000 A 
ATOM     16  C   UNL     1       7.826   5.254  12.416  0.00  0.00    +0.000 A 
ATOM     17  C   UNL     1       7.706   5.714  13.756  0.00  0.00    +0.000 A 
ATOM     18  C   UNL     1       6.780   4.956  14.479  0.00  0.00    +0.000 A 
ATOM     19  C   UNL     1       6.346   5.128  15.779  0.00  0.00    +0.000 A 
ATOM     20  H   UNL     1       7.927   7.258  17.620  0.00  0.00    +0.000 HD
ATOM     21  H   UNL     1       6.087   6.736  18.704  0.00  0.00    +0.000 HD
ENDROOT
BRANCH   6  22
ATOM     22  O   UNL     1       1.578   5.143  20.010  0.00  0.00    +0.000 OA
ATOM     23  H   UNL     1       0.714   5.197  19.573  0.00  0.00    +0.000 HD
ENDBRANCH   6  22
TORSDOF 1
ENDMDL
MODEL 3
REMARK VINA RESULT:      -7.5      3.217      5.007
REMARK  Name = 
REMARK  1 active torsions:
REMARK  status: ('A' for Active; 'I' for Inactive)
REMARK    1  A    between atoms: C_6  and  O_7
REMARK                            x       y       z     vdW  Elec       q    Type
REMARK                         _______ _______ _______ _____ _____    ______ ____
ROOT
ATOM      1  N   UNL     1       4.593   5.792  16.807  0.00  0.00    +0.000 NA
ATOM      2  C   UNL     1       3.724   6.391  17.549  0.00  0.00    +0.000 A 
ATOM      3  N   UNL     1       3.375   7.703  17.323  0.00  0.00    +0.000 N 
ATOM      4  C   UNL     1       2.555   8.410  18.236  0.00  0.00    +0.000 A 
ATOM      5  C   UNL     1       2.110   9.703  17.924  0.00  0.00    +0.000 A 
ATOM      6  C   UNL     1       1.197  10.340  18.762  0.00  0.00    +0.000 A 
ATOM      7  C   UNL     1       0.724   9.718  19.913  0.00  0.00    +0.000 A 
ATOM      8  C   UNL     1       1.127   8.420  20.221  0.00  0.00    +0.000 A 
ATOM      9  C   UNL     1       2.014   7.755  19.368  0.00  0.00    +0.000 A 
ATOM     10  N   UNL     1       2.299   6.369  19.529  0.00  0.00    +0.000 N 
ATOM     11  C   UNL     1       1.824   5.512  20.501  0.00  0.00    +0.000 A 
ATOM     12  C   UNL     1       2.156   4.241  20.111  0.00  0.00    +0.000 A 
ATOM     13  C   UNL     1       1.775   3.062  20.736  0.00  0.00    +0.000 A 
ATOM     14  F   UNL     1       1.091   2.993  21.881  0.00  0.00    +0.000 F 
ATOM     15  C   UNL     1       2.156   1.921  20.012  0.00  0.00    +0.000 A 
ATOM     16  C   UNL     1       2.865   1.990  18.764  0.00  0.00    +0.000 A 
ATOM     17  C   UNL     1       3.289   3.201  18.151  0.00  0.00    +0.000 A 
ATOM     18  C   UNL     1       2.894   4.318  18.893  0.00  0.00    +0.000 A 
ATOM     19  C   UNL     1       3.062   5.658  18.599  0.00  0.00    +0.000 A 
ATOM     20  H   UNL     1       4.984   6.420  16.118  0.00  0.00    +0.000 HD
ATOM     21  H   UNL     1       3.906   8.256  16.664  0.00  0.00    +0.000 HD
ENDROOT
BRANCH   6  22
ATOM     22  O   UNL     1       0.710  11.582  18.482  0.00  0.00    +0.000 OA
ATOM     23  H   UNL     1      -0.105  11.508  17.962  0.00  0.00    +0.000 HD
ENDBRANCH   6  22
TORSDOF 1
ENDMDL
MODEL 4
REMARK VINA RESULT:      -7.3      4.248      6.426
REMARK  Name = 
REMARK  1 active torsions:
REMARK  status: ('A' for Active; 'I' for Inactive)
REMARK    1  A    between atoms: C_6  and  O_7
REMARK                            x       y       z     vdW  Elec       q    Type
REMARK                         _______ _______ _______ _____ _____    ______ ____
ROOT
ATOM      1  N   UNL     1       2.287   5.173  21.149  0.00  0.00    +0.000 NA
ATOM      2  C   UNL     1       2.193   6.297  20.521  0.00  0.00    +0.000 A 
ATOM      3  N   UNL     1       1.512   7.364  21.061  0.00  0.00    +0.000 N 
ATOM      4  C   UNL     1       1.264   8.534  20.303  0.00  0.00    +0.000 A 
ATOM      5  C   UNL     1       0.679   9.653  20.913  0.00  0.00    +0.000 A 
ATOM      6  C   UNL     1       0.560  10.844  20.199  0.00  0.00    +0.000 A 
ATOM      7  C   UNL     1       1.003  10.940  18.884  0.00  0.00    +0.000 A 
ATOM      8  C   UNL     1       1.618   9.849  18.273  0.00  0.00    +0.000 A 
ATOM      9  C   UNL     1       1.778   8.660  18.991  0.00  0.00    +0.000 A 
ATOM     10  N   UNL     1       2.571   7.590  18.487  0.00  0.00    +0.000 N 
ATOM     11  C   UNL     1       3.237   7.522  17.280  0.00  0.00    +0.000 A 
ATOM     12  C   UNL     1       4.064   6.431  17.338  0.00  0.00    +0.000 A 
ATOM     13  C   UNL     1       4.999   6.054  16.384  0.00  0.00    +0.000 A 
ATOM     14  F   UNL     1       5.170   6.658  15.205  0.00  0.00    +0.000 F 
ATOM     15  C   UNL     1       5.789   4.972  16.803  0.00  0.00    +0.000 A 
ATOM     16  C   UNL     1       5.628   4.338  18.083  0.00  0.00    +0.000 A 
ATOM     17  C   UNL     1       4.641   4.704  19.038  0.00  0.00    +0.000 A 
ATOM     18  C   UNL     1       3.871   5.783  18.594  0.00  0.00    +0.000 A 
ATOM     19  C   UNL     1       2.864   6.459  19.255  0.00  0.00    +0.000 A 
ATOM     20  H   UNL     1       1.767   5.192  22.015  0.00  0.00    +0.000 HD
ATOM     21  H   UNL     1       0.951   7.230  21.892  0.00  0.00    +0.000 HD
ENDROOT
BRANCH   6  22
ATOM     22  O   UNL     1       0.030  11.968  20.759  0.00  0.00    +0.000 OA
ATOM     23  H   UNL     1      -0.275  11.775  21.660  0.00  0.00    +0.000 HD
ENDBRANCH   6  22
TORSDOF 1
ENDMDL
MODEL 5
REMARK VINA RESULT:      -7.3      3.562      5.583
REMARK  Name = 
REMARK  1 active torsions:
REMARK  status: ('A' for Active; 'I' for Inactive)
REMARK    1  A    between atoms: C_6  and  O_7
REMARK                            x       y       z     vdW  Elec       q    Type
REMARK                         _______ _______ _______ _____ _____    ______ ____
ROOT
ATOM      1  N   UNL     1       4.148   6.969  16.887  0.00  0.00    +0.000 NA
ATOM      2  C   UNL     1       3.307   7.189  17.841  0.00  0.00    +0.000 A 
ATOM      3  N   UNL     1       2.691   8.411  17.984  0.00  0.00    +0.000 N 
ATOM      4  C   UNL     1       1.904   8.706  19.124  0.00  0.00    +0.000 A 
ATOM      5  C   UNL     1       1.187   9.909  19.189  0.00  0.00    +0.000 A 
ATOM      6  C   UNL     1       0.310  10.134  20.249  0.00  0.00    +0.000 A 
ATOM      7  C   UNL     1       0.141   9.187  21.253  0.00  0.00    +0.000 A 
ATOM      8  C   UNL     1       0.819   7.970  21.188  0.00  0.00    +0.000 A 
ATOM      9  C   UNL     1       1.672   7.717  20.109  0.00  0.00    +0.000 A 
ATOM     10  N   UNL     1       2.230   6.424  19.892  0.00  0.00    +0.000 N 
ATOM     11  C   UNL     1       2.074   5.292  20.665  0.00  0.00    +0.000 A 
ATOM     12  C   UNL     1       2.572   4.241  19.942  0.00  0.00    +0.000 A 
ATOM     13  C   UNL     1       2.514   2.899  20.292  0.00  0.00    +0.000 A 
ATOM     14  F   UNL     1       2.038   2.434  21.450  0.00  0.00    +0.000 F 
ATOM     15  C   UNL     1       2.984   2.055  19.273  0.00  0.00    +0.000 A 
ATOM     16  C   UNL     1       3.469   2.550  18.013  0.00  0.00    +0.000 A 
ATOM     17  C   UNL     1       3.564   3.928  17.678  0.00  0.00    +0.000 A 
ATOM     18  C   UNL     1       3.088   4.742  18.710  0.00  0.00    +0.000 A 
ATOM     19  C   UNL     1       2.959   6.117  18.740  0.00  0.00    +0.000 A 
ATOM     20  H   UNL     1       4.306   7.803  16.338  0.00  0.00    +0.000 HD
ATOM     21  H   UNL     1       3.004   9.198  17.430  0.00  0.00    +0.000 HD
ENDROOT
BRANCH   6  22
ATOM     22  O   UNL     1      -0.434  11.272  20.337  0.00  0.00    +0.000 OA
ATOM     23  H   UNL     1      -1.199  11.214  19.743  0.00  0.00    +0.000 HD
ENDBRANCH   6  22
TORSDOF 1
ENDMDL
MODEL 6
REMARK VINA RESULT:      -7.3      4.269      5.796
REMARK  Name = 
REMARK  1 active torsions:
REMARK  status: ('A' for Active; 'I' for Inactive)
REMARK    1  A    between atoms: C_6  and  O_7
REMARK                            x       y       z     vdW  Elec       q    Type
REMARK                         _______ _______ _______ _____ _____    ______ ____
ROOT
ATOM      1  N   UNL     1       1.853  10.081  17.357  0.00  0.00    +0.000 NA
ATOM      2  C   UNL     1       2.080   9.044  18.092  0.00  0.00    +0.000 A 
ATOM      3  N   UNL     1       2.930   8.045  17.675  0.00  0.00    +0.000 N 
ATOM      4  C   UNL     1       3.046   6.834  18.399  0.00  0.00    +0.000 A 
ATOM      5  C   UNL     1       4.008   5.883  18.026  0.00  0.00    +0.000 A 
ATOM      6  C   UNL     1       4.209   4.756  18.821  0.00  0.00    +0.000 A 
ATOM      7  C   UNL     1       3.462   4.550  19.976  0.00  0.00    +0.000 A 
ATOM      8  C   UNL     1       2.526   5.501  20.381  0.00  0.00    +0.000 A 
ATOM      9  C   UNL     1       2.342   6.655  19.613  0.00  0.00    +0.000 A 
ATOM     10  N   UNL     1       1.550   7.741  20.084  0.00  0.00    +0.000 N 
ATOM     11  C   UNL     1       0.845   7.827  21.267  0.00  0.00    +0.000 A 
ATOM     12  C   UNL     1       0.453   9.132  21.407  0.00  0.00    +0.000 A 
ATOM     13  C   UNL     1      -0.183   9.688  22.508  0.00  0.00    +0.000 A 
ATOM     14  F   UNL     1      -0.595   9.001  23.577  0.00  0.00    +0.000 F 
ATOM     15  C   UNL     1      -0.322  11.081  22.403  0.00  0.00    +0.000 A 
ATOM     16  C   UNL     1       0.148  11.829  21.269  0.00  0.00    +0.000 A 
ATOM     17  C   UNL     1       0.761  11.246  20.126  0.00  0.00    +0.000 A 
ATOM     18  C   UNL     1       0.887   9.861  20.260  0.00  0.00    +0.000 A 
ATOM     19  C   UNL     1       1.479   8.957  19.399  0.00  0.00    +0.000 A 
ATOM     20  H   UNL     1       2.327  10.012  16.467  0.00  0.00    +0.000 HD
ATOM     21  H   UNL     1       3.271   8.042  16.722  0.00  0.00    +0.000 HD
ENDROOT
BRANCH   6  22
ATOM     22  O   UNL     1       5.155   3.823  18.518  0.00  0.00    +0.000 OA
ATOM     23  H   UNL     1       4.797   2.933  18.660  0.00  0.00    +0.000 HD
ENDBRANCH   6  22
TORSDOF 1
ENDMDL
MODEL 7
REMARK VINA RESULT:      -7.2      2.526      3.644
REMARK  Name = 
REMARK  1 active torsions:
REMARK  status: ('A' for Active; 'I' for Inactive)
REMARK    1  A    between atoms: C_6  and  O_7
REMARK                            x       y       z     vdW  Elec       q    Type
REMARK                         _______ _______ _______ _____ _____    ______ ____
ROOT
ATOM      1  N   UNL     1       3.937   3.265  20.148  0.00  0.00    +0.000 NA
ATOM      2  C   UNL     1       4.161   3.881  19.036  0.00  0.00    +0.000 A 
ATOM      3  N   UNL     1       4.790   3.253  17.985  0.00  0.00    +0.000 N 
ATOM      4  C   UNL     1       5.188   3.975  16.833  0.00  0.00    +0.000 A 
ATOM      5  C   UNL     1       5.714   3.294  15.726  0.00  0.00    +0.000 A 
ATOM      6  C   UNL     1       5.978   3.992  14.548  0.00  0.00    +0.000 A 
ATOM      7  C   UNL     1       5.738   5.358  14.454  0.00  0.00    +0.000 A 
ATOM      8  C   UNL     1       5.183   6.045  15.533  0.00  0.00    +0.000 A 
ATOM      9  C   UNL     1       4.878   5.350  16.707  0.00  0.00    +0.000 A 
ATOM     10  N   UNL     1       4.133   5.958  17.757  0.00  0.00    +0.000 N 
ATOM     11  C   UNL     1       3.652   7.250  17.819  0.00  0.00    +0.000 A 
ATOM     12  C   UNL     1       2.789   7.307  18.881  0.00  0.00    +0.000 A 
ATOM     13  C   UNL     1       1.993   8.386  19.240  0.00  0.00    +0.000 A 
ATOM     14  F   UNL     1       2.019   9.582  18.646  0.00  0.00    +0.000 F 
ATOM     15  C   UNL     1       1.113   8.081  20.291  0.00  0.00    +0.000 A 
ATOM     16  C   UNL     1       1.061   6.787  20.913  0.00  0.00    +0.000 A 
ATOM     17  C   UNL     1       1.908   5.699  20.568  0.00  0.00    +0.000 A 
ATOM     18  C   UNL     1       2.771   6.031  19.519  0.00  0.00    +0.000 A 
ATOM     19  C   UNL     1       3.691   5.233  18.868  0.00  0.00    +0.000 A 
ATOM     20  H   UNL     1       4.323   2.331  20.134  0.00  0.00    +0.000 HD
ATOM     21  H   UNL     1       5.217   2.347  18.126  0.00  0.00    +0.000 HD
ENDROOT
BRANCH   6  22
ATOM     22  O   UNL     1       6.457   3.367  13.435  0.00  0.00    +0.000 OA
ATOM     23  H   UNL     1       7.125   3.924  13.007  0.00  0.00    +0.000 HD
ENDBRANCH   6  22
TORSDOF 1
ENDMDL
MODEL 8
REMARK VINA RESULT:      -7.1      1.817      2.026
REMARK  Name = 
REMARK  1 active torsions:
REMARK  status: ('A' for Active; 'I' for Inactive)
REMARK    1  A    between atoms: C_6  and  O_7
REMARK                            x       y       z     vdW  Elec       q    Type
REMARK                         _______ _______ _______ _____ _____    ______ ____
ROOT
ATOM      1  N   UNL     1       6.489   5.157  19.829  0.00  0.00    +0.000 NA
ATOM      2  C   UNL     1       6.089   4.850  18.641  0.00  0.00    +0.000 A 
ATOM      3  N   UNL     1       6.912   5.003  17.548  0.00  0.00    +0.000 N 
ATOM      4  C   UNL     1       6.421   4.830  16.232  0.00  0.00    +0.000 A 
ATOM      5  C   UNL     1       7.303   4.868  15.142  0.00  0.00    +0.000 A 
ATOM      6  C   UNL     1       6.837   4.565  13.865  0.00  0.00    +0.000 A 
ATOM      7  C   UNL     1       5.503   4.234  13.647  0.00  0.00    +0.000 A 
ATOM      8  C   UNL     1       4.619   4.157  14.722  0.00  0.00    +0.000 A 
ATOM      9  C   UNL     1       5.083   4.422  16.014  0.00  0.00    +0.000 A 
ATOM     10  N   UNL     1       4.276   4.165  17.160  0.00  0.00    +0.000 N 
ATOM     11  C   UNL     1       2.982   3.687  17.196  0.00  0.00    +0.000 A 
ATOM     12  C   UNL     1       2.713   3.359  18.499  0.00  0.00    +0.000 A 
ATOM     13  C   UNL     1       1.566   2.736  18.971  0.00  0.00    +0.000 A 
ATOM     14  F   UNL     1       0.498   2.440  18.226  0.00  0.00    +0.000 F 
ATOM     15  C   UNL     1       1.653   2.407  20.334  0.00  0.00    +0.000 A 
ATOM     16  C   UNL     1       2.813   2.696  21.132  0.00  0.00    +0.000 A 
ATOM     17  C   UNL     1       3.967   3.373  20.651  0.00  0.00    +0.000 A 
ATOM     18  C   UNL     1       3.851   3.685  19.293  0.00  0.00    +0.000 A 
ATOM     19  C   UNL     1       4.778   4.280  18.459  0.00  0.00    +0.000 A 
ATOM     20  H   UNL     1       7.420   5.550  19.814  0.00  0.00    +0.000 HD
ATOM     21  H   UNL     1       7.789   5.498  17.647  0.00  0.00    +0.000 HD
ENDROOT
BRANCH   6  22
ATOM     22  O   UNL     1       7.664   4.556  12.781  0.00  0.00    +0.000 OA
ATOM     23  H   UNL     1       8.474   5.049  12.981  0.00  0.00    +0.000 HD
ENDBRANCH   6  22
TORSDOF 1
ENDMDL
MODEL 9
REMARK VINA RESULT:      -7.1      5.480      7.792
REMARK  Name = 
REMARK  1 active torsions:
REMARK  status: ('A' for Active; 'I' for Inactive)
REMARK    1  A    between atoms: C_6  and  O_7
REMARK                            x       y       z     vdW  Elec       q    Type
REMARK                         _______ _______ _______ _____ _____    ______ ____
ROOT
ATOM      1  N   UNL     1       1.935  10.403  17.546  0.00  0.00    +0.000 NA
ATOM      2  C   UNL     1       1.358  10.239  18.690  0.00  0.00    +0.000 A 
ATOM      3  N   UNL     1       0.522  11.199  19.212  0.00  0.00    +0.000 N 
ATOM      4  C   UNL     1       0.027  11.097  20.535  0.00  0.00    +0.000 A 
ATOM      5  C   UNL     1      -0.920  12.019  21.002  0.00  0.00    +0.000 A 
ATOM      6  C   UNL     1      -1.502  11.836  22.255  0.00  0.00    +0.000 A 
ATOM      7  C   UNL     1      -1.151  10.757  23.059  0.00  0.00    +0.000 A 
ATOM      8  C   UNL     1      -0.237   9.811  22.597  0.00  0.00    +0.000 A 
ATOM      9  C   UNL     1       0.326   9.963  21.326  0.00  0.00    +0.000 A 
ATOM     10  N   UNL     1       1.105   8.929  20.732  0.00  0.00    +0.000 N 
ATOM     11  C   UNL     1       1.453   7.709  21.275  0.00  0.00    +0.000 A 
ATOM     12  C   UNL     1       1.979   6.954  20.260  0.00  0.00    +0.000 A 
ATOM     13  C   UNL     1       2.354   5.619  20.335  0.00  0.00    +0.000 A 
ATOM     14  F   UNL     1       2.341   4.887  21.452  0.00  0.00    +0.000 F 
ATOM     15  C   UNL     1       2.722   5.092  19.087  0.00  0.00    +0.000 A 
ATOM     16  C   UNL     1       2.708   5.869  17.878  0.00  0.00    +0.000 A 
ATOM     17  C   UNL     1       2.362   7.246  17.816  0.00  0.00    +0.000 A 
ATOM     18  C   UNL     1       1.999   7.742  19.071  0.00  0.00    +0.000 A 
ATOM     19  C   UNL     1       1.546   9.003  19.407  0.00  0.00    +0.000 A 
ATOM     20  H   UNL     1       1.726  11.311  17.156  0.00  0.00    +0.000 HD
ATOM     21  H   UNL     1       0.467  12.108  18.772  0.00  0.00    +0.000 HD
ENDROOT
BRANCH   6  22
ATOM     22  O   UNL     1      -2.453  12.686  22.737  0.00  0.00    +0.000 OA
ATOM     23  H   UNL     1      -3.334  12.382  22.469  0.00  0.00    +0.000 HD
ENDBRANCH   6  22
TORSDOF 1
ENDMDL
