MODEL 1
REMARK VINA RESULT:      -7.4      0.000      0.000
REMARK  Name = 
REMARK  9 active torsions:
REMARK  status: ('A' for Active; 'I' for Inactive)
REMARK    1  A    between atoms: C_1  and  O_2
REMARK    2  A    between atoms: O_2  and  C_3
REMARK    3  A    between atoms: N_11  and  C_12
REMARK    4  A    between atoms: C_15  and  S_16
REMARK    5  A    between atoms: S_16  and  N_19
REMARK    6  A    between atoms: N_19  and  C_20
REMARK    7  A    between atoms: N_19  and  C_21
REMARK    8  A    between atoms: C_26  and  O_27
REMARK    9  A    between atoms: O_27  and  C_28
REMARK                            x       y       z     vdW  Elec       q    Type
REMARK                         _______ _______ _______ _____ _____    ______ ____
ROOT
ATOM      1  C   UNL     1      -2.946  11.419  18.171  0.00  0.00    +0.000 A 
ATOM      2  C   UNL     1      -2.422  11.290  19.467  0.00  0.00    +0.000 A 
ATOM      3  C   UNL     1      -1.197  10.680  19.709  0.00  0.00    +0.000 A 
ATOM      4  N   UNL     1      -0.773  10.542  20.968  0.00  0.00    +0.000 NA
ATOM      5  C   UNL     1       0.387   9.905  21.132  0.00  0.00    +0.000 A 
ATOM      6 CL   UNL     1       0.924   9.688  22.736  0.00  0.00    +0.000 Cl
ATOM      7  N   UNL     1       1.166   9.390  20.178  0.00  0.00    +0.000 NA
ATOM      8  C   UNL     1       0.732   9.540  18.915  0.00  0.00    +0.000 A 
ATOM      9  N   UNL     1       1.502   8.982  17.858  0.00  0.00    +0.000 N 
ATOM     10  C   UNL     1      -0.464  10.207  18.612  0.00  0.00    +0.000 A 
ATOM     11  C   UNL     1      -0.964  10.373  17.300  0.00  0.00    +0.000 A 
ATOM     12  C   UNL     1      -2.200  10.974  17.073  0.00  0.00    +0.000 A 
ATOM     13  H   UNL     1       1.914   9.730  17.309  0.00  0.00    +0.000 HD
ENDROOT
BRANCH   9  14
ATOM     14  C   UNL     1       2.344   7.857  17.986  0.00  0.00    +0.000 A 
ATOM     15  C   UNL     1       3.627   7.853  17.416  0.00  0.00    +0.000 A 
ATOM     16  C   UNL     1       4.439   6.723  17.467  0.00  0.00    +0.000 A 
ATOM     17  C   UNL     1       3.990   5.594  18.142  0.00  0.00    +0.000 A 
ATOM     18  C   UNL     1       2.758   5.607  18.808  0.00  0.00    +0.000 A 
ATOM     19  C   UNL     1       1.947   6.747  18.744  0.00  0.00    +0.000 A 
BRANCH  17  20
ATOM     20  S   UNL     1       4.927   4.083  18.014  0.00  0.00    +0.000 S 
ATOM     21  O   UNL     1       5.496   3.827  19.324  0.00  0.00    +0.000 OA
ATOM     22  O   UNL     1       4.092   3.103  17.359  0.00  0.00    +0.000 OA
BRANCH  20  23
ATOM     23  N   UNL     1       6.199   4.497  16.964  0.00  0.00    +0.000 NA
ATOM     24  C   UNL     1       7.550   4.563  17.541  0.00  0.00    +0.000 C 
ATOM     25  C   UNL     1       6.162   3.874  15.631  0.00  0.00    +0.000 C 
ENDBRANCH  20  23
ENDBRANCH  17  20
ENDBRANCH   9  14
BRANCH   1  27
ATOM     26  C   UNL     1      -5.294  11.144  18.332  0.00  0.00    +0.000 C 
ATOM     27  O   UNL     1      -4.183  12.012  18.122  0.00  0.00    +0.000 OA
ENDBRANCH   1  27
BRANCH  12  28
ATOM     28  O   UNL     1      -2.661  11.224  15.812  0.00  0.00    +0.000 OA
ATOM     29  C   UNL     1      -3.312  10.143  15.151  0.00  0.00    +0.000 C 
ENDBRANCH  12  28
TORSDOF 5
ENDMDL
MODEL 2
REMARK VINA RESULT:      -7.4      1.273      1.700
REMARK  Name = 
REMARK  9 active torsions:
REMARK  status: ('A' for Active; 'I' for Inactive)
REMARK    1  A    between atoms: C_1  and  O_2
REMARK    2  A    between atoms: O_2  and  C_3
REMARK    3  A    between atoms: N_11  and  C_12
REMARK    4  A    between atoms: C_15  and  S_16
REMARK    5  A    between atoms: S_16  and  N_19
REMARK    6  A    between atoms: N_19  and  C_20
REMARK    7  A    between atoms: N_19  and  C_21
REMARK    8  A    between atoms: C_26  and  O_27
REMARK    9  A    between atoms: O_27  and  C_28
REMARK                            x       y       z     vdW  Elec       q    Type
REMARK                         _______ _______ _______ _____ _____    ______ ____
ROOT
ATOM      1  C   UNL     1      -2.970  11.406  18.130  0.00  0.00    +0.000 A 
ATOM      2  C   UNL     1      -2.442  11.314  19.427  0.00  0.00    +0.000 A 
ATOM      3  C   UNL     1      -1.216  10.712  19.684  0.00  0.00    +0.000 A 
ATOM      4  N   UNL     1      -0.789  10.611  20.945  0.00  0.00    +0.000 NA
ATOM      5  C   UNL     1       0.373   9.979  21.123  0.00  0.00    +0.000 A 
ATOM      6 CL   UNL     1       0.915   9.808  22.731  0.00  0.00    +0.000 Cl
ATOM      7  N   UNL     1       1.149   9.437  20.182  0.00  0.00    +0.000 NA
ATOM      8  C   UNL     1       0.711   9.550  18.917  0.00  0.00    +0.000 A 
ATOM      9  N   UNL     1       1.479   8.962  17.874  0.00  0.00    +0.000 N 
ATOM     10  C   UNL     1      -0.486  10.208  18.599  0.00  0.00    +0.000 A 
ATOM     11  C   UNL     1      -0.990  10.336  17.284  0.00  0.00    +0.000 A 
ATOM     12  C   UNL     1      -2.227  10.930  17.043  0.00  0.00    +0.000 A 
ATOM     13  H   UNL     1       1.888   9.695  17.303  0.00  0.00    +0.000 HD
ENDROOT
BRANCH   9  14
ATOM     14  C   UNL     1       2.321   7.842  18.032  0.00  0.00    +0.000 A 
ATOM     15  C   UNL     1       3.584   7.803  17.419  0.00  0.00    +0.000 A 
ATOM     16  C   UNL     1       4.394   6.674  17.501  0.00  0.00    +0.000 A 
ATOM     17  C   UNL     1       3.965   5.583  18.249  0.00  0.00    +0.000 A 
ATOM     18  C   UNL     1       2.757   5.636  18.956  0.00  0.00    +0.000 A 
ATOM     19  C   UNL     1       1.947   6.775  18.859  0.00  0.00    +0.000 A 
BRANCH  17  20
ATOM     20  S   UNL     1       4.894   4.063  18.169  0.00  0.00    +0.000 S 
ATOM     21  O   UNL     1       5.030   3.726  16.765  0.00  0.00    +0.000 OA
ATOM     22  O   UNL     1       6.055   4.214  19.015  0.00  0.00    +0.000 OA
BRANCH  20  23
ATOM     23  N   UNL     1       3.850   2.926  18.882  0.00  0.00    +0.000 NA
ATOM     24  C   UNL     1       3.073   2.068  17.974  0.00  0.00    +0.000 C 
ATOM     25  C   UNL     1       4.382   2.210  20.052  0.00  0.00    +0.000 C 
ENDBRANCH  20  23
ENDBRANCH  17  20
ENDBRANCH   9  14
BRANCH   1  27
ATOM     26  C   UNL     1      -4.834  12.255  19.322  0.00  0.00    +0.000 C 
ATOM     27  O   UNL     1      -4.207  11.997  18.067  0.00  0.00    +0.000 OA
ENDBRANCH   1  27
BRANCH  12  28
ATOM     28  O   UNL     1      -2.692  11.143  15.776  0.00  0.00    +0.000 OA
ATOM     29  C   UNL     1      -3.019   9.982  15.019  0.00  0.00    +0.000 C 
ENDBRANCH  12  28
TORSDOF 5
ENDMDL
MODEL 3
REMARK VINA RESULT:      -7.2      1.367      1.968
REMARK  Name = 
REMARK  9 active torsions:
REMARK  status: ('A' for Active; 'I' for Inactive)
REMARK    1  A    between atoms: C_1  and  O_2
REMARK    2  A    between atoms: O_2  and  C_3
REMARK    3  A    between atoms: N_11  and  C_12
REMARK    4  A    between atoms: C_15  and  S_16
REMARK    5  A    between atoms: S_16  and  N_19
REMARK    6  A    between atoms: N_19  and  C_20
REMARK    7  A    between atoms: N_19  and  C_21
REMARK    8  A    between atoms: C_26  and  O_27
REMARK    9  A    between atoms: O_27  and  C_28
REMARK                            x       y       z     vdW  Elec       q    Type
REMARK                         _______ _______ _______ _____ _____    ______ ____
ROOT
ATOM      1  C   UNL     1      -2.755  11.450  18.570  0.00  0.00    +0.000 A 
ATOM      2  C   UNL     1      -2.141  11.241  19.815  0.00  0.00    +0.000 A 
ATOM      3  C   UNL     1      -0.925  10.579  19.934  0.00  0.00    +0.000 A 
ATOM      4  N   UNL     1      -0.413  10.367  21.149  0.00  0.00    +0.000 NA
ATOM      5  C   UNL     1       0.732   9.683  21.194  0.00  0.00    +0.000 A 
ATOM      6 CL   UNL     1       1.379   9.371  22.741  0.00  0.00    +0.000 Cl
ATOM      7  N   UNL     1       1.416   9.188  20.161  0.00  0.00    +0.000 NA
ATOM      8  C   UNL     1       0.895   9.413  18.944  0.00  0.00    +0.000 A 
ATOM      9  N   UNL     1       1.562   8.880  17.806  0.00  0.00    +0.000 N 
ATOM     10  C   UNL     1      -0.295  10.134  18.764  0.00  0.00    +0.000 A 
ATOM     11  C   UNL     1      -0.885  10.380  17.503  0.00  0.00    +0.000 A 
ATOM     12  C   UNL     1      -2.111  11.034  17.399  0.00  0.00    +0.000 A 
ATOM     13  H   UNL     1       1.959   9.639  17.262  0.00  0.00    +0.000 HD
ENDROOT
BRANCH   9  14
ATOM     14  C   UNL     1       2.368   7.722  17.819  0.00  0.00    +0.000 A 
ATOM     15  C   UNL     1       1.844   6.489  18.242  0.00  0.00    +0.000 A 
ATOM     16  C   UNL     1       2.647   5.356  18.334  0.00  0.00    +0.000 A 
ATOM     17  C   UNL     1       3.981   5.434  17.949  0.00  0.00    +0.000 A 
ATOM     18  C   UNL     1       4.501   6.625  17.426  0.00  0.00    +0.000 A 
ATOM     19  C   UNL     1       3.685   7.761  17.345  0.00  0.00    +0.000 A 
BRANCH  17  20
ATOM     20  S   UNL     1       5.056   4.051  18.278  0.00  0.00    +0.000 S 
ATOM     21  O   UNL     1       5.531   3.570  16.995  0.00  0.00    +0.000 OA
ATOM     22  O   UNL     1       5.982   4.453  19.313  0.00  0.00    +0.000 OA
BRANCH  20  23
ATOM     23  N   UNL     1       4.005   2.879  18.920  0.00  0.00    +0.000 NA
ATOM     24  C   UNL     1       3.542   1.823  18.007  0.00  0.00    +0.000 C 
ATOM     25  C   UNL     1       4.335   2.387  20.267  0.00  0.00    +0.000 C 
ENDBRANCH  20  23
ENDBRANCH  17  20
ENDBRANCH   9  14
BRANCH   1  27
ATOM     26  C   UNL     1      -4.308  12.628  19.918  0.00  0.00    +0.000 C 
ATOM     27  O   UNL     1      -3.969  12.087  18.643  0.00  0.00    +0.000 OA
ENDBRANCH   1  27
BRANCH  12  28
ATOM     28  O   UNL     1      -2.656  11.359  16.189  0.00  0.00    +0.000 OA
ATOM     29  C   UNL     1      -3.024  10.270  15.348  0.00  0.00    +0.000 C 
ENDBRANCH  12  28
TORSDOF 5
ENDMDL
MODEL 4
REMARK VINA RESULT:      -7.2      3.488      4.515
REMARK  Name = 
REMARK  9 active torsions:
REMARK  status: ('A' for Active; 'I' for Inactive)
REMARK    1  A    between atoms: C_1  and  O_2
REMARK    2  A    between atoms: O_2  and  C_3
REMARK    3  A    between atoms: N_11  and  C_12
REMARK    4  A    between atoms: C_15  and  S_16
REMARK    5  A    between atoms: S_16  and  N_19
REMARK    6  A    between atoms: N_19  and  C_20
REMARK    7  A    between atoms: N_19  and  C_21
REMARK    8  A    between atoms: C_26  and  O_27
REMARK    9  A    between atoms: O_27  and  C_28
REMARK                            x       y       z     vdW  Elec       q    Type
REMARK                         _______ _______ _______ _____ _____    ______ ____
ROOT
ATOM      1  C   UNL     1       0.304  14.476  20.115  0.00  0.00    +0.000 A 
ATOM      2  C   UNL     1      -0.555  13.853  19.196  0.00  0.00    +0.000 A 
ATOM      3  C   UNL     1      -0.592  12.473  19.040  0.00  0.00    +0.000 A 
ATOM      4  N   UNL     1      -1.395  11.940  18.115  0.00  0.00    +0.000 NA
ATOM      5  C   UNL     1      -1.345  10.614  17.986  0.00  0.00    +0.000 A 
ATOM      6 CL   UNL     1      -2.336   9.922  16.782  0.00  0.00    +0.000 Cl
ATOM      7  N   UNL     1      -0.581   9.764  18.676  0.00  0.00    +0.000 NA
ATOM      8  C   UNL     1       0.218  10.310  19.608  0.00  0.00    +0.000 A 
ATOM      9  N   UNL     1       1.080   9.459  20.352  0.00  0.00    +0.000 N 
ATOM     10  C   UNL     1       0.243  11.692  19.851  0.00  0.00    +0.000 A 
ATOM     11  C   UNL     1       1.079  12.308  20.810  0.00  0.00    +0.000 A 
ATOM     12  C   UNL     1       1.115  13.694  20.946  0.00  0.00    +0.000 A 
ATOM     13  H   UNL     1       0.766   9.420  21.316  0.00  0.00    +0.000 HD
ENDROOT
BRANCH   9  14
ATOM     14  C   UNL     1       1.595   8.231  19.883  0.00  0.00    +0.000 A 
ATOM     15  C   UNL     1       2.230   8.151  18.633  0.00  0.00    +0.000 A 
ATOM     16  C   UNL     1       2.672   6.933  18.124  0.00  0.00    +0.000 A 
ATOM     17  C   UNL     1       2.530   5.783  18.891  0.00  0.00    +0.000 A 
ATOM     18  C   UNL     1       1.995   5.853  20.184  0.00  0.00    +0.000 A 
ATOM     19  C   UNL     1       1.546   7.082  20.683  0.00  0.00    +0.000 A 
BRANCH  17  20
ATOM     20  S   UNL     1       2.889   4.202  18.150  0.00  0.00    +0.000 S 
ATOM     21  O   UNL     1       1.759   3.866  17.305  0.00  0.00    +0.000 OA
ATOM     22  O   UNL     1       4.229   4.264  17.614  0.00  0.00    +0.000 OA
BRANCH  20  23
ATOM     23  N   UNL     1       2.886   3.137  19.476  0.00  0.00    +0.000 NA
ATOM     24  C   UNL     1       1.775   2.177  19.561  0.00  0.00    +0.000 C 
ATOM     25  C   UNL     1       4.189   2.558  19.839  0.00  0.00    +0.000 C 
ENDBRANCH  20  23
ENDBRANCH  17  20
ENDBRANCH   9  14
BRANCH   1  27
ATOM     26  C   UNL     1      -0.941  16.409  20.687  0.00  0.00    +0.000 C 
ATOM     27  O   UNL     1       0.235  15.846  20.109  0.00  0.00    +0.000 OA
ENDBRANCH   1  27
BRANCH  12  28
ATOM     28  O   UNL     1       1.848  14.305  21.924  0.00  0.00    +0.000 OA
ATOM     29  C   UNL     1       3.235  14.484  21.657  0.00  0.00    +0.000 C 
ENDBRANCH  12  28
TORSDOF 5
ENDMDL
MODEL 5
REMARK VINA RESULT:      -7.2      3.546      4.285
REMARK  Name = 
REMARK  9 active torsions:
REMARK  status: ('A' for Active; 'I' for Inactive)
REMARK    1  A    between atoms: C_1  and  O_2
REMARK    2  A    between atoms: O_2  and  C_3
REMARK    3  A    between atoms: N_11  and  C_12
REMARK    4  A    between atoms: C_15  and  S_16
REMARK    5  A    between atoms: S_16  and  N_19
REMARK    6  A    between atoms: N_19  and  C_20
REMARK    7  A    between atoms: N_19  and  C_21
REMARK    8  A    between atoms: C_26  and  O_27
REMARK    9  A    between atoms: O_27  and  C_28
REMARK                            x       y       z     vdW  Elec       q    Type
REMARK                         _______ _______ _______ _____ _____    ______ ____
ROOT
ATOM      1  C   UNL     1       0.686  14.659  19.099  0.00  0.00    +0.000 A 
ATOM      2  C   UNL     1      -0.394  13.951  18.549  0.00  0.00    +0.000 A 
ATOM      3  C   UNL     1      -0.516  12.573  18.680  0.00  0.00    +0.000 A 
ATOM      4  N   UNL     1      -1.540  11.949  18.092  0.00  0.00    +0.000 NA
ATOM      5  C   UNL     1      -1.570  10.621  18.217  0.00  0.00    +0.000 A 
ATOM      6 CL   UNL     1      -2.851   9.805  17.441  0.00  0.00    +0.000 Cl
ATOM      7  N   UNL     1      -0.688   9.852  18.860  0.00  0.00    +0.000 NA
ATOM      8  C   UNL     1       0.334  10.492  19.451  0.00  0.00    +0.000 A 
ATOM      9  N   UNL     1       1.324   9.722  20.122  0.00  0.00    +0.000 N 
ATOM     10  C   UNL     1       0.466  11.887  19.407  0.00  0.00    +0.000 A 
ATOM     11  C   UNL     1       1.534  12.598  20.002  0.00  0.00    +0.000 A 
ATOM     12  C   UNL     1       1.650  13.978  19.852  0.00  0.00    +0.000 A 
ATOM     13  H   UNL     1       1.257   9.884  21.122  0.00  0.00    +0.000 HD
ENDROOT
BRANCH   9  14
ATOM     14  C   UNL     1       1.665   8.392  19.795  0.00  0.00    +0.000 A 
ATOM     15  C   UNL     1       2.185   8.076  18.529  0.00  0.00    +0.000 A 
ATOM     16  C   UNL     1       2.452   6.760  18.165  0.00  0.00    +0.000 A 
ATOM     17  C   UNL     1       2.249   5.743  19.092  0.00  0.00    +0.000 A 
ATOM     18  C   UNL     1       1.830   6.043  20.395  0.00  0.00    +0.000 A 
ATOM     19  C   UNL     1       1.557   7.371  20.748  0.00  0.00    +0.000 A 
BRANCH  17  20
ATOM     20  S   UNL     1       2.375   4.049  18.554  0.00  0.00    +0.000 S 
ATOM     21  O   UNL     1       2.071   3.217  19.703  0.00  0.00    +0.000 OA
ATOM     22  O   UNL     1       1.626   3.922  17.324  0.00  0.00    +0.000 OA
BRANCH  20  23
ATOM     23  N   UNL     1       4.028   3.870  18.201  0.00  0.00    +0.000 NA
ATOM     24  C   UNL     1       4.442   4.086  16.806  0.00  0.00    +0.000 C 
ATOM     25  C   UNL     1       4.962   4.440  19.184  0.00  0.00    +0.000 C 
ENDBRANCH  20  23
ENDBRANCH  17  20
ENDBRANCH   9  14
BRANCH   1  27
ATOM     26  C   UNL     1      -0.077  16.801  19.764  0.00  0.00    +0.000 C 
ATOM     27  O   UNL     1       0.665  16.007  18.841  0.00  0.00    +0.000 OA
ENDBRANCH   1  27
BRANCH  12  28
ATOM     28  O   UNL     1       2.623  14.694  20.490  0.00  0.00    +0.000 OA
ATOM     29  C   UNL     1       3.918  14.670  19.898  0.00  0.00    +0.000 C 
ENDBRANCH  12  28
TORSDOF 5
ENDMDL
MODEL 6
REMARK VINA RESULT:      -7.1      0.700      1.151
REMARK  Name = 
REMARK  9 active torsions:
REMARK  status: ('A' for Active; 'I' for Inactive)
REMARK    1  A    between atoms: C_1  and  O_2
REMARK    2  A    between atoms: O_2  and  C_3
REMARK    3  A    between atoms: N_11  and  C_12
REMARK    4  A    between atoms: C_15  and  S_16
REMARK    5  A    between atoms: S_16  and  N_19
REMARK    6  A    between atoms: N_19  and  C_20
REMARK    7  A    between atoms: N_19  and  C_21
REMARK    8  A    between atoms: C_26  and  O_27
REMARK    9  A    between atoms: O_27  and  C_28
REMARK                            x       y       z     vdW  Elec       q    Type
REMARK                         _______ _______ _______ _____ _____    ______ ____
ROOT
ATOM      1  C   UNL     1      -2.761  11.590  18.878  0.00  0.00    +0.000 A 
ATOM      2  C   UNL     1      -2.104  11.330  20.091  0.00  0.00    +0.000 A 
ATOM      3  C   UNL     1      -0.884  10.666  20.141  0.00  0.00    +0.000 A 
ATOM      4  N   UNL     1      -0.331  10.404  21.328  0.00  0.00    +0.000 NA
ATOM      5  C   UNL     1       0.814   9.721  21.306  0.00  0.00    +0.000 A 
ATOM      6 CL   UNL     1       1.515   9.345  22.815  0.00  0.00    +0.000 Cl
ATOM      7  N   UNL     1       1.463   9.269  20.230  0.00  0.00    +0.000 NA
ATOM      8  C   UNL     1       0.900   9.543  19.042  0.00  0.00    +0.000 A 
ATOM      9  N   UNL     1       1.527   9.058  17.861  0.00  0.00    +0.000 N 
ATOM     10  C   UNL     1      -0.295  10.270  18.933  0.00  0.00    +0.000 A 
ATOM     11  C   UNL     1      -0.929  10.567  17.704  0.00  0.00    +0.000 A 
ATOM     12  C   UNL     1      -2.157  11.222  17.669  0.00  0.00    +0.000 A 
ATOM     13  H   UNL     1       1.906   9.840  17.335  0.00  0.00    +0.000 HD
ENDROOT
BRANCH   9  14
ATOM     14  C   UNL     1       2.333   7.902  17.798  0.00  0.00    +0.000 A 
ATOM     15  C   UNL     1       1.806   6.643  18.127  0.00  0.00    +0.000 A 
ATOM     16  C   UNL     1       2.608   5.505  18.145  0.00  0.00    +0.000 A 
ATOM     17  C   UNL     1       3.945   5.610  17.779  0.00  0.00    +0.000 A 
ATOM     18  C   UNL     1       4.470   6.835  17.347  0.00  0.00    +0.000 A 
ATOM     19  C   UNL     1       3.655   7.974  17.340  0.00  0.00    +0.000 A 
BRANCH  17  20
ATOM     20  S   UNL     1       5.017   4.206  18.018  0.00  0.00    +0.000 S 
ATOM     21  O   UNL     1       5.556   4.311  19.361  0.00  0.00    +0.000 OA
ATOM     22  O   UNL     1       4.297   3.027  17.594  0.00  0.00    +0.000 OA
BRANCH  20  23
ATOM     23  N   UNL     1       6.285   4.488  16.921  0.00  0.00    +0.000 NA
ATOM     24  C   UNL     1       7.651   4.513  17.468  0.00  0.00    +0.000 C 
ATOM     25  C   UNL     1       6.185   3.793  15.629  0.00  0.00    +0.000 C 
ENDBRANCH  20  23
ENDBRANCH  17  20
ENDBRANCH   9  14
BRANCH   1  27
ATOM     26  C   UNL     1      -4.239  12.763  20.310  0.00  0.00    +0.000 C 
ATOM     27  O   UNL     1      -3.971  12.222  19.018  0.00  0.00    +0.000 OA
ENDBRANCH   1  27
BRANCH  12  28
ATOM     28  O   UNL     1      -2.743  11.596  16.493  0.00  0.00    +0.000 OA
ATOM     29  C   UNL     1      -2.909  10.574  15.516  0.00  0.00    +0.000 C 
ENDBRANCH  12  28
TORSDOF 5
ENDMDL
MODEL 7
REMARK VINA RESULT:      -7.1      3.525      4.632
REMARK  Name = 
REMARK  9 active torsions:
REMARK  status: ('A' for Active; 'I' for Inactive)
REMARK    1  A    between atoms: C_1  and  O_2
REMARK    2  A    between atoms: O_2  and  C_3
REMARK    3  A    between atoms: N_11  and  C_12
REMARK    4  A    between atoms: C_15  and  S_16
REMARK    5  A    between atoms: S_16  and  N_19
REMARK    6  A    between atoms: N_19  and  C_20
REMARK    7  A    between atoms: N_19  and  C_21
REMARK    8  A    between atoms: C_26  and  O_27
REMARK    9  A    between atoms: O_27  and  C_28
REMARK                            x       y       z     vdW  Elec       q    Type
REMARK                         _______ _______ _______ _____ _____    ______ ____
ROOT
ATOM      1  C   UNL     1       0.645  14.366  19.996  0.00  0.00    +0.000 A 
ATOM      2  C   UNL     1      -0.267  13.764  19.115  0.00  0.00    +0.000 A 
ATOM      3  C   UNL     1      -0.344  12.385  18.962  0.00  0.00    +0.000 A 
ATOM      4  N   UNL     1      -1.197  11.873  18.072  0.00  0.00    +0.000 NA
ATOM      5  C   UNL     1      -1.185  10.545  17.942  0.00  0.00    +0.000 A 
ATOM      6 CL   UNL     1      -2.242   9.878  16.782  0.00  0.00    +0.000 Cl
ATOM      7  N   UNL     1      -0.412   9.678  18.599  0.00  0.00    +0.000 NA
ATOM      8  C   UNL     1       0.438  10.204  19.496  0.00  0.00    +0.000 A 
ATOM      9  N   UNL     1       1.311   9.332  20.203  0.00  0.00    +0.000 N 
ATOM     10  C   UNL     1       0.507  11.584  19.737  0.00  0.00    +0.000 A 
ATOM     11  C   UNL     1       1.397  12.181  20.659  0.00  0.00    +0.000 A 
ATOM     12  C   UNL     1       1.472  13.565  20.793  0.00  0.00    +0.000 A 
ATOM     13  H   UNL     1       1.037   9.300  21.180  0.00  0.00    +0.000 HD
ENDROOT
BRANCH   9  14
ATOM     14  C   UNL     1       1.775   8.093  19.714  0.00  0.00    +0.000 A 
ATOM     15  C   UNL     1       1.617   6.919  20.469  0.00  0.00    +0.000 A 
ATOM     16  C   UNL     1       2.139   5.704  20.035  0.00  0.00    +0.000 A 
ATOM     17  C   UNL     1       2.784   5.641  18.805  0.00  0.00    +0.000 A 
ATOM     18  C   UNL     1       2.864   6.774  17.986  0.00  0.00    +0.000 A 
ATOM     19  C   UNL     1       2.341   7.994  18.436  0.00  0.00    +0.000 A 
BRANCH  17  20
ATOM     20  S   UNL     1       3.643   4.145  18.358  0.00  0.00    +0.000 S 
ATOM     21  O   UNL     1       3.142   3.742  17.058  0.00  0.00    +0.000 OA
ATOM     22  O   UNL     1       5.054   4.368  18.577  0.00  0.00    +0.000 OA
BRANCH  20  23
ATOM     23  N   UNL     1       3.091   3.016  19.504  0.00  0.00    +0.000 NA
ATOM     24  C   UNL     1       1.977   2.144  19.102  0.00  0.00    +0.000 C 
ATOM     25  C   UNL     1       4.133   2.318  20.273  0.00  0.00    +0.000 C 
ENDBRANCH  20  23
ENDBRANCH  17  20
ENDBRANCH   9  14
BRANCH   1  27
ATOM     26  C   UNL     1       1.242  16.370  18.881  0.00  0.00    +0.000 C 
ATOM     27  O   UNL     1       0.609  15.738  19.992  0.00  0.00    +0.000 OA
ENDBRANCH   1  27
BRANCH  12  28
ATOM     28  O   UNL     1       2.260  14.157  21.738  0.00  0.00    +0.000 OA
ATOM     29  C   UNL     1       3.596  14.460  21.349  0.00  0.00    +0.000 C 
ENDBRANCH  12  28
TORSDOF 5
ENDMDL
MODEL 8
REMARK VINA RESULT:      -7.0      3.489      4.262
REMARK  Name = 
REMARK  9 active torsions:
REMARK  status: ('A' for Active; 'I' for Inactive)
REMARK    1  A    between atoms: C_1  and  O_2
REMARK    2  A    between atoms: O_2  and  C_3
REMARK    3  A    between atoms: N_11  and  C_12
REMARK    4  A    between atoms: C_15  and  S_16
REMARK    5  A    between atoms: S_16  and  N_19
REMARK    6  A    between atoms: N_19  and  C_20
REMARK    7  A    between atoms: N_19  and  C_21
REMARK    8  A    between atoms: C_26  and  O_27
REMARK    9  A    between atoms: O_27  and  C_28
REMARK                            x       y       z     vdW  Elec       q    Type
REMARK                         _______ _______ _______ _____ _____    ______ ____
ROOT
ATOM      1  C   UNL     1       0.769  14.788  19.083  0.00  0.00    +0.000 A 
ATOM      2  C   UNL     1      -0.337  14.095  18.566  0.00  0.00    +0.000 A 
ATOM      3  C   UNL     1      -0.469  12.718  18.695  0.00  0.00    +0.000 A 
ATOM      4  N   UNL     1      -1.519  12.108  18.139  0.00  0.00    +0.000 NA
ATOM      5  C   UNL     1      -1.559  10.780  18.259  0.00  0.00    +0.000 A 
ATOM      6 CL   UNL     1      -2.873   9.981  17.522  0.00  0.00    +0.000 Cl
ATOM      7  N   UNL     1      -0.665   9.998  18.869  0.00  0.00    +0.000 NA
ATOM      8  C   UNL     1       0.383  10.623  19.429  0.00  0.00    +0.000 A 
ATOM      9  N   UNL     1       1.386   9.840  20.064  0.00  0.00    +0.000 N 
ATOM     10  C   UNL     1       0.529  12.018  19.386  0.00  0.00    +0.000 A 
ATOM     11  C   UNL     1       1.623  12.714  19.949  0.00  0.00    +0.000 A 
ATOM     12  C   UNL     1       1.750  14.093  19.801  0.00  0.00    +0.000 A 
ATOM     13  H   UNL     1       1.353   9.998  21.066  0.00  0.00    +0.000 HD
ENDROOT
BRANCH   9  14
ATOM     14  C   UNL     1       1.701   8.508  19.720  0.00  0.00    +0.000 A 
ATOM     15  C   UNL     1       1.483   7.462  20.631  0.00  0.00    +0.000 A 
ATOM     16  C   UNL     1       1.860   6.155  20.336  0.00  0.00    +0.000 A 
ATOM     17  C   UNL     1       2.416   5.872  19.094  0.00  0.00    +0.000 A 
ATOM     18  C   UNL     1       2.548   6.879  18.128  0.00  0.00    +0.000 A 
ATOM     19  C   UNL     1       2.172   8.191  18.439  0.00  0.00    +0.000 A 
BRANCH  17  20
ATOM     20  S   UNL     1       3.101   4.253  18.804  0.00  0.00    +0.000 S 
ATOM     21  O   UNL     1       3.440   3.699  20.102  0.00  0.00    +0.000 OA
ATOM     22  O   UNL     1       2.211   3.554  17.906  0.00  0.00    +0.000 OA
BRANCH  20  23
ATOM     23  N   UNL     1       4.552   4.580  17.980  0.00  0.00    +0.000 NA
ATOM     24  C   UNL     1       5.760   4.768  18.798  0.00  0.00    +0.000 C 
ATOM     25  C   UNL     1       4.789   3.797  16.757  0.00  0.00    +0.000 C 
ENDBRANCH  20  23
ENDBRANCH  17  20
ENDBRANCH   9  14
BRANCH   1  27
ATOM     26  C   UNL     1      -0.537  16.736  18.747  0.00  0.00    +0.000 C 
ATOM     27  O   UNL     1       0.754  16.137  18.833  0.00  0.00    +0.000 OA
ENDBRANCH   1  27
BRANCH  12  28
ATOM     28  O   UNL     1       2.750  14.796  20.410  0.00  0.00    +0.000 OA
ATOM     29  C   UNL     1       2.544  15.134  21.778  0.00  0.00    +0.000 C 
ENDBRANCH  12  28
TORSDOF 5
ENDMDL
MODEL 9
REMARK VINA RESULT:      -7.0      4.896      8.943
REMARK  Name = 
REMARK  9 active torsions:
REMARK  status: ('A' for Active; 'I' for Inactive)
REMARK    1  A    between atoms: C_1  and  O_2
REMARK    2  A    between atoms: O_2  and  C_3
REMARK    3  A    between atoms: N_11  and  C_12
REMARK    4  A    between atoms: C_15  and  S_16
REMARK    5  A    between atoms: S_16  and  N_19
REMARK    6  A    between atoms: N_19  and  C_20
REMARK    7  A    between atoms: N_19  and  C_21
REMARK    8  A    between atoms: C_26  and  O_27
REMARK    9  A    between atoms: O_27  and  C_28
REMARK                            x       y       z     vdW  Elec       q    Type
REMARK                         _______ _______ _______ _____ _____    ______ ____
ROOT
ATOM      1  C   UNL     1       2.383   6.548  19.695  0.00  0.00    +0.000 A 
ATOM      2  C   UNL     1       1.622   7.077  20.748  0.00  0.00    +0.000 A 
ATOM      3  C   UNL     1       1.102   8.365  20.707  0.00  0.00    +0.000 A 
ATOM      4  N   UNL     1       0.426   8.831  21.761  0.00  0.00    +0.000 NA
ATOM      5  C   UNL     1      -0.003  10.091  21.674  0.00  0.00    +0.000 A 
ATOM      6 CL   UNL     1      -0.834  10.715  23.027  0.00  0.00    +0.000 Cl
ATOM      7  N   UNL     1       0.172  10.934  20.654  0.00  0.00    +0.000 NA
ATOM      8  C   UNL     1       0.847  10.452  19.598  0.00  0.00    +0.000 A 
ATOM      9  N   UNL     1       1.094  11.315  18.494  0.00  0.00    +0.000 N 
ATOM     10  C   UNL     1       1.334   9.137  19.561  0.00  0.00    +0.000 A 
ATOM     11  C   UNL     1       2.063   8.596  18.477  0.00  0.00    +0.000 A 
ATOM     12  C   UNL     1       2.589   7.307  18.537  0.00  0.00    +0.000 A 
ATOM     13  H   UNL     1       0.550  11.004  17.695  0.00  0.00    +0.000 HD
ENDROOT
BRANCH   9  14
ATOM     14  C   UNL     1       1.203  12.719  18.582  0.00  0.00    +0.000 A 
ATOM     15  C   UNL     1       0.064  13.514  18.788  0.00  0.00    +0.000 A 
ATOM     16  C   UNL     1       0.145  14.903  18.799  0.00  0.00    +0.000 A 
ATOM     17  C   UNL     1       1.386  15.514  18.655  0.00  0.00    +0.000 A 
ATOM     18  C   UNL     1       2.550  14.741  18.552  0.00  0.00    +0.000 A 
ATOM     19  C   UNL     1       2.456  13.344  18.535  0.00  0.00    +0.000 A 
BRANCH  17  20
ATOM     20  S   UNL     1       1.458  17.282  18.444  0.00  0.00    +0.000 S 
ATOM     21  O   UNL     1       1.340  17.870  19.765  0.00  0.00    +0.000 OA
ATOM     22  O   UNL     1       2.590  17.577  17.596  0.00  0.00    +0.000 OA
BRANCH  20  23
ATOM     23  N   UNL     1       0.034  17.634  17.585  0.00  0.00    +0.000 NA
ATOM     24  C   UNL     1      -1.138  18.048  18.372  0.00  0.00    +0.000 C 
ATOM     25  C   UNL     1       0.205  18.402  16.342  0.00  0.00    +0.000 C 
ENDBRANCH  20  23
ENDBRANCH  17  20
ENDBRANCH   9  14
BRANCH   1  27
ATOM     26  C   UNL     1       2.087   4.494  20.840  0.00  0.00    +0.000 C 
ATOM     27  O   UNL     1       2.847   5.276  19.921  0.00  0.00    +0.000 OA
ENDBRANCH   1  27
BRANCH  12  28
ATOM     28  O   UNL     1       3.219   6.734  17.469  0.00  0.00    +0.000 OA
ATOM     29  C   UNL     1       4.623   6.950  17.372  0.00  0.00    +0.000 C 
ENDBRANCH  12  28
TORSDOF 5
ENDMDL
