MODEL 1
REMARK VINA RESULT:      -9.4      0.000      0.000
REMARK  Name = 
REMARK  5 active torsions:
REMARK  status: ('A' for Active; 'I' for Inactive)
REMARK    1  A    between atoms: C_1  and  O_2
REMARK    2  A    between atoms: O_2  and  C_3
REMARK    3  A    between atoms: C_3  and  C_5
REMARK    4  A    between atoms: C_9  and  C_10
REMARK    5  A    between atoms: C_10  and  N_11
REMARK                            x       y       z     vdW  Elec       q    Type
REMARK                         _______ _______ _______ _____ _____    ______ ____
ROOT
ATOM      1  N   UNL     1       1.348   9.554  18.496  0.00  0.00    +0.000 NA
ATOM      2  C   UNL     1       1.641   9.110  19.863  0.00  0.00    +0.000 C 
ATOM      3  C   UNL     1       2.037   7.609  20.126  0.00  0.00    +0.000 C 
ATOM      4  C   UNL     1       2.640   6.818  18.958  0.00  0.00    +0.000 C 
ATOM      5  C   UNL     1       3.249   5.576  19.010  0.00  0.00    +0.000 C 
ATOM      6  C   UNL     1       4.366   5.343  17.953  0.00  0.00    +0.000 A 
ATOM      7  C   UNL     1       5.154   6.457  17.570  0.00  0.00    +0.000 A 
ATOM      8  C   UNL     1       5.883   6.478  16.371  0.00  0.00    +0.000 A 
ATOM      9  C   UNL     1       5.997   5.325  15.617  0.00  0.00    +0.000 A 
ATOM     10 CL   UNL     1       6.730   5.354  14.064  0.00  0.00    +0.000 Cl
ATOM     11  C   UNL     1       5.464   4.147  16.102  0.00  0.00    +0.000 A 
ATOM     12  C   UNL     1       4.637   4.145  17.251  0.00  0.00    +0.000 A 
ATOM     13  C   UNL     1       4.006   2.821  17.563  0.00  0.00    +0.000 C 
ATOM     14  C   UNL     1       2.511   3.017  17.623  0.00  0.00    +0.000 C 
ATOM     15  C   UNL     1       2.158   3.251  19.056  0.00  0.00    +0.000 A 
ATOM     16  C   UNL     1       1.537   2.177  19.716  0.00  0.00    +0.000 A 
ATOM     17  C   UNL     1       1.196   2.306  21.039  0.00  0.00    +0.000 A 
ATOM     18  C   UNL     1       1.508   3.516  21.651  0.00  0.00    +0.000 A 
ATOM     19  N   UNL     1       2.155   4.576  21.049  0.00  0.00    +0.000 NA
ATOM     20  C   UNL     1       2.516   4.437  19.755  0.00  0.00    +0.000 A 
ATOM     21  C   UNL     1       2.330   7.463  17.601  0.00  0.00    +0.000 C 
ATOM     22  C   UNL     1       2.298   8.987  17.557  0.00  0.00    +0.000 C 
ENDROOT
BRANCH   1  23
ATOM     23  C   UNL     1      -0.063   9.490  18.082  0.00  0.00    +0.000 C 
BRANCH  23  28
ATOM     24  C   UNL     1      -1.072  12.214  20.489  0.00  0.00    +0.000 A 
ATOM     25  C   UNL     1      -2.380  12.431  20.078  0.00  0.00    +0.000 A 
ATOM     26  N   UNL     1      -2.911  11.862  18.963  0.00  0.00    +0.000 NA
ATOM     27  C   UNL     1      -2.142  10.958  18.312  0.00  0.00    +0.000 A 
ATOM     28  C   UNL     1      -0.835  10.659  18.667  0.00  0.00    +0.000 A 
ATOM     29  C   UNL     1      -0.269  11.403  19.703  0.00  0.00    +0.000 A 
BRANCH  24  30
ATOM     30  C   UNL     1      -0.644  12.591  21.860  0.00  0.00    +0.000 C 
ATOM     31  O   UNL     1      -0.860  13.661  22.400  0.00  0.00    +0.000 OA
BRANCH  30  33
ATOM     32  C   UNL     1      -1.019  10.616  23.130  0.00  0.00    +0.000 C 
ATOM     33  O   UNL     1      -0.122  11.480  22.441  0.00  0.00    +0.000 OA
ENDBRANCH  30  33
ENDBRANCH  24  30
ENDBRANCH  23  28
ENDBRANCH   1  23
TORSDOF 4
ENDMDL
MODEL 2
REMARK VINA RESULT:      -9.2      1.886      2.420
REMARK  Name = 
REMARK  5 active torsions:
REMARK  status: ('A' for Active; 'I' for Inactive)
REMARK    1  A    between atoms: C_1  and  O_2
REMARK    2  A    between atoms: O_2  and  C_3
REMARK    3  A    between atoms: C_3  and  C_5
REMARK    4  A    between atoms: C_9  and  C_10
REMARK    5  A    between atoms: C_10  and  N_11
REMARK                            x       y       z     vdW  Elec       q    Type
REMARK                         _______ _______ _______ _____ _____    ______ ____
ROOT
ATOM      1  N   UNL     1       1.314   9.483  18.383  0.00  0.00    +0.000 NA
ATOM      2  C   UNL     1       1.566   9.067  19.767  0.00  0.00    +0.000 C 
ATOM      3  C   UNL     1       1.995   7.581  20.067  0.00  0.00    +0.000 C 
ATOM      4  C   UNL     1       2.665   6.793  18.934  0.00  0.00    +0.000 C 
ATOM      5  C   UNL     1       3.307   5.571  19.027  0.00  0.00    +0.000 C 
ATOM      6  C   UNL     1       4.471   5.356  18.018  0.00  0.00    +0.000 A 
ATOM      7  C   UNL     1       5.241   6.488  17.650  0.00  0.00    +0.000 A 
ATOM      8  C   UNL     1       6.016   6.515  16.480  0.00  0.00    +0.000 A 
ATOM      9  C   UNL     1       6.193   5.356  15.748  0.00  0.00    +0.000 A 
ATOM     10 CL   UNL     1       6.985   5.385  14.224  0.00  0.00    +0.000 Cl
ATOM     11  C   UNL     1       5.675   4.169  16.229  0.00  0.00    +0.000 A 
ATOM     12  C   UNL     1       4.804   4.157  17.344  0.00  0.00    +0.000 A 
ATOM     13  C   UNL     1       4.200   2.820  17.651  0.00  0.00    +0.000 C 
ATOM     14  C   UNL     1       2.698   2.973  17.649  0.00  0.00    +0.000 C 
ATOM     15  C   UNL     1       2.283   3.215  19.064  0.00  0.00    +0.000 A 
ATOM     16  C   UNL     1       1.668   2.132  19.715  0.00  0.00    +0.000 A 
ATOM     17  C   UNL     1       1.271   2.268  21.021  0.00  0.00    +0.000 A 
ATOM     18  C   UNL     1       1.524   3.494  21.628  0.00  0.00    +0.000 A 
ATOM     19  N   UNL     1       2.163   4.565  21.037  0.00  0.00    +0.000 NA
ATOM     20  C   UNL     1       2.578   4.420  19.759  0.00  0.00    +0.000 A 
ATOM     21  C   UNL     1       2.390   7.410  17.557  0.00  0.00    +0.000 C 
ATOM     22  C   UNL     1       2.317   8.932  17.490  0.00  0.00    +0.000 C 
ENDROOT
BRANCH   1  23
ATOM     23  C   UNL     1      -0.077   9.372  17.916  0.00  0.00    +0.000 C 
BRANCH  23  28
ATOM     24  C   UNL     1      -3.069  11.559  18.627  0.00  0.00    +0.000 A 
ATOM     25  C   UNL     1      -2.445  12.632  19.247  0.00  0.00    +0.000 A 
ATOM     26  N   UNL     1      -1.131  12.626  19.596  0.00  0.00    +0.000 NA
ATOM     27  C   UNL     1      -0.398  11.558  19.202  0.00  0.00    +0.000 A 
ATOM     28  C   UNL     1      -0.932  10.453  18.554  0.00  0.00    +0.000 A 
ATOM     29  C   UNL     1      -2.316  10.421  18.383  0.00  0.00    +0.000 A 
BRANCH  24  30
ATOM     30  C   UNL     1      -4.398  11.731  17.986  0.00  0.00    +0.000 C 
ATOM     31  O   UNL     1      -4.593  11.888  16.795  0.00  0.00    +0.000 OA
BRANCH  30  33
ATOM     32  C   UNL     1      -6.506  10.797  18.568  0.00  0.00    +0.000 C 
ATOM     33  O   UNL     1      -5.338  11.521  18.942  0.00  0.00    +0.000 OA
ENDBRANCH  30  33
ENDBRANCH  24  30
ENDBRANCH  23  28
ENDBRANCH   1  23
TORSDOF 4
ENDMDL
MODEL 3
REMARK VINA RESULT:      -9.0      1.032      1.451
REMARK  Name = 
REMARK  5 active torsions:
REMARK  status: ('A' for Active; 'I' for Inactive)
REMARK    1  A    between atoms: C_1  and  O_2
REMARK    2  A    between atoms: O_2  and  C_3
REMARK    3  A    between atoms: C_3  and  C_5
REMARK    4  A    between atoms: C_9  and  C_10
REMARK    5  A    between atoms: C_10  and  N_11
REMARK                            x       y       z     vdW  Elec       q    Type
REMARK                         _______ _______ _______ _____ _____    ______ ____
ROOT
ATOM      1  N   UNL     1       1.438   9.589  18.526  0.00  0.00    +0.000 NA
ATOM      2  C   UNL     1       1.699   9.113  19.889  0.00  0.00    +0.000 C 
ATOM      3  C   UNL     1       2.061   7.599  20.129  0.00  0.00    +0.000 C 
ATOM      4  C   UNL     1       2.667   6.818  18.955  0.00  0.00    +0.000 C 
ATOM      5  C   UNL     1       3.250   5.564  18.992  0.00  0.00    +0.000 C 
ATOM      6  C   UNL     1       4.380   5.329  17.949  0.00  0.00    +0.000 A 
ATOM      7  C   UNL     1       5.196   6.434  17.601  0.00  0.00    +0.000 A 
ATOM      8  C   UNL     1       5.946   6.463  16.415  0.00  0.00    +0.000 A 
ATOM      9  C   UNL     1       6.049   5.323  15.641  0.00  0.00    +0.000 A 
ATOM     10 CL   UNL     1       6.808   5.366  14.101  0.00  0.00    +0.000 Cl
ATOM     11  C   UNL     1       5.484   4.146  16.094  0.00  0.00    +0.000 A 
ATOM     12  C   UNL     1       4.639   4.139  17.228  0.00  0.00    +0.000 A 
ATOM     13  C   UNL     1       3.976   2.823  17.504  0.00  0.00    +0.000 C 
ATOM     14  C   UNL     1       2.484   3.048  17.544  0.00  0.00    +0.000 C 
ATOM     15  C   UNL     1       2.112   3.261  18.975  0.00  0.00    +0.000 A 
ATOM     16  C   UNL     1       1.459   2.187  19.604  0.00  0.00    +0.000 A 
ATOM     17  C   UNL     1       1.099   2.298  20.923  0.00  0.00    +0.000 A 
ATOM     18  C   UNL     1       1.425   3.489  21.564  0.00  0.00    +0.000 A 
ATOM     19  N   UNL     1       2.103   4.547  20.994  0.00  0.00    +0.000 NA
ATOM     20  C   UNL     1       2.482   4.426  19.703  0.00  0.00    +0.000 A 
ATOM     21  C   UNL     1       2.392   7.496  17.606  0.00  0.00    +0.000 C 
ATOM     22  C   UNL     1       2.392   9.020  17.592  0.00  0.00    +0.000 C 
ENDROOT
BRANCH   1  23
ATOM     23  C   UNL     1       0.033   9.561  18.088  0.00  0.00    +0.000 C 
BRANCH  23  28
ATOM     24  C   UNL     1      -0.550  12.892  19.763  0.00  0.00    +0.000 A 
ATOM     25  C   UNL     1      -1.937  12.898  19.817  0.00  0.00    +0.000 A 
ATOM     26  N   UNL     1      -2.708  11.962  19.201  0.00  0.00    +0.000 NA
ATOM     27  C   UNL     1      -2.062  10.927  18.616  0.00  0.00    +0.000 A 
ATOM     28  C   UNL     1      -0.681  10.824  18.537  0.00  0.00    +0.000 A 
ATOM     29  C   UNL     1       0.067  11.899  19.019  0.00  0.00    +0.000 A 
BRANCH  24  30
ATOM     30  C   UNL     1       0.241  13.729  20.701  0.00  0.00    +0.000 C 
ATOM     31  O   UNL     1       0.833  13.323  21.684  0.00  0.00    +0.000 OA
BRANCH  30  33
ATOM     32  C   UNL     1       1.471  15.306  19.414  0.00  0.00    +0.000 C 
ATOM     33  O   UNL     1       0.310  14.976  20.169  0.00  0.00    +0.000 OA
ENDBRANCH  30  33
ENDBRANCH  24  30
ENDBRANCH  23  28
ENDBRANCH   1  23
TORSDOF 4
ENDMDL
MODEL 4
REMARK VINA RESULT:      -8.3      3.858      6.451
REMARK  Name = 
REMARK  5 active torsions:
REMARK  status: ('A' for Active; 'I' for Inactive)
REMARK    1  A    between atoms: C_1  and  O_2
REMARK    2  A    between atoms: O_2  and  C_3
REMARK    3  A    between atoms: C_3  and  C_5
REMARK    4  A    between atoms: C_9  and  C_10
REMARK    5  A    between atoms: C_10  and  N_11
REMARK                            x       y       z     vdW  Elec       q    Type
REMARK                         _______ _______ _______ _____ _____    ______ ____
ROOT
ATOM      1  N   UNL     1      -2.954  10.634  15.959  0.00  0.00    +0.000 NA
ATOM      2  C   UNL     1      -2.570  11.921  16.550  0.00  0.00    +0.000 C 
ATOM      3  C   UNL     1      -1.855  11.950  17.953  0.00  0.00    +0.000 C 
ATOM      4  C   UNL     1      -1.096  10.690  18.390  0.00  0.00    +0.000 C 
ATOM      5  C   UNL     1      -0.231  10.561  19.462  0.00  0.00    +0.000 C 
ATOM      6  C   UNL     1       0.909   9.520  19.270  0.00  0.00    +0.000 A 
ATOM      7  C   UNL     1       1.435   9.351  17.965  0.00  0.00    +0.000 A 
ATOM      8  C   UNL     1       2.140   8.198  17.588  0.00  0.00    +0.000 A 
ATOM      9  C   UNL     1       2.502   7.271  18.547  0.00  0.00    +0.000 A 
ATOM     10 CL   UNL     1       3.209   5.770  18.104  0.00  0.00    +0.000 Cl
ATOM     11  C   UNL     1       2.239   7.539  19.877  0.00  0.00    +0.000 A 
ATOM     12  C   UNL     1       1.435   8.642  20.248  0.00  0.00    +0.000 A 
ATOM     13  C   UNL     1       1.108   8.713  21.710  0.00  0.00    +0.000 C 
ATOM     14  C   UNL     1      -0.395   8.751  21.853  0.00  0.00    +0.000 C 
ATOM     15  C   UNL     1      -0.788  10.190  21.942  0.00  0.00    +0.000 A 
ATOM     16  C   UNL     1      -1.159  10.643  23.219  0.00  0.00    +0.000 A 
ATOM     17  C   UNL     1      -1.518  11.957  23.389  0.00  0.00    +0.000 A 
ATOM     18  C   UNL     1      -1.477  12.769  22.260  0.00  0.00    +0.000 A 
ATOM     19  N   UNL     1      -1.078  12.370  21.000  0.00  0.00    +0.000 NA
ATOM     20  C   UNL     1      -0.697  11.084  20.841  0.00  0.00    +0.000 A 
ATOM     21  C   UNL     1      -1.541   9.446  17.610  0.00  0.00    +0.000 C 
ATOM     22  C   UNL     1      -1.904   9.649  16.143  0.00  0.00    +0.000 C 
ENDROOT
BRANCH   1  23
ATOM     23  C   UNL     1      -4.318  10.166  16.255  0.00  0.00    +0.000 C 
BRANCH  23  28
ATOM     24  C   UNL     1      -6.266  11.387  19.247  0.00  0.00    +0.000 A 
ATOM     25  C   UNL     1      -6.675  12.629  18.781  0.00  0.00    +0.000 A 
ATOM     26  N   UNL     1      -6.229  13.168  17.615  0.00  0.00    +0.000 NA
ATOM     27  C   UNL     1      -5.441  12.385  16.841  0.00  0.00    +0.000 A 
ATOM     28  C   UNL     1      -5.003  11.123  17.214  0.00  0.00    +0.000 A 
ATOM     29  C   UNL     1      -5.334  10.687  18.497  0.00  0.00    +0.000 A 
BRANCH  24  30
ATOM     30  C   UNL     1      -7.012  10.712  20.339  0.00  0.00    +0.000 C 
ATOM     31  O   UNL     1      -7.311  11.215  21.407  0.00  0.00    +0.000 OA
BRANCH  30  33
ATOM     32  C   UNL     1      -7.686   8.481  20.810  0.00  0.00    +0.000 C 
ATOM     33  O   UNL     1      -7.428   9.511  19.862  0.00  0.00    +0.000 OA
ENDBRANCH  30  33
ENDBRANCH  24  30
ENDBRANCH  23  28
ENDBRANCH   1  23
TORSDOF 4
ENDMDL
MODEL 5
REMARK VINA RESULT:      -8.2      3.447      5.152
REMARK  Name = 
REMARK  5 active torsions:
REMARK  status: ('A' for Active; 'I' for Inactive)
REMARK    1  A    between atoms: C_1  and  O_2
REMARK    2  A    between atoms: O_2  and  C_3
REMARK    3  A    between atoms: C_3  and  C_5
REMARK    4  A    between atoms: C_9  and  C_10
REMARK    5  A    between atoms: C_10  and  N_11
REMARK                            x       y       z     vdW  Elec       q    Type
REMARK                         _______ _______ _______ _____ _____    ______ ____
ROOT
ATOM      1  N   UNL     1       0.940   9.729  19.376  0.00  0.00    +0.000 NA
ATOM      2  C   UNL     1       1.206   9.508  17.949  0.00  0.00    +0.000 C 
ATOM      3  C   UNL     1       2.232   8.396  17.512  0.00  0.00    +0.000 C 
ATOM      4  C   UNL     1       2.487   7.241  18.489  0.00  0.00    +0.000 C 
ATOM      5  C   UNL     1       3.168   6.063  18.237  0.00  0.00    +0.000 C 
ATOM      6  C   UNL     1       2.679   4.829  19.048  0.00  0.00    +0.000 A 
ATOM      7  C   UNL     1       1.297   4.748  19.354  0.00  0.00    +0.000 A 
ATOM      8  C   UNL     1       0.810   3.942  20.395  0.00  0.00    +0.000 A 
ATOM      9  C   UNL     1       1.659   3.056  21.031  0.00  0.00    +0.000 A 
ATOM     10 CL   UNL     1       1.147   2.183  22.418  0.00  0.00    +0.000 Cl
ATOM     11  C   UNL     1       2.955   2.916  20.572  0.00  0.00    +0.000 A 
ATOM     12  C   UNL     1       3.479   3.801  19.601  0.00  0.00    +0.000 A 
ATOM     13  C   UNL     1       4.941   3.625  19.319  0.00  0.00    +0.000 C 
ATOM     14  C   UNL     1       5.627   4.949  19.553  0.00  0.00    +0.000 C 
ATOM     15  C   UNL     1       5.702   5.641  18.231  0.00  0.00    +0.000 A 
ATOM     16  C   UNL     1       6.970   5.664  17.625  0.00  0.00    +0.000 A 
ATOM     17  C   UNL     1       7.120   6.266  16.401  0.00  0.00    +0.000 A 
ATOM     18  C   UNL     1       5.977   6.814  15.828  0.00  0.00    +0.000 A 
ATOM     19  N   UNL     1       4.709   6.774  16.372  0.00  0.00    +0.000 NA
ATOM     20  C   UNL     1       4.558   6.156  17.564  0.00  0.00    +0.000 A 
ATOM     21  C   UNL     1       2.066   7.590  19.922  0.00  0.00    +0.000 C 
ATOM     22  C   UNL     1       0.826   8.464  20.078  0.00  0.00    +0.000 C 
ENDROOT
BRANCH   1  23
ATOM     23  C   UNL     1       1.770  10.747  20.040  0.00  0.00    +0.000 C 
BRANCH  23  28
ATOM     24  C   UNL     1       2.088  14.159  18.460  0.00  0.00    +0.000 A 
ATOM     25  C   UNL     1       1.010  14.802  19.050  0.00  0.00    +0.000 A 
ATOM     26  N   UNL     1       0.085  14.156  19.810  0.00  0.00    +0.000 NA
ATOM     27  C   UNL     1       0.320  12.851  20.080  0.00  0.00    +0.000 A 
ATOM     28  C   UNL     1       1.385  12.134  19.556  0.00  0.00    +0.000 A 
ATOM     29  C   UNL     1       2.202  12.789  18.634  0.00  0.00    +0.000 A 
BRANCH  24  30
ATOM     30  C   UNL     1       3.226  14.944  17.919  0.00  0.00    +0.000 C 
ATOM     31  O   UNL     1       3.160  16.079  17.485  0.00  0.00    +0.000 OA
BRANCH  30  33
ATOM     32  C   UNL     1       5.602  14.907  18.021  0.00  0.00    +0.000 C 
ATOM     33  O   UNL     1       4.358  14.229  18.150  0.00  0.00    +0.000 OA
ENDBRANCH  30  33
ENDBRANCH  24  30
ENDBRANCH  23  28
ENDBRANCH   1  23
TORSDOF 4
ENDMDL
MODEL 6
REMARK VINA RESULT:      -8.1      2.711      4.520
REMARK  Name = 
REMARK  5 active torsions:
REMARK  status: ('A' for Active; 'I' for Inactive)
REMARK    1  A    between atoms: C_1  and  O_2
REMARK    2  A    between atoms: O_2  and  C_3
REMARK    3  A    between atoms: C_3  and  C_5
REMARK    4  A    between atoms: C_9  and  C_10
REMARK    5  A    between atoms: C_10  and  N_11
REMARK                            x       y       z     vdW  Elec       q    Type
REMARK                         _______ _______ _______ _____ _____    ______ ____
ROOT
ATOM      1  N   UNL     1       0.935   9.712  19.498  0.00  0.00    +0.000 NA
ATOM      2  C   UNL     1       1.193   9.517  18.067  0.00  0.00    +0.000 C 
ATOM      3  C   UNL     1       2.214   8.411  17.605  0.00  0.00    +0.000 C 
ATOM      4  C   UNL     1       2.472   7.238  18.559  0.00  0.00    +0.000 C 
ATOM      5  C   UNL     1       3.149   6.063  18.283  0.00  0.00    +0.000 C 
ATOM      6  C   UNL     1       2.661   4.816  19.074  0.00  0.00    +0.000 A 
ATOM      7  C   UNL     1       1.281   4.732  19.386  0.00  0.00    +0.000 A 
ATOM      8  C   UNL     1       0.797   3.909  20.414  0.00  0.00    +0.000 A 
ATOM      9  C   UNL     1       1.648   3.010  21.030  0.00  0.00    +0.000 A 
ATOM     10 CL   UNL     1       1.140   2.113  22.404  0.00  0.00    +0.000 Cl
ATOM     11  C   UNL     1       2.941   2.876  20.563  0.00  0.00    +0.000 A 
ATOM     12  C   UNL     1       3.462   3.777  19.605  0.00  0.00    +0.000 A 
ATOM     13  C   UNL     1       4.922   3.602  19.313  0.00  0.00    +0.000 C 
ATOM     14  C   UNL     1       5.611   4.921  19.567  0.00  0.00    +0.000 C 
ATOM     15  C   UNL     1       5.682   5.636  18.257  0.00  0.00    +0.000 A 
ATOM     16  C   UNL     1       6.947   5.668  17.645  0.00  0.00    +0.000 A 
ATOM     17  C   UNL     1       7.092   6.292  16.432  0.00  0.00    +0.000 A 
ATOM     18  C   UNL     1       5.947   6.852  15.874  0.00  0.00    +0.000 A 
ATOM     19  N   UNL     1       4.682   6.805  16.424  0.00  0.00    +0.000 NA
ATOM     20  C   UNL     1       4.535   6.165  17.605  0.00  0.00    +0.000 A 
ATOM     21  C   UNL     1       2.058   7.562  20.001  0.00  0.00    +0.000 C 
ATOM     22  C   UNL     1       0.821   8.436  20.179  0.00  0.00    +0.000 C 
ENDROOT
BRANCH   1  23
ATOM     23  C   UNL     1       1.770  10.717  20.177  0.00  0.00    +0.000 C 
BRANCH  23  28
ATOM     24  C   UNL     1      -1.089  12.652  21.701  0.00  0.00    +0.000 A 
ATOM     25  C   UNL     1      -0.945  13.862  21.037  0.00  0.00    +0.000 A 
ATOM     26  N   UNL     1       0.118  14.150  20.239  0.00  0.00    +0.000 NA
ATOM     27  C   UNL     1       0.999  13.148  20.010  0.00  0.00    +0.000 A 
ATOM     28  C   UNL     1       0.920  11.899  20.609  0.00  0.00    +0.000 A 
ATOM     29  C   UNL     1      -0.081  11.711  21.562  0.00  0.00    +0.000 A 
BRANCH  24  30
ATOM     30  C   UNL     1      -2.397  12.270  22.289  0.00  0.00    +0.000 C 
ATOM     31  O   UNL     1      -2.560  11.767  23.386  0.00  0.00    +0.000 OA
BRANCH  30  33
ATOM     32  C   UNL     1      -4.693  12.800  21.964  0.00  0.00    +0.000 C 
ATOM     33  O   UNL     1      -3.365  12.729  21.455  0.00  0.00    +0.000 OA
ENDBRANCH  30  33
ENDBRANCH  24  30
ENDBRANCH  23  28
ENDBRANCH   1  23
TORSDOF 4
ENDMDL
MODEL 7
REMARK VINA RESULT:      -8.0      4.416      9.807
REMARK  Name = 
REMARK  5 active torsions:
REMARK  status: ('A' for Active; 'I' for Inactive)
REMARK    1  A    between atoms: C_1  and  O_2
REMARK    2  A    between atoms: O_2  and  C_3
REMARK    3  A    between atoms: C_3  and  C_5
REMARK    4  A    between atoms: C_9  and  C_10
REMARK    5  A    between atoms: C_10  and  N_11
REMARK                            x       y       z     vdW  Elec       q    Type
REMARK                         _______ _______ _______ _____ _____    ______ ____
ROOT
ATOM      1  N   UNL     1       1.346   8.923  20.717  0.00  0.00    +0.000 NA
ATOM      2  C   UNL     1       1.297   9.374  19.321  0.00  0.00    +0.000 C 
ATOM      3  C   UNL     1       0.098  10.272  18.836  0.00  0.00    +0.000 C 
ATOM      4  C   UNL     1      -0.649  11.094  19.894  0.00  0.00    +0.000 C 
ATOM      5  C   UNL     1      -1.577  12.098  19.678  0.00  0.00    +0.000 C 
ATOM      6  C   UNL     1      -1.614  13.209  20.766  0.00  0.00    +0.000 A 
ATOM      7  C   UNL     1      -0.393  13.554  21.398  0.00  0.00    +0.000 A 
ATOM      8  C   UNL     1      -0.354  14.211  22.637  0.00  0.00    +0.000 A 
ATOM      9  C   UNL     1      -1.521  14.707  23.187  0.00  0.00    +0.000 A 
ATOM     10 CL   UNL     1      -1.542  15.359  24.776  0.00  0.00    +0.000 Cl
ATOM     11  C   UNL     1      -2.696  14.625  22.465  0.00  0.00    +0.000 A 
ATOM     12  C   UNL     1      -2.760  13.869  21.270  0.00  0.00    +0.000 A 
ATOM     13  C   UNL     1      -4.134  13.743  20.684  0.00  0.00    +0.000 C 
ATOM     14  C   UNL     1      -4.448  12.274  20.538  0.00  0.00    +0.000 C 
ATOM     15  C   UNL     1      -4.080  11.885  19.143  0.00  0.00    +0.000 A 
ATOM     16  C   UNL     1      -5.155  11.687  18.260  0.00  0.00    +0.000 A 
ATOM     17  C   UNL     1      -4.901  11.344  16.956  0.00  0.00    +0.000 A 
ATOM     18  C   UNL     1      -3.564  11.225  16.589  0.00  0.00    +0.000 A 
ATOM     19  N   UNL     1      -2.482  11.453  17.415  0.00  0.00    +0.000 NA
ATOM     20  C   UNL     1      -2.734  11.819  18.691  0.00  0.00    +0.000 A 
ATOM     21  C   UNL     1      -0.418  10.557  21.313  0.00  0.00    +0.000 C 
ATOM     22  C   UNL     1       0.967   9.997  21.617  0.00  0.00    +0.000 C 
ENDROOT
BRANCH   1  23
ATOM     23  C   UNL     1       0.730   7.616  20.998  0.00  0.00    +0.000 C 
BRANCH  23  28
ATOM     24  C   UNL     1       2.027   4.139  20.317  0.00  0.00    +0.000 A 
ATOM     25  C   UNL     1       3.282   4.442  19.808  0.00  0.00    +0.000 A 
ATOM     26  N   UNL     1       3.679   5.710  19.519  0.00  0.00    +0.000 NA
ATOM     27  C   UNL     1       2.834   6.709  19.865  0.00  0.00    +0.000 A 
ATOM     28  C   UNL     1       1.573   6.501  20.404  0.00  0.00    +0.000 A 
ATOM     29  C   UNL     1       1.134   5.181  20.509  0.00  0.00    +0.000 A 
BRANCH  24  30
ATOM     30  C   UNL     1       1.760   2.803  20.909  0.00  0.00    +0.000 C 
ATOM     31  O   UNL     1       1.526   2.583  22.083  0.00  0.00    +0.000 OA
BRANCH  30  33
ATOM     32  C   UNL     1       0.719   2.195  18.859  0.00  0.00    +0.000 C 
ATOM     33  O   UNL     1       1.668   1.918  19.883  0.00  0.00    +0.000 OA
ENDBRANCH  30  33
ENDBRANCH  24  30
ENDBRANCH  23  28
ENDBRANCH   1  23
TORSDOF 4
ENDMDL
MODEL 8
REMARK VINA RESULT:      -8.0      4.135      9.463
REMARK  Name = 
REMARK  5 active torsions:
REMARK  status: ('A' for Active; 'I' for Inactive)
REMARK    1  A    between atoms: C_1  and  O_2
REMARK    2  A    between atoms: O_2  and  C_3
REMARK    3  A    between atoms: C_3  and  C_5
REMARK    4  A    between atoms: C_9  and  C_10
REMARK    5  A    between atoms: C_10  and  N_11
REMARK                            x       y       z     vdW  Elec       q    Type
REMARK                         _______ _______ _______ _____ _____    ______ ____
ROOT
ATOM      1  N   UNL     1       1.648   8.132  20.240  0.00  0.00    +0.000 NA
ATOM      2  C   UNL     1       1.735   8.629  18.862  0.00  0.00    +0.000 C 
ATOM      3  C   UNL     1       0.618   9.592  18.311  0.00  0.00    +0.000 C 
ATOM      4  C   UNL     1      -0.183  10.410  19.333  0.00  0.00    +0.000 C 
ATOM      5  C   UNL     1      -1.049  11.458  19.076  0.00  0.00    +0.000 C 
ATOM      6  C   UNL     1      -1.134  12.535  20.196  0.00  0.00    +0.000 A 
ATOM      7  C   UNL     1       0.042  12.808  20.939  0.00  0.00    +0.000 A 
ATOM      8  C   UNL     1       0.001  13.422  22.200  0.00  0.00    +0.000 A 
ATOM      9  C   UNL     1      -1.188  13.949  22.668  0.00  0.00    +0.000 A 
ATOM     10 CL   UNL     1      -1.317  14.550  24.272  0.00  0.00    +0.000 Cl
ATOM     11  C   UNL     1      -2.299  13.940  21.848  0.00  0.00    +0.000 A 
ATOM     12  C   UNL     1      -2.292  13.226  20.626  0.00  0.00    +0.000 A 
ATOM     13  C   UNL     1      -3.615  13.177  19.923  0.00  0.00    +0.000 C 
ATOM     14  C   UNL     1      -3.974  11.728  19.700  0.00  0.00    +0.000 C 
ATOM     15  C   UNL     1      -3.505  11.369  18.328  0.00  0.00    +0.000 A 
ATOM     16  C   UNL     1      -4.508  11.245  17.352  0.00  0.00    +0.000 A 
ATOM     17  C   UNL     1      -4.158  10.933  16.062  0.00  0.00    +0.000 A 
ATOM     18  C   UNL     1      -2.801  10.770  15.803  0.00  0.00    +0.000 A 
ATOM     19  N   UNL     1      -1.785  10.925  16.724  0.00  0.00    +0.000 NA
ATOM     20  C   UNL     1      -2.129  11.260  17.987  0.00  0.00    +0.000 A 
ATOM     21  C   UNL     1      -0.094   9.819  20.746  0.00  0.00    +0.000 C 
ATOM     22  C   UNL     1       1.237   9.191  21.144  0.00  0.00    +0.000 C 
ENDROOT
BRANCH   1  23
ATOM     23  C   UNL     1       0.960   6.844  20.423  0.00  0.00    +0.000 C 
BRANCH  23  28
ATOM     24  C   UNL     1       3.963   4.789  19.424  0.00  0.00    +0.000 A 
ATOM     25  C   UNL     1       3.581   3.546  19.910  0.00  0.00    +0.000 A 
ATOM     26  N   UNL     1       2.479   3.359  20.684  0.00  0.00    +0.000 NA
ATOM     27  C   UNL     1       1.676   4.432  20.875  0.00  0.00    +0.000 A 
ATOM     28  C   UNL     1       1.965   5.705  20.405  0.00  0.00    +0.000 A 
ATOM     29  C   UNL     1       3.196   5.888  19.776  0.00  0.00    +0.000 A 
BRANCH  24  30
ATOM     30  C   UNL     1       4.970   4.892  18.338  0.00  0.00    +0.000 C 
ATOM     31  O   UNL     1       4.766   5.337  17.224  0.00  0.00    +0.000 OA
BRANCH  30  33
ATOM     32  C   UNL     1       7.069   5.615  19.192  0.00  0.00    +0.000 C 
ATOM     33  O   UNL     1       6.174   4.556  18.870  0.00  0.00    +0.000 OA
ENDBRANCH  30  33
ENDBRANCH  24  30
ENDBRANCH  23  28
ENDBRANCH   1  23
TORSDOF 4
ENDMDL
MODEL 9
REMARK VINA RESULT:      -8.0      1.208      1.303
REMARK  Name = 
REMARK  5 active torsions:
REMARK  status: ('A' for Active; 'I' for Inactive)
REMARK    1  A    between atoms: C_1  and  O_2
REMARK    2  A    between atoms: O_2  and  C_3
REMARK    3  A    between atoms: C_3  and  C_5
REMARK    4  A    between atoms: C_9  and  C_10
REMARK    5  A    between atoms: C_10  and  N_11
REMARK                            x       y       z     vdW  Elec       q    Type
REMARK                         _______ _______ _______ _____ _____    ______ ____
ROOT
ATOM      1  N   UNL     1       1.505   9.650  19.145  0.00  0.00    +0.000 NA
ATOM      2  C   UNL     1       1.892   9.077  20.439  0.00  0.00    +0.000 C 
ATOM      3  C   UNL     1       2.203   7.537  20.546  0.00  0.00    +0.000 C 
ATOM      4  C   UNL     1       2.638   6.809  19.267  0.00  0.00    +0.000 C 
ATOM      5  C   UNL     1       3.160   5.532  19.163  0.00  0.00    +0.000 C 
ATOM      6  C   UNL     1       4.156   5.318  17.987  0.00  0.00    +0.000 A 
ATOM      7  C   UNL     1       4.982   6.409  17.616  0.00  0.00    +0.000 A 
ATOM      8  C   UNL     1       5.597   6.484  16.357  0.00  0.00    +0.000 A 
ATOM      9  C   UNL     1       5.559   5.393  15.509  0.00  0.00    +0.000 A 
ATOM     10 CL   UNL     1       6.145   5.504  13.898  0.00  0.00    +0.000 Cl
ATOM     11  C   UNL     1       4.991   4.214  15.951  0.00  0.00    +0.000 A 
ATOM     12  C   UNL     1       4.276   4.168  17.171  0.00  0.00    +0.000 A 
ATOM     13  C   UNL     1       3.584   2.865  17.441  0.00  0.00    +0.000 C 
ATOM     14  C   UNL     1       2.119   3.149  17.662  0.00  0.00    +0.000 C 
ATOM     15  C   UNL     1       1.917   3.284  19.136  0.00  0.00    +0.000 A 
ATOM     16  C   UNL     1       1.285   2.200  19.769  0.00  0.00    +0.000 A 
ATOM     17  C   UNL     1       1.078   2.239  21.125  0.00  0.00    +0.000 A 
ATOM     18  C   UNL     1       1.530   3.372  21.795  0.00  0.00    +0.000 A 
ATOM     19  N   UNL     1       2.192   4.435  21.216  0.00  0.00    +0.000 NA
ATOM     20  C   UNL     1       2.420   4.383  19.886  0.00  0.00    +0.000 A 
ATOM     21  C   UNL     1       2.250   7.583  18.000  0.00  0.00    +0.000 C 
ATOM     22  C   UNL     1       2.323   9.105  18.077  0.00  0.00    +0.000 C 
ENDROOT
BRANCH   1  23
ATOM     23  C   UNL     1       0.061   9.710  18.867  0.00  0.00    +0.000 C 
BRANCH  23  28
ATOM     24  C   UNL     1      -2.005  12.409  20.505  0.00  0.00    +0.000 A 
ATOM     25  C   UNL     1      -1.886  13.416  19.557  0.00  0.00    +0.000 A 
ATOM     26  N   UNL     1      -1.046  13.336  18.490  0.00  0.00    +0.000 NA
ATOM     27  C   UNL     1      -0.398  12.161  18.309  0.00  0.00    +0.000 A 
ATOM     28  C   UNL     1      -0.478  11.092  19.190  0.00  0.00    +0.000 A 
ATOM     29  C   UNL     1      -1.204  11.287  20.365  0.00  0.00    +0.000 A 
BRANCH  24  30
ATOM     30  C   UNL     1      -3.148  12.403  21.453  0.00  0.00    +0.000 C 
ATOM     31  O   UNL     1      -4.315  12.578  21.155  0.00  0.00    +0.000 OA
BRANCH  30  33
ATOM     32  C   UNL     1      -3.421  12.369  23.815  0.00  0.00    +0.000 C 
ATOM     33  O   UNL     1      -2.669  12.010  22.661  0.00  0.00    +0.000 OA
ENDBRANCH  30  33
ENDBRANCH  24  30
ENDBRANCH  23  28
ENDBRANCH   1  23
TORSDOF 4
ENDMDL
