MODEL 1
REMARK VINA RESULT:      -7.5      0.000      0.000
REMARK  Name = 
REMARK  6 active torsions:
REMARK  status: ('A' for Active; 'I' for Inactive)
REMARK    1  A    between atoms: C_2  and  C_3
REMARK    2  A    between atoms: C_3  and  S_4
REMARK    3  A    between atoms: S_4  and  C_5
REMARK    4  A    between atoms: C_5  and  C_6
REMARK    5  A    between atoms: N_13  and  C_14
REMARK    6  A    between atoms: C_14  and  C_15
REMARK                            x       y       z     vdW  Elec       q    Type
REMARK                         _______ _______ _______ _____ _____    ______ ____
ROOT
ATOM      1  O   UNL     1       6.749   7.620  16.878  0.00  0.00    +0.000 OA
ATOM      2  C   UNL     1       7.557   7.397  17.782  0.00  0.00    +0.000 C 
ATOM      3  N   UNL     1       8.360   8.375  18.326  0.00  0.00    +0.000 N 
ATOM      4  H   UNL     1       8.966   8.128  19.101  0.00  0.00    +0.000 HD
ENDROOT
BRANCH   2   5
ATOM      5  C   UNL     1       7.754   5.998  18.341  0.00  0.00    +0.000 C 
BRANCH   5   6
ATOM      6  S   UNL     1       6.204   5.304  19.003  0.00  0.00    +0.000 S 
BRANCH   6   7
ATOM      7  C   UNL     1       5.588   4.437  17.517  0.00  0.00    +0.000 C 
BRANCH   7   8
ATOM      8  C   UNL     1       4.151   4.017  17.688  0.00  0.00    +0.000 A 
ATOM      9  C   UNL     1       3.806   2.668  17.866  0.00  0.00    +0.000 A 
ATOM     10  C   UNL     1       2.473   2.295  18.062  0.00  0.00    +0.000 A 
ATOM     11  C   UNL     1       1.468   3.262  18.073  0.00  0.00    +0.000 A 
ATOM     12  C   UNL     1       1.794   4.601  17.872  0.00  0.00    +0.000 A 
ATOM     13  C   UNL     1       3.124   4.967  17.677  0.00  0.00    +0.000 A 
ATOM     14  F   UNL     1       3.414   6.263  17.492  0.00  0.00    +0.000 F 
ENDBRANCH   7   8
ENDBRANCH   6   7
ENDBRANCH   5   6
ENDBRANCH   2   5
BRANCH   3  15
ATOM     15  C   UNL     1       8.294   9.764  17.919  0.00  0.00    +0.000 C 
BRANCH  15  16
ATOM     16  C   UNL     1       9.364  10.587  18.592  0.00  0.00    +0.000 A 
ATOM     17  C   UNL     1      10.430  11.126  17.856  0.00  0.00    +0.000 A 
ATOM     18  C   UNL     1      11.456  11.825  18.497  0.00  0.00    +0.000 A 
ATOM     19  C   UNL     1      11.420  12.005  19.880  0.00  0.00    +0.000 A 
ATOM     20  C   UNL     1      10.351  11.506  20.617  0.00  0.00    +0.000 A 
ATOM     21  C   UNL     1       9.329  10.798  19.979  0.00  0.00    +0.000 A 
ENDBRANCH  15  16
ENDBRANCH   3  15
TORSDOF 6
ENDMDL
MODEL 2
REMARK VINA RESULT:      -7.4      1.150      1.869
REMARK  Name = 
REMARK  6 active torsions:
REMARK  status: ('A' for Active; 'I' for Inactive)
REMARK    1  A    between atoms: C_2  and  C_3
REMARK    2  A    between atoms: C_3  and  S_4
REMARK    3  A    between atoms: S_4  and  C_5
REMARK    4  A    between atoms: C_5  and  C_6
REMARK    5  A    between atoms: N_13  and  C_14
REMARK    6  A    between atoms: C_14  and  C_15
REMARK                            x       y       z     vdW  Elec       q    Type
REMARK                         _______ _______ _______ _____ _____    ______ ____
ROOT
ATOM      1  O   UNL     1       6.648   7.534  16.906  0.00  0.00    +0.000 OA
ATOM      2  C   UNL     1       7.478   7.277  17.780  0.00  0.00    +0.000 C 
ATOM      3  N   UNL     1       8.323   8.227  18.310  0.00  0.00    +0.000 N 
ATOM      4  H   UNL     1       8.946   7.954  19.063  0.00  0.00    +0.000 HD
ENDROOT
BRANCH   2   5
ATOM      5  C   UNL     1       7.655   5.866  18.315  0.00  0.00    +0.000 C 
BRANCH   5   6
ATOM      6  S   UNL     1       6.156   5.263  19.159  0.00  0.00    +0.000 S 
BRANCH   6   7
ATOM      7  C   UNL     1       5.452   4.216  17.838  0.00  0.00    +0.000 C 
BRANCH   7   8
ATOM      8  C   UNL     1       3.999   3.912  18.100  0.00  0.00    +0.000 A 
ATOM      9  C   UNL     1       2.982   4.708  17.551  0.00  0.00    +0.000 A 
ATOM     10  C   UNL     1       1.637   4.393  17.770  0.00  0.00    +0.000 A 
ATOM     11  C   UNL     1       1.293   3.286  18.547  0.00  0.00    +0.000 A 
ATOM     12  C   UNL     1       2.293   2.504  19.118  0.00  0.00    +0.000 A 
ATOM     13  C   UNL     1       3.632   2.823  18.897  0.00  0.00    +0.000 A 
ATOM     14  F   UNL     1       4.576   2.051  19.453  0.00  0.00    +0.000 F 
ENDBRANCH   7   8
ENDBRANCH   6   7
ENDBRANCH   5   6
ENDBRANCH   2   5
BRANCH   3  15
ATOM     15  C   UNL     1       8.281   9.623  17.924  0.00  0.00    +0.000 C 
BRANCH  15  16
ATOM     16  C   UNL     1       9.326  10.429  18.654  0.00  0.00    +0.000 A 
ATOM     17  C   UNL     1       9.196  10.708  20.023  0.00  0.00    +0.000 A 
ATOM     18  C   UNL     1      10.130  11.516  20.676  0.00  0.00    +0.000 A 
ATOM     19  C   UNL     1      11.211  12.044  19.971  0.00  0.00    +0.000 A 
ATOM     20  C   UNL     1      11.370  11.747  18.620  0.00  0.00    +0.000 A 
ATOM     21  C   UNL     1      10.432  10.947  17.963  0.00  0.00    +0.000 A 
ENDBRANCH  15  16
ENDBRANCH   3  15
TORSDOF 6
ENDMDL
MODEL 3
REMARK VINA RESULT:      -7.3      4.723      6.371
REMARK  Name = 
REMARK  6 active torsions:
REMARK  status: ('A' for Active; 'I' for Inactive)
REMARK    1  A    between atoms: C_2  and  C_3
REMARK    2  A    between atoms: C_3  and  S_4
REMARK    3  A    between atoms: S_4  and  C_5
REMARK    4  A    between atoms: C_5  and  C_6
REMARK    5  A    between atoms: N_13  and  C_14
REMARK    6  A    between atoms: C_14  and  C_15
REMARK                            x       y       z     vdW  Elec       q    Type
REMARK                         _______ _______ _______ _____ _____    ______ ____
ROOT
ATOM      1  O   UNL     1       7.205   4.370  18.404  0.00  0.00    +0.000 OA
ATOM      2  C   UNL     1       6.272   5.035  17.950  0.00  0.00    +0.000 C 
ATOM      3  N   UNL     1       6.290   5.585  16.688  0.00  0.00    +0.000 N 
ATOM      4  H   UNL     1       5.466   6.078  16.363  0.00  0.00    +0.000 HD
ENDROOT
BRANCH   2   5
ATOM      5  C   UNL     1       5.034   5.331  18.779  0.00  0.00    +0.000 C 
BRANCH   5   6
ATOM      6  S   UNL     1       3.726   6.128  17.791  0.00  0.00    +0.000 S 
BRANCH   6   7
ATOM      7  C   UNL     1       2.448   6.345  19.079  0.00  0.00    +0.000 C 
BRANCH   7   8
ATOM      8  C   UNL     1       2.055   5.022  19.685  0.00  0.00    +0.000 A 
ATOM      9  C   UNL     1       2.349   4.722  21.024  0.00  0.00    +0.000 A 
ATOM     10  C   UNL     1       1.945   3.507  21.585  0.00  0.00    +0.000 A 
ATOM     11  C   UNL     1       1.252   2.573  20.814  0.00  0.00    +0.000 A 
ATOM     12  C   UNL     1       0.978   2.848  19.477  0.00  0.00    +0.000 A 
ATOM     13  C   UNL     1       1.383   4.061  18.922  0.00  0.00    +0.000 A 
ATOM     14  F   UNL     1       1.101   4.305  17.634  0.00  0.00    +0.000 F 
ENDBRANCH   7   8
ENDBRANCH   6   7
ENDBRANCH   5   6
ENDBRANCH   2   5
BRANCH   3  15
ATOM     15  C   UNL     1       7.387   5.391  15.760  0.00  0.00    +0.000 C 
BRANCH  15  16
ATOM     16  C   UNL     1       6.907   4.809  14.453  0.00  0.00    +0.000 A 
ATOM     17  C   UNL     1       5.723   4.058  14.390  0.00  0.00    +0.000 A 
ATOM     18  C   UNL     1       5.323   3.462  13.191  0.00  0.00    +0.000 A 
ATOM     19  C   UNL     1       6.095   3.620  12.041  0.00  0.00    +0.000 A 
ATOM     20  C   UNL     1       7.254   4.390  12.082  0.00  0.00    +0.000 A 
ATOM     21  C   UNL     1       7.660   4.979  13.282  0.00  0.00    +0.000 A 
ENDBRANCH  15  16
ENDBRANCH   3  15
TORSDOF 6
ENDMDL
MODEL 4
REMARK VINA RESULT:      -7.1      1.312      1.644
REMARK  Name = 
REMARK  6 active torsions:
REMARK  status: ('A' for Active; 'I' for Inactive)
REMARK    1  A    between atoms: C_2  and  C_3
REMARK    2  A    between atoms: C_3  and  S_4
REMARK    3  A    between atoms: S_4  and  C_5
REMARK    4  A    between atoms: C_5  and  C_6
REMARK    5  A    between atoms: N_13  and  C_14
REMARK    6  A    between atoms: C_14  and  C_15
REMARK                            x       y       z     vdW  Elec       q    Type
REMARK                         _______ _______ _______ _____ _____    ______ ____
ROOT
ATOM      1  O   UNL     1       6.780   7.258  16.681  0.00  0.00    +0.000 OA
ATOM      2  C   UNL     1       7.475   7.184  17.696  0.00  0.00    +0.000 C 
ATOM      3  N   UNL     1       8.217   8.242  18.173  0.00  0.00    +0.000 N 
ATOM      4  H   UNL     1       8.726   8.123  19.043  0.00  0.00    +0.000 HD
ENDROOT
BRANCH   2   5
ATOM      5  C   UNL     1       7.595   5.889  18.481  0.00  0.00    +0.000 C 
BRANCH   5   6
ATOM      6  S   UNL     1       6.005   5.391  19.221  0.00  0.00    +0.000 S 
BRANCH   6   7
ATOM      7  C   UNL     1       5.411   4.232  17.940  0.00  0.00    +0.000 C 
BRANCH   7   8
ATOM      8  C   UNL     1       3.972   3.851  18.174  0.00  0.00    +0.000 A 
ATOM      9  C   UNL     1       2.926   4.567  17.570  0.00  0.00    +0.000 A 
ATOM     10  C   UNL     1       1.596   4.180  17.764  0.00  0.00    +0.000 A 
ATOM     11  C   UNL     1       1.295   3.082  18.570  0.00  0.00    +0.000 A 
ATOM     12  C   UNL     1       2.322   2.380  19.195  0.00  0.00    +0.000 A 
ATOM     13  C   UNL     1       3.646   2.770  18.999  0.00  0.00    +0.000 A 
ATOM     14  F   UNL     1       4.618   2.074  19.606  0.00  0.00    +0.000 F 
ENDBRANCH   7   8
ENDBRANCH   6   7
ENDBRANCH   5   6
ENDBRANCH   2   5
BRANCH   3  15
ATOM     15  C   UNL     1       8.209   9.552  17.554  0.00  0.00    +0.000 C 
BRANCH  15  16
ATOM     16  C   UNL     1       8.950  10.563  18.394  0.00  0.00    +0.000 A 
ATOM     17  C   UNL     1       9.309  11.813  17.867  0.00  0.00    +0.000 A 
ATOM     18  C   UNL     1      10.059  12.716  18.626  0.00  0.00    +0.000 A 
ATOM     19  C   UNL     1      10.447  12.384  19.924  0.00  0.00    +0.000 A 
ATOM     20  C   UNL     1      10.068  11.161  20.470  0.00  0.00    +0.000 A 
ATOM     21  C   UNL     1       9.327  10.253  19.709  0.00  0.00    +0.000 A 
ENDBRANCH  15  16
ENDBRANCH   3  15
TORSDOF 6
ENDMDL
MODEL 5
REMARK VINA RESULT:      -7.1      4.152      6.088
REMARK  Name = 
REMARK  6 active torsions:
REMARK  status: ('A' for Active; 'I' for Inactive)
REMARK    1  A    between atoms: C_2  and  C_3
REMARK    2  A    between atoms: C_3  and  S_4
REMARK    3  A    between atoms: S_4  and  C_5
REMARK    4  A    between atoms: C_5  and  C_6
REMARK    5  A    between atoms: N_13  and  C_14
REMARK    6  A    between atoms: C_14  and  C_15
REMARK                            x       y       z     vdW  Elec       q    Type
REMARK                         _______ _______ _______ _____ _____    ______ ____
ROOT
ATOM      1  O   UNL     1       1.758   3.898  17.173  0.00  0.00    +0.000 OA
ATOM      2  C   UNL     1       2.381   3.390  18.108  0.00  0.00    +0.000 C 
ATOM      3  N   UNL     1       3.747   3.214  18.088  0.00  0.00    +0.000 N 
ATOM      4  H   UNL     1       4.198   2.834  18.914  0.00  0.00    +0.000 HD
ENDROOT
BRANCH   2   5
ATOM      5  C   UNL     1       1.669   2.880  19.349  0.00  0.00    +0.000 C 
BRANCH   5   6
ATOM      6  S   UNL     1       1.141   4.242  20.440  0.00  0.00    +0.000 S 
BRANCH   6   7
ATOM      7  C   UNL     1       2.567   5.368  20.249  0.00  0.00    +0.000 C 
BRANCH   7   8
ATOM      8  C   UNL     1       2.116   6.765  19.908  0.00  0.00    +0.000 A 
ATOM      9  C   UNL     1       1.378   7.533  20.823  0.00  0.00    +0.000 A 
ATOM     10  C   UNL     1       0.999   8.841  20.509  0.00  0.00    +0.000 A 
ATOM     11  C   UNL     1       1.343   9.395  19.275  0.00  0.00    +0.000 A 
ATOM     12  C   UNL     1       2.052   8.635  18.349  0.00  0.00    +0.000 A 
ATOM     13  C   UNL     1       2.427   7.331  18.667  0.00  0.00    +0.000 A 
ATOM     14  F   UNL     1       3.115   6.621  17.761  0.00  0.00    +0.000 F 
ENDBRANCH   7   8
ENDBRANCH   6   7
ENDBRANCH   5   6
ENDBRANCH   2   5
BRANCH   3  15
ATOM     15  C   UNL     1       4.581   3.653  16.988  0.00  0.00    +0.000 C 
BRANCH  15  16
ATOM     16  C   UNL     1       5.607   4.662  17.443  0.00  0.00    +0.000 A 
ATOM     17  C   UNL     1       6.202   5.547  16.531  0.00  0.00    +0.000 A 
ATOM     18  C   UNL     1       7.203   6.430  16.945  0.00  0.00    +0.000 A 
ATOM     19  C   UNL     1       7.611   6.445  18.279  0.00  0.00    +0.000 A 
ATOM     20  C   UNL     1       7.006   5.596  19.201  0.00  0.00    +0.000 A 
ATOM     21  C   UNL     1       6.011   4.707  18.786  0.00  0.00    +0.000 A 
ENDBRANCH  15  16
ENDBRANCH   3  15
TORSDOF 6
ENDMDL
MODEL 6
REMARK VINA RESULT:      -7.1      4.948      7.505
REMARK  Name = 
REMARK  6 active torsions:
REMARK  status: ('A' for Active; 'I' for Inactive)
REMARK    1  A    between atoms: C_2  and  C_3
REMARK    2  A    between atoms: C_3  and  S_4
REMARK    3  A    between atoms: S_4  and  C_5
REMARK    4  A    between atoms: C_5  and  C_6
REMARK    5  A    between atoms: N_13  and  C_14
REMARK    6  A    between atoms: C_14  and  C_15
REMARK                            x       y       z     vdW  Elec       q    Type
REMARK                         _______ _______ _______ _____ _____    ______ ____
ROOT
ATOM      1  O   UNL     1       7.480   6.116  15.898  0.00  0.00    +0.000 OA
ATOM      2  C   UNL     1       6.899   5.042  16.071  0.00  0.00    +0.000 C 
ATOM      3  N   UNL     1       6.577   4.192  15.037  0.00  0.00    +0.000 N 
ATOM      4  H   UNL     1       6.144   3.302  15.260  0.00  0.00    +0.000 HD
ENDROOT
BRANCH   2   5
ATOM      5  C   UNL     1       6.458   4.595  17.454  0.00  0.00    +0.000 C 
BRANCH   5   6
ATOM      6  S   UNL     1       4.878   5.358  17.946  0.00  0.00    +0.000 S 
BRANCH   6   7
ATOM      7  C   UNL     1       3.755   3.937  17.706  0.00  0.00    +0.000 C 
BRANCH   7   8
ATOM      8  C   UNL     1       2.945   3.666  18.948  0.00  0.00    +0.000 A 
ATOM      9  C   UNL     1       1.632   4.144  19.076  0.00  0.00    +0.000 A 
ATOM     10  C   UNL     1       0.878   3.853  20.217  0.00  0.00    +0.000 A 
ATOM     11  C   UNL     1       1.429   3.091  21.247  0.00  0.00    +0.000 A 
ATOM     12  C   UNL     1       2.741   2.633  21.143  0.00  0.00    +0.000 A 
ATOM     13  C   UNL     1       3.487   2.927  20.004  0.00  0.00    +0.000 A 
ATOM     14  F   UNL     1       4.745   2.469  19.925  0.00  0.00    +0.000 F 
ENDBRANCH   7   8
ENDBRANCH   6   7
ENDBRANCH   5   6
ENDBRANCH   2   5
BRANCH   3  15
ATOM     15  C   UNL     1       6.934   4.458  13.658  0.00  0.00    +0.000 C 
BRANCH  15  16
ATOM     16  C   UNL     1       6.135   3.601  12.707  0.00  0.00    +0.000 A 
ATOM     17  C   UNL     1       6.694   2.451  12.129  0.00  0.00    +0.000 A 
ATOM     18  C   UNL     1       5.975   1.703  11.194  0.00  0.00    +0.000 A 
ATOM     19  C   UNL     1       4.683   2.089  10.835  0.00  0.00    +0.000 A 
ATOM     20  C   UNL     1       4.104   3.208  11.426  0.00  0.00    +0.000 A 
ATOM     21  C   UNL     1       4.826   3.963  12.354  0.00  0.00    +0.000 A 
ENDBRANCH  15  16
ENDBRANCH   3  15
TORSDOF 6
ENDMDL
MODEL 7
REMARK VINA RESULT:      -7.0      4.576      5.762
REMARK  Name = 
REMARK  6 active torsions:
REMARK  status: ('A' for Active; 'I' for Inactive)
REMARK    1  A    between atoms: C_2  and  C_3
REMARK    2  A    between atoms: C_3  and  S_4
REMARK    3  A    between atoms: S_4  and  C_5
REMARK    4  A    between atoms: C_5  and  C_6
REMARK    5  A    between atoms: N_13  and  C_14
REMARK    6  A    between atoms: C_14  and  C_15
REMARK                            x       y       z     vdW  Elec       q    Type
REMARK                         _______ _______ _______ _____ _____    ______ ____
ROOT
ATOM      1  O   UNL     1       5.667   7.003  15.968  0.00  0.00    +0.000 OA
ATOM      2  C   UNL     1       5.378   6.426  17.018  0.00  0.00    +0.000 C 
ATOM      3  N   UNL     1       4.211   6.670  17.708  0.00  0.00    +0.000 N 
ATOM      4  H   UNL     1       4.017   6.121  18.538  0.00  0.00    +0.000 HD
ENDROOT
BRANCH   2   5
ATOM      5  C   UNL     1       6.320   5.418  17.652  0.00  0.00    +0.000 C 
BRANCH   5   6
ATOM      6  S   UNL     1       5.595   4.647  19.137  0.00  0.00    +0.000 S 
BRANCH   6   7
ATOM      7  C   UNL     1       4.548   3.374  18.350  0.00  0.00    +0.000 C 
BRANCH   7   8
ATOM      8  C   UNL     1       3.179   3.330  18.978  0.00  0.00    +0.000 A 
ATOM      9  C   UNL     1       2.900   4.034  20.159  0.00  0.00    +0.000 A 
ATOM     10  C   UNL     1       1.615   4.016  20.711  0.00  0.00    +0.000 A 
ATOM     11  C   UNL     1       0.597   3.289  20.095  0.00  0.00    +0.000 A 
ATOM     12  C   UNL     1       0.867   2.565  18.937  0.00  0.00    +0.000 A 
ATOM     13  C   UNL     1       2.150   2.585  18.392  0.00  0.00    +0.000 A 
ATOM     14  F   UNL     1       2.383   1.886  17.272  0.00  0.00    +0.000 F 
ENDBRANCH   7   8
ENDBRANCH   6   7
ENDBRANCH   5   6
ENDBRANCH   2   5
BRANCH   3  15
ATOM     15  C   UNL     1       3.196   7.591  17.238  0.00  0.00    +0.000 C 
BRANCH  15  16
ATOM     16  C   UNL     1       2.385   8.147  18.382  0.00  0.00    +0.000 A 
ATOM     17  C   UNL     1       2.303   7.466  19.607  0.00  0.00    +0.000 A 
ATOM     18  C   UNL     1       1.492   7.950  20.637  0.00  0.00    +0.000 A 
ATOM     19  C   UNL     1       0.764   9.126  20.459  0.00  0.00    +0.000 A 
ATOM     20  C   UNL     1       0.863   9.829  19.262  0.00  0.00    +0.000 A 
ATOM     21  C   UNL     1       1.666   9.342  18.227  0.00  0.00    +0.000 A 
ENDBRANCH  15  16
ENDBRANCH   3  15
TORSDOF 6
ENDMDL
MODEL 8
REMARK VINA RESULT:      -7.0      5.041      7.831
REMARK  Name = 
REMARK  6 active torsions:
REMARK  status: ('A' for Active; 'I' for Inactive)
REMARK    1  A    between atoms: C_2  and  C_3
REMARK    2  A    between atoms: C_3  and  S_4
REMARK    3  A    between atoms: S_4  and  C_5
REMARK    4  A    between atoms: C_5  and  C_6
REMARK    5  A    between atoms: N_13  and  C_14
REMARK    6  A    between atoms: C_14  and  C_15
REMARK                            x       y       z     vdW  Elec       q    Type
REMARK                         _______ _______ _______ _____ _____    ______ ____
ROOT
ATOM      1  O   UNL     1       5.931   4.015  19.059  0.00  0.00    +0.000 OA
ATOM      2  C   UNL     1       5.506   4.130  17.907  0.00  0.00    +0.000 C 
ATOM      3  N   UNL     1       4.619   3.240  17.345  0.00  0.00    +0.000 N 
ATOM      4  H   UNL     1       4.274   3.427  16.410  0.00  0.00    +0.000 HD
ENDROOT
BRANCH   2   5
ATOM      5  C   UNL     1       5.970   5.259  17.002  0.00  0.00    +0.000 C 
BRANCH   5   6
ATOM      6  S   UNL     1       4.675   6.520  16.767  0.00  0.00    +0.000 S 
BRANCH   6   7
ATOM      7  C   UNL     1       3.622   6.163  18.216  0.00  0.00    +0.000 C 
BRANCH   7   8
ATOM      8  C   UNL     1       2.764   7.350  18.572  0.00  0.00    +0.000 A 
ATOM      9  C   UNL     1       2.584   8.411  17.671  0.00  0.00    +0.000 A 
ATOM     10  C   UNL     1       1.755   9.488  17.999  0.00  0.00    +0.000 A 
ATOM     11  C   UNL     1       1.104   9.523  19.232  0.00  0.00    +0.000 A 
ATOM     12  C   UNL     1       1.295   8.489  20.145  0.00  0.00    +0.000 A 
ATOM     13  C   UNL     1       2.123   7.418  19.814  0.00  0.00    +0.000 A 
ATOM     14  F   UNL     1       2.285   6.431  20.707  0.00  0.00    +0.000 F 
ENDBRANCH   7   8
ENDBRANCH   6   7
ENDBRANCH   5   6
ENDBRANCH   2   5
BRANCH   3  15
ATOM     15  C   UNL     1       4.066   2.115  18.072  0.00  0.00    +0.000 C 
BRANCH  15  16
ATOM     16  C   UNL     1       2.937   2.544  18.977  0.00  0.00    +0.000 A 
ATOM     17  C   UNL     1       1.650   2.772  18.467  0.00  0.00    +0.000 A 
ATOM     18  C   UNL     1       0.628   3.239  19.298  0.00  0.00    +0.000 A 
ATOM     19  C   UNL     1       0.879   3.471  20.650  0.00  0.00    +0.000 A 
ATOM     20  C   UNL     1       2.142   3.217  21.175  0.00  0.00    +0.000 A 
ATOM     21  C   UNL     1       3.167   2.759  20.344  0.00  0.00    +0.000 A 
ENDBRANCH  15  16
ENDBRANCH   3  15
TORSDOF 6
ENDMDL
MODEL 9
REMARK VINA RESULT:      -7.0      4.791      7.265
REMARK  Name = 
REMARK  6 active torsions:
REMARK  status: ('A' for Active; 'I' for Inactive)
REMARK    1  A    between atoms: C_2  and  C_3
REMARK    2  A    between atoms: C_3  and  S_4
REMARK    3  A    between atoms: S_4  and  C_5
REMARK    4  A    between atoms: C_5  and  C_6
REMARK    5  A    between atoms: N_13  and  C_14
REMARK    6  A    between atoms: C_14  and  C_15
REMARK                            x       y       z     vdW  Elec       q    Type
REMARK                         _______ _______ _______ _____ _____    ______ ____
ROOT
ATOM      1  O   UNL     1       7.480   6.237  16.043  0.00  0.00    +0.000 OA
ATOM      2  C   UNL     1       7.111   5.065  16.128  0.00  0.00    +0.000 C 
ATOM      3  N   UNL     1       6.722   4.322  15.036  0.00  0.00    +0.000 N 
ATOM      4  H   UNL     1       6.478   3.347  15.175  0.00  0.00    +0.000 HD
ENDROOT
BRANCH   2   5
ATOM      5  C   UNL     1       7.021   4.358  17.470  0.00  0.00    +0.000 C 
BRANCH   5   6
ATOM      6  S   UNL     1       5.616   4.959  18.464  0.00  0.00    +0.000 S 
BRANCH   6   7
ATOM      7  C   UNL     1       4.283   3.907  17.792  0.00  0.00    +0.000 C 
BRANCH   7   8
ATOM      8  C   UNL     1       3.251   3.596  18.845  0.00  0.00    +0.000 A 
ATOM      9  C   UNL     1       3.615   3.003  20.064  0.00  0.00    +0.000 A 
ATOM     10  C   UNL     1       2.654   2.754  21.049  0.00  0.00    +0.000 A 
ATOM     11  C   UNL     1       1.317   3.085  20.824  0.00  0.00    +0.000 A 
ATOM     12  C   UNL     1       0.939   3.649  19.608  0.00  0.00    +0.000 A 
ATOM     13  C   UNL     1       1.901   3.894  18.631  0.00  0.00    +0.000 A 
ATOM     14  F   UNL     1       1.513   4.445  17.471  0.00  0.00    +0.000 F 
ENDBRANCH   7   8
ENDBRANCH   6   7
ENDBRANCH   5   6
ENDBRANCH   2   5
BRANCH   3  15
ATOM     15  C   UNL     1       6.758   4.835  13.681  0.00  0.00    +0.000 C 
BRANCH  15  16
ATOM     16  C   UNL     1       6.472   3.750  12.673  0.00  0.00    +0.000 A 
ATOM     17  C   UNL     1       5.153   3.376  12.372  0.00  0.00    +0.000 A 
ATOM     18  C   UNL     1       4.897   2.321  11.491  0.00  0.00    +0.000 A 
ATOM     19  C   UNL     1       5.955   1.638  10.893  0.00  0.00    +0.000 A 
ATOM     20  C   UNL     1       7.267   2.022  11.157  0.00  0.00    +0.000 A 
ATOM     21  C   UNL     1       7.525   3.070  12.044  0.00  0.00    +0.000 A 
ENDBRANCH  15  16
ENDBRANCH   3  15
TORSDOF 6
ENDMDL
