MODEL 1
REMARK VINA RESULT:      -9.2      0.000      0.000
REMARK  Name = 
REMARK  6 active torsions:
REMARK  status: ('A' for Active; 'I' for Inactive)
REMARK    1  A    between atoms: C_1  and  O_2
REMARK    2  A    between atoms: O_2  and  C_3
REMARK    3  A    between atoms: C_6  and  N_7
REMARK    4  A    between atoms: N_10  and  C_11
REMARK    5  A    between atoms: C_16  and  C_17
REMARK    6  A    between atoms: C_22  and  C_23
REMARK                            x       y       z     vdW  Elec       q    Type
REMARK                         _______ _______ _______ _____ _____    ______ ____
ROOT
ATOM      1  C   UNL     1       7.777   6.806  18.447  0.00  0.00    +0.000 A 
ATOM      2  C   UNL     1       7.676   6.611  17.076  0.00  0.00    +0.000 A 
ATOM      3  C   UNL     1       6.479   6.179  16.540  0.00  0.00    +0.000 A 
ATOM      4  C   UNL     1       5.454   5.798  17.372  0.00  0.00    +0.000 A 
ATOM      5  N   UNL     1       4.200   5.890  16.917  0.00  0.00    +0.000 NA
ATOM      6  C   UNL     1       3.255   5.629  17.836  0.00  0.00    +0.000 A 
ATOM      7  C   UNL     1       3.522   4.606  18.722  0.00  0.00    +0.000 A 
ATOM      8  N   UNL     1       4.747   4.637  19.336  0.00  0.00    +0.000 NA
ATOM      9  C   UNL     1       5.713   5.432  18.705  0.00  0.00    +0.000 A 
ATOM     10  C   UNL     1       6.873   6.072  19.256  0.00  0.00    +0.000 A 
ENDROOT
BRANCH   1  14
ATOM     11  N   UNL     1       9.647   9.968  19.056  0.00  0.00    +0.000 N 
ATOM     12  C   UNL     1       8.635   9.145  18.562  0.00  0.00    +0.000 C 
ATOM     13  O   UNL     1       7.754   9.569  17.821  0.00  0.00    +0.000 OA
ATOM     14  N   UNL     1       8.714   7.789  18.955  0.00  0.00    +0.000 N 
ATOM     15  H   UNL     1      10.413   9.535  19.547  0.00  0.00    +0.000 HD
ATOM     16  H   UNL     1       9.128   7.598  19.856  0.00  0.00    +0.000 HD
BRANCH  11  20
ATOM     17  C   UNL     1      10.057  14.080  17.861  0.00  0.00    +0.000 A 
ATOM     18  C   UNL     1       9.210  13.730  18.907  0.00  0.00    +0.000 A 
ATOM     19  C   UNL     1       9.103  12.398  19.330  0.00  0.00    +0.000 A 
ATOM     20  C   UNL     1       9.803  11.359  18.706  0.00  0.00    +0.000 A 
ATOM     21  C   UNL     1      10.673  11.726  17.664  0.00  0.00    +0.000 A 
ATOM     22  C   UNL     1      10.797  13.074  17.245  0.00  0.00    +0.000 A 
BRANCH  17  24
ATOM     23  C   UNL     1       8.884  16.144  17.935  0.00  0.00    +0.000 C 
ATOM     24  O   UNL     1      10.029  15.405  17.533  0.00  0.00    +0.000 OA
ENDBRANCH  17  24
ENDBRANCH  11  20
ENDBRANCH   1  14
BRANCH   6  25
ATOM     25  C   UNL     1       2.776   6.830  18.600  0.00  0.00    +0.000 A 
ATOM     26  C   UNL     1       2.315   8.073  18.175  0.00  0.00    +0.000 A 
ATOM     27  C   UNL     1       1.606   8.647  19.250  0.00  0.00    +0.000 A 
ATOM     28  C   UNL     1       1.688   7.739  20.276  0.00  0.00    +0.000 A 
ATOM     29  O   UNL     1       2.403   6.645  19.904  0.00  0.00    +0.000 OA
ENDBRANCH   6  25
BRANCH   7  30
ATOM     30  C   UNL     1       2.371   3.815  19.179  0.00  0.00    +0.000 A 
ATOM     31  C   UNL     1       1.237   3.223  18.662  0.00  0.00    +0.000 A 
ATOM     32  C   UNL     1       0.633   2.471  19.717  0.00  0.00    +0.000 A 
ATOM     33  C   UNL     1       1.402   2.679  20.836  0.00  0.00    +0.000 A 
ATOM     34  O   UNL     1       2.424   3.510  20.531  0.00  0.00    +0.000 OA
ENDBRANCH   7  30
TORSDOF 5
ENDMDL
MODEL 2
REMARK VINA RESULT:      -8.8      0.665      1.181
REMARK  Name = 
REMARK  6 active torsions:
REMARK  status: ('A' for Active; 'I' for Inactive)
REMARK    1  A    between atoms: C_1  and  O_2
REMARK    2  A    between atoms: O_2  and  C_3
REMARK    3  A    between atoms: C_6  and  N_7
REMARK    4  A    between atoms: N_10  and  C_11
REMARK    5  A    between atoms: C_16  and  C_17
REMARK    6  A    between atoms: C_22  and  C_23
REMARK                            x       y       z     vdW  Elec       q    Type
REMARK                         _______ _______ _______ _____ _____    ______ ____
ROOT
ATOM      1  C   UNL     1       7.719   6.527  18.548  0.00  0.00    +0.000 A 
ATOM      2  C   UNL     1       7.761   6.272  17.184  0.00  0.00    +0.000 A 
ATOM      3  C   UNL     1       6.640   5.765  16.556  0.00  0.00    +0.000 A 
ATOM      4  C   UNL     1       5.555   5.373  17.302  0.00  0.00    +0.000 A 
ATOM      5  N   UNL     1       4.349   5.390  16.725  0.00  0.00    +0.000 NA
ATOM      6  C   UNL     1       3.330   5.125  17.561  0.00  0.00    +0.000 A 
ATOM      7  C   UNL     1       3.550   4.151  18.513  0.00  0.00    +0.000 A 
ATOM      8  N   UNL     1       4.708   4.263  19.240  0.00  0.00    +0.000 NA
ATOM      9  C   UNL     1       5.697   5.073  18.669  0.00  0.00    +0.000 A 
ATOM     10  C   UNL     1       6.771   5.787  19.299  0.00  0.00    +0.000 A 
ENDROOT
BRANCH   1  14
ATOM     11  N   UNL     1       9.439   9.774  19.148  0.00  0.00    +0.000 N 
ATOM     12  C   UNL     1       8.519   8.889  18.588  0.00  0.00    +0.000 C 
ATOM     13  O   UNL     1       7.745   9.230  17.700  0.00  0.00    +0.000 OA
ATOM     14  N   UNL     1       8.561   7.571  19.099  0.00  0.00    +0.000 N 
ATOM     15  H   UNL     1      10.135   9.402  19.775  0.00  0.00    +0.000 HD
ATOM     16  H   UNL     1       8.848   7.463  20.061  0.00  0.00    +0.000 HD
BRANCH  11  20
ATOM     17  C   UNL     1      10.044  13.873  17.992  0.00  0.00    +0.000 A 
ATOM     18  C   UNL     1      10.715  12.848  17.334  0.00  0.00    +0.000 A 
ATOM     19  C   UNL     1      10.491  11.507  17.676  0.00  0.00    +0.000 A 
ATOM     20  C   UNL     1       9.623  11.137  18.710  0.00  0.00    +0.000 A 
ATOM     21  C   UNL     1       8.934  12.179  19.354  0.00  0.00    +0.000 A 
ATOM     22  C   UNL     1       9.144  13.534  18.999  0.00  0.00    +0.000 A 
BRANCH  17  24
ATOM     23  C   UNL     1       9.398  16.138  17.689  0.00  0.00    +0.000 C 
ATOM     24  O   UNL     1      10.391  15.128  17.581  0.00  0.00    +0.000 OA
ENDBRANCH  17  24
ENDBRANCH  11  20
ENDBRANCH   1  14
BRANCH   6  25
ATOM     25  C   UNL     1       2.730   6.334  18.220  0.00  0.00    +0.000 A 
ATOM     26  C   UNL     1       2.451   6.616  19.554  0.00  0.00    +0.000 A 
ATOM     27  C   UNL     1       2.303   8.014  19.663  0.00  0.00    +0.000 A 
ATOM     28  C   UNL     1       2.478   8.507  18.394  0.00  0.00    +0.000 A 
ATOM     29  O   UNL     1       2.721   7.504  17.511  0.00  0.00    +0.000 OA
ENDBRANCH   6  25
BRANCH   7  30
ATOM     30  C   UNL     1       2.393   3.330  18.893  0.00  0.00    +0.000 A 
ATOM     31  C   UNL     1       1.421   2.553  18.297  0.00  0.00    +0.000 A 
ATOM     32  C   UNL     1       0.686   1.916  19.345  0.00  0.00    +0.000 A 
ATOM     33  C   UNL     1       1.215   2.374  20.528  0.00  0.00    +0.000 A 
ATOM     34  O   UNL     1       2.214   3.246  20.266  0.00  0.00    +0.000 OA
ENDBRANCH   7  30
TORSDOF 5
ENDMDL
MODEL 3
REMARK VINA RESULT:      -8.6      4.523      8.098
REMARK  Name = 
REMARK  6 active torsions:
REMARK  status: ('A' for Active; 'I' for Inactive)
REMARK    1  A    between atoms: C_1  and  O_2
REMARK    2  A    between atoms: O_2  and  C_3
REMARK    3  A    between atoms: C_6  and  N_7
REMARK    4  A    between atoms: N_10  and  C_11
REMARK    5  A    between atoms: C_16  and  C_17
REMARK    6  A    between atoms: C_22  and  C_23
REMARK                            x       y       z     vdW  Elec       q    Type
REMARK                         _______ _______ _______ _____ _____    ______ ____
ROOT
ATOM      1  C   UNL     1       2.388   6.774  19.861  0.00  0.00    +0.000 A 
ATOM      2  C   UNL     1       2.031   5.458  20.124  0.00  0.00    +0.000 A 
ATOM      3  C   UNL     1       2.709   4.435  19.492  0.00  0.00    +0.000 A 
ATOM      4  C   UNL     1       3.617   4.723  18.502  0.00  0.00    +0.000 A 
ATOM      5  N   UNL     1       4.607   3.852  18.276  0.00  0.00    +0.000 NA
ATOM      6  C   UNL     1       5.524   4.273  17.389  0.00  0.00    +0.000 A 
ATOM      7  C   UNL     1       5.052   4.976  16.299  0.00  0.00    +0.000 A 
ATOM      8  N   UNL     1       4.185   6.003  16.567  0.00  0.00    +0.000 NA
ATOM      9  C   UNL     1       3.570   5.954  17.826  0.00  0.00    +0.000 A 
ATOM     10  C   UNL     1       3.023   7.018  18.617  0.00  0.00    +0.000 A 
ENDROOT
BRANCH   1  14
ATOM     11  N   UNL     1       1.012   9.613  21.840  0.00  0.00    +0.000 N 
ATOM     12  C   UNL     1       1.049   8.633  20.849  0.00  0.00    +0.000 C 
ATOM     13  O   UNL     1       0.172   8.535  19.997  0.00  0.00    +0.000 OA
ATOM     14  N   UNL     1       2.178   7.782  20.882  0.00  0.00    +0.000 N 
ATOM     15  H   UNL     1       1.824   9.726  22.426  0.00  0.00    +0.000 HD
ATOM     16  H   UNL     1       2.588   7.603  21.788  0.00  0.00    +0.000 HD
BRANCH  11  20
ATOM     17  C   UNL     1      -2.075  12.605  21.971  0.00  0.00    +0.000 A 
ATOM     18  C   UNL     1      -1.956  11.670  22.993  0.00  0.00    +0.000 A 
ATOM     19  C   UNL     1      -0.926  10.718  22.979  0.00  0.00    +0.000 A 
ATOM     20  C   UNL     1      -0.002  10.635  21.931  0.00  0.00    +0.000 A 
ATOM     21  C   UNL     1      -0.119  11.599  20.914  0.00  0.00    +0.000 A 
ATOM     22  C   UNL     1      -1.147  12.573  20.933  0.00  0.00    +0.000 A 
BRANCH  17  24
ATOM     23  C   UNL     1      -4.437  12.865  21.952  0.00  0.00    +0.000 C 
ATOM     24  O   UNL     1      -3.147  13.443  22.097  0.00  0.00    +0.000 OA
ENDBRANCH  17  24
ENDBRANCH  11  20
ENDBRANCH   1  14
BRANCH   6  25
ATOM     25  C   UNL     1       6.683   5.016  17.990  0.00  0.00    +0.000 A 
ATOM     26  C   UNL     1       7.336   6.180  17.601  0.00  0.00    +0.000 A 
ATOM     27  C   UNL     1       8.046   6.657  18.723  0.00  0.00    +0.000 A 
ATOM     28  C   UNL     1       7.806   5.752  19.727  0.00  0.00    +0.000 A 
ATOM     29  O   UNL     1       6.998   4.749  19.295  0.00  0.00    +0.000 OA
ENDBRANCH   6  25
BRANCH   7  30
ATOM     30  C   UNL     1       5.781   4.797  15.036  0.00  0.00    +0.000 A 
ATOM     31  C   UNL     1       6.983   5.156  14.462  0.00  0.00    +0.000 A 
ATOM     32  C   UNL     1       7.074   4.476  13.208  0.00  0.00    +0.000 A 
ATOM     33  C   UNL     1       5.902   3.775  13.057  0.00  0.00    +0.000 A 
ATOM     34  O   UNL     1       5.109   3.989  14.131  0.00  0.00    +0.000 OA
ENDBRANCH   7  30
TORSDOF 5
ENDMDL
MODEL 4
REMARK VINA RESULT:      -8.4      4.472      7.484
REMARK  Name = 
REMARK  6 active torsions:
REMARK  status: ('A' for Active; 'I' for Inactive)
REMARK    1  A    between atoms: C_1  and  O_2
REMARK    2  A    between atoms: O_2  and  C_3
REMARK    3  A    between atoms: C_6  and  N_7
REMARK    4  A    between atoms: N_10  and  C_11
REMARK    5  A    between atoms: C_16  and  C_17
REMARK    6  A    between atoms: C_22  and  C_23
REMARK                            x       y       z     vdW  Elec       q    Type
REMARK                         _______ _______ _______ _____ _____    ______ ____
ROOT
ATOM      1  C   UNL     1       2.399   6.523  19.771  0.00  0.00    +0.000 A 
ATOM      2  C   UNL     1       2.164   5.190  20.083  0.00  0.00    +0.000 A 
ATOM      3  C   UNL     1       2.916   4.209  19.468  0.00  0.00    +0.000 A 
ATOM      4  C   UNL     1       3.774   4.542  18.449  0.00  0.00    +0.000 A 
ATOM      5  N   UNL     1       4.832   3.754  18.226  0.00  0.00    +0.000 NA
ATOM      6  C   UNL     1       5.690   4.223  17.305  0.00  0.00    +0.000 A 
ATOM      7  C   UNL     1       5.137   4.846  16.205  0.00  0.00    +0.000 A 
ATOM      8  N   UNL     1       4.189   5.802  16.462  0.00  0.00    +0.000 NA
ATOM      9  C   UNL     1       3.607   5.742  17.735  0.00  0.00    +0.000 A 
ATOM     10  C   UNL     1       2.985   6.780  18.506  0.00  0.00    +0.000 A 
ENDROOT
BRANCH   1  14
ATOM     11  N   UNL     1       1.200   9.608  21.477  0.00  0.00    +0.000 N 
ATOM     12  C   UNL     1       1.315   8.662  20.460  0.00  0.00    +0.000 C 
ATOM     13  O   UNL     1       0.770   8.806  19.371  0.00  0.00    +0.000 OA
ATOM     14  N   UNL     1       2.123   7.541  20.766  0.00  0.00    +0.000 N 
ATOM     15  H   UNL     1       1.777   9.497  22.296  0.00  0.00    +0.000 HD
ATOM     16  H   UNL     1       2.156   7.253  21.733  0.00  0.00    +0.000 HD
BRANCH  11  20
ATOM     17  C   UNL     1      -0.893  13.323  20.911  0.00  0.00    +0.000 A 
ATOM     18  C   UNL     1      -1.460  12.302  21.666  0.00  0.00    +0.000 A 
ATOM     19  C   UNL     1      -0.766  11.105  21.891  0.00  0.00    +0.000 A 
ATOM     20  C   UNL     1       0.499  10.862  21.342  0.00  0.00    +0.000 A 
ATOM     21  C   UNL     1       1.071  11.908  20.598  0.00  0.00    +0.000 A 
ATOM     22  C   UNL     1       0.381  13.126  20.383  0.00  0.00    +0.000 A 
BRANCH  17  24
ATOM     23  C   UNL     1      -1.088  15.593  20.238  0.00  0.00    +0.000 C 
ATOM     24  O   UNL     1      -1.698  14.413  20.743  0.00  0.00    +0.000 OA
ENDBRANCH  17  24
ENDBRANCH  11  20
ENDBRANCH   1  14
BRANCH   6  25
ATOM     25  C   UNL     1       6.792   5.082  17.856  0.00  0.00    +0.000 A 
ATOM     26  C   UNL     1       7.183   6.385  17.562  0.00  0.00    +0.000 A 
ATOM     27  C   UNL     1       7.968   6.840  18.642  0.00  0.00    +0.000 A 
ATOM     28  C   UNL     1       8.031   5.791  19.524  0.00  0.00    +0.000 A 
ATOM     29  O   UNL     1       7.339   4.719  19.057  0.00  0.00    +0.000 OA
ENDBRANCH   6  25
BRANCH   7  30
ATOM     30  C   UNL     1       5.852   4.689  14.932  0.00  0.00    +0.000 A 
ATOM     31  C   UNL     1       7.055   5.046  14.357  0.00  0.00    +0.000 A 
ATOM     32  C   UNL     1       7.126   4.398  13.085  0.00  0.00    +0.000 A 
ATOM     33  C   UNL     1       5.942   3.717  12.927  0.00  0.00    +0.000 A 
ATOM     34  O   UNL     1       5.161   3.915  14.012  0.00  0.00    +0.000 OA
ENDBRANCH   7  30
TORSDOF 5
ENDMDL
MODEL 5
REMARK VINA RESULT:      -8.2      4.419      7.428
REMARK  Name = 
REMARK  6 active torsions:
REMARK  status: ('A' for Active; 'I' for Inactive)
REMARK    1  A    between atoms: C_1  and  O_2
REMARK    2  A    between atoms: O_2  and  C_3
REMARK    3  A    between atoms: C_6  and  N_7
REMARK    4  A    between atoms: N_10  and  C_11
REMARK    5  A    between atoms: C_16  and  C_17
REMARK    6  A    between atoms: C_22  and  C_23
REMARK                            x       y       z     vdW  Elec       q    Type
REMARK                         _______ _______ _______ _____ _____    ______ ____
ROOT
ATOM      1  C   UNL     1       2.443   6.650  19.405  0.00  0.00    +0.000 A 
ATOM      2  C   UNL     1       2.174   5.331  19.742  0.00  0.00    +0.000 A 
ATOM      3  C   UNL     1       2.946   4.322  19.201  0.00  0.00    +0.000 A 
ATOM      4  C   UNL     1       3.866   4.614  18.223  0.00  0.00    +0.000 A 
ATOM      5  N   UNL     1       4.923   3.807  18.085  0.00  0.00    +0.000 NA
ATOM      6  C   UNL     1       5.839   4.238  17.201  0.00  0.00    +0.000 A 
ATOM      7  C   UNL     1       5.357   4.833  16.053  0.00  0.00    +0.000 A 
ATOM      8  N   UNL     1       4.409   5.808  16.226  0.00  0.00    +0.000 NA
ATOM      9  C   UNL     1       3.754   5.794  17.465  0.00  0.00    +0.000 A 
ATOM     10  C   UNL     1       3.104   6.862  18.168  0.00  0.00    +0.000 A 
ENDROOT
BRANCH   1  14
ATOM     11  N   UNL     1       1.229   9.819  20.938  0.00  0.00    +0.000 N 
ATOM     12  C   UNL     1       1.392   8.845  19.954  0.00  0.00    +0.000 C 
ATOM     13  O   UNL     1       0.949   8.985  18.819  0.00  0.00    +0.000 OA
ATOM     14  N   UNL     1       2.125   7.702  20.351  0.00  0.00    +0.000 N 
ATOM     15  H   UNL     1       1.729   9.705  21.806  0.00  0.00    +0.000 HD
ATOM     16  H   UNL     1       2.064   7.435  21.323  0.00  0.00    +0.000 HD
BRANCH  11  20
ATOM     17  C   UNL     1      -0.734  13.612  20.429  0.00  0.00    +0.000 A 
ATOM     18  C   UNL     1       0.653  13.527  20.404  0.00  0.00    +0.000 A 
ATOM     19  C   UNL     1       1.299  12.289  20.527  0.00  0.00    +0.000 A 
ATOM     20  C   UNL     1       0.593  11.095  20.717  0.00  0.00    +0.000 A 
ATOM     21  C   UNL     1      -0.809  11.189  20.719  0.00  0.00    +0.000 A 
ATOM     22  C   UNL     1      -1.466  12.436  20.578  0.00  0.00    +0.000 A 
BRANCH  17  24
ATOM     23  C   UNL     1      -0.570  15.761  19.432  0.00  0.00    +0.000 C 
ATOM     24  O   UNL     1      -1.223  14.884  20.338  0.00  0.00    +0.000 OA
ENDBRANCH  17  24
ENDBRANCH  11  20
ENDBRANCH   1  14
BRANCH   6  25
ATOM     25  C   UNL     1       6.919   5.101  17.788  0.00  0.00    +0.000 A 
ATOM     26  C   UNL     1       7.266   6.429  17.561  0.00  0.00    +0.000 A 
ATOM     27  C   UNL     1       8.047   6.851  18.657  0.00  0.00    +0.000 A 
ATOM     28  C   UNL     1       8.152   5.758  19.481  0.00  0.00    +0.000 A 
ATOM     29  O   UNL     1       7.490   4.691  18.962  0.00  0.00    +0.000 OA
ENDBRANCH   6  25
BRANCH   7  30
ATOM     30  C   UNL     1       6.141   4.630  14.828  0.00  0.00    +0.000 A 
ATOM     31  C   UNL     1       6.135   3.832  13.702  0.00  0.00    +0.000 A 
ATOM     32  C   UNL     1       7.165   4.313  12.835  0.00  0.00    +0.000 A 
ATOM     33  C   UNL     1       7.779   5.350  13.496  0.00  0.00    +0.000 A 
ATOM     34  O   UNL     1       7.195   5.523  14.703  0.00  0.00    +0.000 OA
ENDBRANCH   7  30
TORSDOF 5
ENDMDL
MODEL 6
REMARK VINA RESULT:      -8.2      4.771      7.724
REMARK  Name = 
REMARK  6 active torsions:
REMARK  status: ('A' for Active; 'I' for Inactive)
REMARK    1  A    between atoms: C_1  and  O_2
REMARK    2  A    between atoms: O_2  and  C_3
REMARK    3  A    between atoms: C_6  and  N_7
REMARK    4  A    between atoms: N_10  and  C_11
REMARK    5  A    between atoms: C_16  and  C_17
REMARK    6  A    between atoms: C_22  and  C_23
REMARK                            x       y       z     vdW  Elec       q    Type
REMARK                         _______ _______ _______ _____ _____    ______ ____
ROOT
ATOM      1  C   UNL     1       2.171   6.572  19.906  0.00  0.00    +0.000 A 
ATOM      2  C   UNL     1       1.639   5.297  20.039  0.00  0.00    +0.000 A 
ATOM      3  C   UNL     1       2.240   4.241  19.383  0.00  0.00    +0.000 A 
ATOM      4  C   UNL     1       3.255   4.479  18.489  0.00  0.00    +0.000 A 
ATOM      5  N   UNL     1       4.150   3.509  18.271  0.00  0.00    +0.000 NA
ATOM      6  C   UNL     1       5.182   3.870  17.489  0.00  0.00    +0.000 A 
ATOM      7  C   UNL     1       4.890   4.698  16.425  0.00  0.00    +0.000 A 
ATOM      8  N   UNL     1       4.132   5.805  16.706  0.00  0.00    +0.000 NA
ATOM      9  C   UNL     1       3.413   5.750  17.907  0.00  0.00    +0.000 A 
ATOM     10  C   UNL     1       2.933   6.818  18.736  0.00  0.00    +0.000 A 
ENDROOT
BRANCH   1  14
ATOM     11  N   UNL     1       1.100   9.508  21.931  0.00  0.00    +0.000 N 
ATOM     12  C   UNL     1       1.107   8.618  20.858  0.00  0.00    +0.000 C 
ATOM     13  O   UNL     1       0.405   8.787  19.867  0.00  0.00    +0.000 OA
ATOM     14  N   UNL     1       1.998   7.527  20.984  0.00  0.00    +0.000 N 
ATOM     15  H   UNL     1       1.794   9.387  22.652  0.00  0.00    +0.000 HD
ATOM     16  H   UNL     1       2.183   7.194  21.919  0.00  0.00    +0.000 HD
BRANCH  11  20
ATOM     17  C   UNL     1      -1.147  13.166  22.193  0.00  0.00    +0.000 A 
ATOM     18  C   UNL     1      -0.060  13.067  21.332  0.00  0.00    +0.000 A 
ATOM     19  C   UNL     1       0.652  11.865  21.210  0.00  0.00    +0.000 A 
ATOM     20  C   UNL     1       0.334  10.730  21.965  0.00  0.00    +0.000 A 
ATOM     21  C   UNL     1      -0.781  10.834  22.816  0.00  0.00    +0.000 A 
ATOM     22  C   UNL     1      -1.513  12.042  22.929  0.00  0.00    +0.000 A 
BRANCH  17  24
ATOM     23  C   UNL     1      -1.146  15.409  21.410  0.00  0.00    +0.000 C 
ATOM     24  O   UNL     1      -1.718  14.406  22.238  0.00  0.00    +0.000 OA
ENDBRANCH  17  24
ENDBRANCH  11  20
ENDBRANCH   1  14
BRANCH   6  25
ATOM     25  C   UNL     1       6.366   4.419  18.232  0.00  0.00    +0.000 A 
ATOM     26  C   UNL     1       7.597   4.893  17.788  0.00  0.00    +0.000 A 
ATOM     27  C   UNL     1       8.147   5.669  18.829  0.00  0.00    +0.000 A 
ATOM     28  C   UNL     1       7.238   5.611  19.856  0.00  0.00    +0.000 A 
ATOM     29  O   UNL     1       6.167   4.848  19.516  0.00  0.00    +0.000 OA
ENDBRANCH   6  25
BRANCH   7  30
ATOM     30  C   UNL     1       5.695   4.515  15.210  0.00  0.00    +0.000 A 
ATOM     31  C   UNL     1       5.793   3.648  14.141  0.00  0.00    +0.000 A 
ATOM     32  C   UNL     1       6.753   4.199  13.236  0.00  0.00    +0.000 A 
ATOM     33  C   UNL     1       7.228   5.348  13.820  0.00  0.00    +0.000 A 
ATOM     34  O   UNL     1       6.625   5.526  15.017  0.00  0.00    +0.000 OA
ENDBRANCH   7  30
TORSDOF 5
ENDMDL
MODEL 7
REMARK VINA RESULT:      -8.1      4.365      8.427
REMARK  Name = 
REMARK  6 active torsions:
REMARK  status: ('A' for Active; 'I' for Inactive)
REMARK    1  A    between atoms: C_1  and  O_2
REMARK    2  A    between atoms: O_2  and  C_3
REMARK    3  A    between atoms: C_6  and  N_7
REMARK    4  A    between atoms: N_10  and  C_11
REMARK    5  A    between atoms: C_16  and  C_17
REMARK    6  A    between atoms: C_22  and  C_23
REMARK                            x       y       z     vdW  Elec       q    Type
REMARK                         _______ _______ _______ _____ _____    ______ ____
ROOT
ATOM      1  C   UNL     1       1.923   7.366  20.415  0.00  0.00    +0.000 A 
ATOM      2  C   UNL     1       1.631   6.113  20.936  0.00  0.00    +0.000 A 
ATOM      3  C   UNL     1       2.336   5.013  20.489  0.00  0.00    +0.000 A 
ATOM      4  C   UNL     1       3.204   5.139  19.432  0.00  0.00    +0.000 A 
ATOM      5  N   UNL     1       4.224   4.279  19.342  0.00  0.00    +0.000 NA
ATOM      6  C   UNL     1       5.098   4.555  18.360  0.00  0.00    +0.000 A 
ATOM      7  C   UNL     1       4.568   5.017  17.173  0.00  0.00    +0.000 A 
ATOM      8  N   UNL     1       3.665   6.043  17.270  0.00  0.00    +0.000 NA
ATOM      9  C   UNL     1       3.086   6.215  18.534  0.00  0.00    +0.000 A 
ATOM     10  C   UNL     1       2.515   7.390  19.126  0.00  0.00    +0.000 A 
ENDROOT
BRANCH   1  14
ATOM     11  N   UNL     1       0.405  10.393  21.963  0.00  0.00    +0.000 N 
ATOM     12  C   UNL     1       0.461   9.230  21.196  0.00  0.00    +0.000 C 
ATOM     13  O   UNL     1      -0.490   8.847  20.523  0.00  0.00    +0.000 OA
ATOM     14  N   UNL     1       1.697   8.542  21.231  0.00  0.00    +0.000 N 
ATOM     15  H   UNL     1       1.258  10.725  22.386  0.00  0.00    +0.000 HD
ATOM     16  H   UNL     1       2.236   8.615  22.082  0.00  0.00    +0.000 HD
BRANCH  11  20
ATOM     17  C   UNL     1      -3.029  12.983  21.932  0.00  0.00    +0.000 A 
ATOM     18  C   UNL     1      -2.767  12.172  23.031  0.00  0.00    +0.000 A 
ATOM     19  C   UNL     1      -1.627  11.357  23.066  0.00  0.00    +0.000 A 
ATOM     20  C   UNL     1      -0.727  11.288  21.997  0.00  0.00    +0.000 A 
ATOM     21  C   UNL     1      -0.989  12.128  20.901  0.00  0.00    +0.000 A 
ATOM     22  C   UNL     1      -2.130  12.966  20.868  0.00  0.00    +0.000 A 
BRANCH  17  24
ATOM     23  C   UNL     1      -5.344  12.986  22.464  0.00  0.00    +0.000 C 
ATOM     24  O   UNL     1      -4.194  13.691  22.019  0.00  0.00    +0.000 OA
ENDBRANCH  17  24
ENDBRANCH  11  20
ENDBRANCH   1  14
BRANCH   6  25
ATOM     25  C   UNL     1       6.240   5.442  18.769  0.00  0.00    +0.000 A 
ATOM     26  C   UNL     1       7.295   5.242  19.654  0.00  0.00    +0.000 A 
ATOM     27  C   UNL     1       8.287   6.195  19.344  0.00  0.00    +0.000 A 
ATOM     28  C   UNL     1       7.780   6.936  18.306  0.00  0.00    +0.000 A 
ATOM     29  O   UNL     1       6.540   6.503  17.958  0.00  0.00    +0.000 OA
ENDBRANCH   6  25
BRANCH   7  30
ATOM     30  C   UNL     1       5.271   4.626  15.943  0.00  0.00    +0.000 A 
ATOM     31  C   UNL     1       5.710   3.483  15.308  0.00  0.00    +0.000 A 
ATOM     32  C   UNL     1       6.204   3.874  14.025  0.00  0.00    +0.000 A 
ATOM     33  C   UNL     1       6.086   5.242  13.961  0.00  0.00    +0.000 A 
ATOM     34  O   UNL     1       5.561   5.702  15.118  0.00  0.00    +0.000 OA
ENDBRANCH   7  30
TORSDOF 5
ENDMDL
MODEL 8
REMARK VINA RESULT:      -8.1      4.021      7.337
REMARK  Name = 
REMARK  6 active torsions:
REMARK  status: ('A' for Active; 'I' for Inactive)
REMARK    1  A    between atoms: C_1  and  O_2
REMARK    2  A    between atoms: O_2  and  C_3
REMARK    3  A    between atoms: C_6  and  N_7
REMARK    4  A    between atoms: N_10  and  C_11
REMARK    5  A    between atoms: C_16  and  C_17
REMARK    6  A    between atoms: C_22  and  C_23
REMARK                            x       y       z     vdW  Elec       q    Type
REMARK                         _______ _______ _______ _____ _____    ______ ____
ROOT
ATOM      1  C   UNL     1       2.045   6.685  20.135  0.00  0.00    +0.000 A 
ATOM      2  C   UNL     1       2.148   5.426  20.712  0.00  0.00    +0.000 A 
ATOM      3  C   UNL     1       3.109   4.548  20.252  0.00  0.00    +0.000 A 
ATOM      4  C   UNL     1       3.844   4.861  19.135  0.00  0.00    +0.000 A 
ATOM      5  N   UNL     1       5.059   4.317  19.003  0.00  0.00    +0.000 NA
ATOM      6  C   UNL     1       5.763   4.780  17.956  0.00  0.00    +0.000 A 
ATOM      7  C   UNL     1       5.058   5.017  16.793  0.00  0.00    +0.000 A 
ATOM      8  N   UNL     1       3.908   5.753  16.920  0.00  0.00    +0.000 NA
ATOM      9  C   UNL     1       3.377   5.816  18.215  0.00  0.00    +0.000 A 
ATOM     10  C   UNL     1       2.532   6.812  18.809  0.00  0.00    +0.000 A 
ENDROOT
BRANCH   1  14
ATOM     11  N   UNL     1       0.693   9.988  21.196  0.00  0.00    +0.000 N 
ATOM     12  C   UNL     1       1.067   8.973  20.317  0.00  0.00    +0.000 C 
ATOM     13  O   UNL     1       1.008   9.110  19.100  0.00  0.00    +0.000 OA
ATOM     14  N   UNL     1       1.542   7.789  20.928  0.00  0.00    +0.000 N 
ATOM     15  H   UNL     1       0.890   9.864  22.176  0.00  0.00    +0.000 HD
ATOM     16  H   UNL     1       1.162   7.560  21.836  0.00  0.00    +0.000 HD
BRANCH  11  20
ATOM     17  C   UNL     1      -0.652  13.924  20.102  0.00  0.00    +0.000 A 
ATOM     18  C   UNL     1       0.706  13.641  20.184  0.00  0.00    +0.000 A 
ATOM     19  C   UNL     1       1.153  12.350  20.498  0.00  0.00    +0.000 A 
ATOM     20  C   UNL     1       0.268  11.303  20.780  0.00  0.00    +0.000 A 
ATOM     21  C   UNL     1      -1.103  11.595  20.674  0.00  0.00    +0.000 A 
ATOM     22  C   UNL     1      -1.559  12.894  20.339  0.00  0.00    +0.000 A 
BRANCH  17  24
ATOM     23  C   UNL     1      -0.039  15.922  18.972  0.00  0.00    +0.000 C 
ATOM     24  O   UNL     1      -0.940  15.231  19.827  0.00  0.00    +0.000 OA
ENDBRANCH  17  24
ENDBRANCH  11  20
ENDBRANCH   1  14
BRANCH   6  25
ATOM     25  C   UNL     1       6.629   5.969  18.259  0.00  0.00    +0.000 A 
ATOM     26  C   UNL     1       7.819   6.090  18.970  0.00  0.00    +0.000 A 
ATOM     27  C   UNL     1       8.412   7.311  18.589  0.00  0.00    +0.000 A 
ATOM     28  C   UNL     1       7.548   7.879  17.686  0.00  0.00    +0.000 A 
ATOM     29  O   UNL     1       6.461   7.088  17.489  0.00  0.00    +0.000 OA
ENDBRANCH   6  25
BRANCH   7  30
ATOM     30  C   UNL     1       5.771   4.780  15.531  0.00  0.00    +0.000 A 
ATOM     31  C   UNL     1       7.035   4.935  14.999  0.00  0.00    +0.000 A 
ATOM     32  C   UNL     1       7.027   4.329  13.704  0.00  0.00    +0.000 A 
ATOM     33  C   UNL     1       5.746   3.877  13.492  0.00  0.00    +0.000 A 
ATOM     34  O   UNL     1       4.981   4.174  14.566  0.00  0.00    +0.000 OA
ENDBRANCH   7  30
TORSDOF 5
ENDMDL
MODEL 9
REMARK VINA RESULT:      -8.1      4.328      8.341
REMARK  Name = 
REMARK  6 active torsions:
REMARK  status: ('A' for Active; 'I' for Inactive)
REMARK    1  A    between atoms: C_1  and  O_2
REMARK    2  A    between atoms: O_2  and  C_3
REMARK    3  A    between atoms: C_6  and  N_7
REMARK    4  A    between atoms: N_10  and  C_11
REMARK    5  A    between atoms: C_16  and  C_17
REMARK    6  A    between atoms: C_22  and  C_23
REMARK                            x       y       z     vdW  Elec       q    Type
REMARK                         _______ _______ _______ _____ _____    ______ ____
ROOT
ATOM      1  C   UNL     1       1.864   7.264  20.535  0.00  0.00    +0.000 A 
ATOM      2  C   UNL     1       1.613   5.972  20.978  0.00  0.00    +0.000 A 
ATOM      3  C   UNL     1       2.333   4.922  20.442  0.00  0.00    +0.000 A 
ATOM      4  C   UNL     1       3.171   5.140  19.376  0.00  0.00    +0.000 A 
ATOM      5  N   UNL     1       4.209   4.313  19.207  0.00  0.00    +0.000 NA
ATOM      6  C   UNL     1       5.053   4.675  18.225  0.00  0.00    +0.000 A 
ATOM      7  C   UNL     1       4.483   5.201  17.084  0.00  0.00    +0.000 A 
ATOM      8  N   UNL     1       3.559   6.196  17.269  0.00  0.00    +0.000 NA
ATOM      9  C   UNL     1       3.007   6.269  18.555  0.00  0.00    +0.000 A 
ATOM     10  C   UNL     1       2.423   7.388  19.237  0.00  0.00    +0.000 A 
ENDROOT
BRANCH   1  14
ATOM     11  N   UNL     1       0.403  10.261  22.193  0.00  0.00    +0.000 N 
ATOM     12  C   UNL     1       0.463   9.171  21.326  0.00  0.00    +0.000 C 
ATOM     13  O   UNL     1      -0.425   8.934  20.515  0.00  0.00    +0.000 OA
ATOM     14  N   UNL     1       1.630   8.378  21.433  0.00  0.00    +0.000 N 
ATOM     15  H   UNL     1       1.221  10.478  22.740  0.00  0.00    +0.000 HD
ATOM     16  H   UNL     1       2.066   8.327  22.342  0.00  0.00    +0.000 HD
BRANCH  11  20
ATOM     17  C   UNL     1      -2.695  13.242  22.322  0.00  0.00    +0.000 A 
ATOM     18  C   UNL     1      -1.737  13.264  21.314  0.00  0.00    +0.000 A 
ATOM     19  C   UNL     1      -0.749  12.271  21.241  0.00  0.00    +0.000 A 
ATOM     20  C   UNL     1      -0.654  11.244  22.187  0.00  0.00    +0.000 A 
ATOM     21  C   UNL     1      -1.640  11.219  23.188  0.00  0.00    +0.000 A 
ATOM     22  C   UNL     1      -2.650  12.210  23.255  0.00  0.00    +0.000 A 
BRANCH  17  24
ATOM     23  C   UNL     1      -4.879  14.026  21.813  0.00  0.00    +0.000 C 
ATOM     24  O   UNL     1      -3.568  14.292  22.291  0.00  0.00    +0.000 OA
ENDBRANCH  17  24
ENDBRANCH  11  20
ENDBRANCH   1  14
BRANCH   6  25
ATOM     25  C   UNL     1       6.183   5.561  18.667  0.00  0.00    +0.000 A 
ATOM     26  C   UNL     1       7.186   5.378  19.613  0.00  0.00    +0.000 A 
ATOM     27  C   UNL     1       8.207   6.308  19.327  0.00  0.00    +0.000 A 
ATOM     28  C   UNL     1       7.766   7.021  18.239  0.00  0.00    +0.000 A 
ATOM     29  O   UNL     1       6.540   6.592  17.840  0.00  0.00    +0.000 OA
ENDBRANCH   6  25
BRANCH   7  30
ATOM     30  C   UNL     1       5.165   4.910  15.815  0.00  0.00    +0.000 A 
ATOM     31  C   UNL     1       5.584   5.570  14.678  0.00  0.00    +0.000 A 
ATOM     32  C   UNL     1       6.332   4.635  13.898  0.00  0.00    +0.000 A 
ATOM     33  C   UNL     1       6.292   3.439  14.575  0.00  0.00    +0.000 A 
ATOM     34  O   UNL     1       5.566   3.588  15.705  0.00  0.00    +0.000 OA
ENDBRANCH   7  30
TORSDOF 5
ENDMDL
