MODEL 1
REMARK VINA RESULT:      -3.5      0.000      0.000
REMARK  Name = 
REMARK  0 active torsions:
REMARK  status: ('A' for Active; 'I' for Inactive)
REMARK                            x       y       z     vdW  Elec       q    Type
REMARK                         _______ _______ _______ _____ _____    ______ ____
ROOT
ATOM      1  S   UNL     1       6.407   4.230  14.421  0.00  0.00    +0.000 S 
ATOM      2  C   UNL     1       6.855   4.864  15.871  0.00  0.00    +0.000 C 
ATOM      3  N   UNL     1       7.225   6.175  16.102  0.00  0.00    +0.000 N 
ATOM      4  C   UNL     1       7.384   6.411  17.515  0.00  0.00    +0.000 C 
ATOM      5  C   UNL     1       7.509   5.004  18.091  0.00  0.00    +0.000 C 
ATOM      6  N   UNL     1       6.924   4.175  17.068  0.00  0.00    +0.000 N 
ATOM      7  H   UNL     1       7.131   6.885  15.386  0.00  0.00    +0.000 HD
ATOM      8  H   UNL     1       6.808   3.171  17.110  0.00  0.00    +0.000 HD
ENDROOT
TORSDOF 0
ENDMDL
MODEL 2
REMARK VINA RESULT:      -3.5      0.137      1.570
REMARK  Name = 
REMARK  0 active torsions:
REMARK  status: ('A' for Active; 'I' for Inactive)
REMARK                            x       y       z     vdW  Elec       q    Type
REMARK                         _______ _______ _______ _____ _____    ______ ____
ROOT
ATOM      1  S   UNL     1       6.532   4.392  14.423  0.00  0.00    +0.000 S 
ATOM      2  C   UNL     1       6.940   4.955  15.914  0.00  0.00    +0.000 C 
ATOM      3  N   UNL     1       6.992   4.209  17.074  0.00  0.00    +0.000 N 
ATOM      4  C   UNL     1       7.552   4.989  18.150  0.00  0.00    +0.000 C 
ATOM      5  C   UNL     1       7.424   6.422  17.642  0.00  0.00    +0.000 C 
ATOM      6  N   UNL     1       7.291   6.258  16.217  0.00  0.00    +0.000 N 
ATOM      7  H   UNL     1       6.888   3.201  17.062  0.00  0.00    +0.000 HD
ATOM      8  H   UNL     1       7.207   7.003  15.537  0.00  0.00    +0.000 HD
ENDROOT
TORSDOF 0
ENDMDL
MODEL 3
REMARK VINA RESULT:      -3.4      2.040      3.136
REMARK  Name = 
REMARK  0 active torsions:
REMARK  status: ('A' for Active; 'I' for Inactive)
REMARK                            x       y       z     vdW  Elec       q    Type
REMARK                         _______ _______ _______ _____ _____    ______ ____
ROOT
ATOM      1  S   UNL     1       7.472   5.052  18.109  0.00  0.00    +0.000 S 
ATOM      2  C   UNL     1       7.033   4.751  16.552  0.00  0.00    +0.000 C 
ATOM      3  N   UNL     1       6.185   3.746  16.131  0.00  0.00    +0.000 N 
ATOM      4  C   UNL     1       5.893   3.890  14.726  0.00  0.00    +0.000 C 
ATOM      5  C   UNL     1       6.998   4.821  14.235  0.00  0.00    +0.000 C 
ATOM      6  N   UNL     1       7.449   5.465  15.443  0.00  0.00    +0.000 N 
ATOM      7  H   UNL     1       5.669   3.176  16.790  0.00  0.00    +0.000 HD
ATOM      8  H   UNL     1       8.167   6.174  15.507  0.00  0.00    +0.000 HD
ENDROOT
TORSDOF 0
ENDMDL
MODEL 4
REMARK VINA RESULT:      -3.4      2.035      2.766
REMARK  Name = 
REMARK  0 active torsions:
REMARK  status: ('A' for Active; 'I' for Inactive)
REMARK                            x       y       z     vdW  Elec       q    Type
REMARK                         _______ _______ _______ _____ _____    ______ ____
ROOT
ATOM      1  S   UNL     1       7.456   5.200  18.240  0.00  0.00    +0.000 S 
ATOM      2  C   UNL     1       7.035   4.831  16.693  0.00  0.00    +0.000 C 
ATOM      3  N   UNL     1       7.438   5.510  15.561  0.00  0.00    +0.000 N 
ATOM      4  C   UNL     1       7.018   4.805  14.375  0.00  0.00    +0.000 C 
ATOM      5  C   UNL     1       5.936   3.864  14.896  0.00  0.00    +0.000 C 
ATOM      6  N   UNL     1       6.218   3.785  16.306  0.00  0.00    +0.000 N 
ATOM      7  H   UNL     1       8.138   6.241  15.602  0.00  0.00    +0.000 HD
ATOM      8  H   UNL     1       5.714   3.225  16.983  0.00  0.00    +0.000 HD
ENDROOT
TORSDOF 0
ENDMDL
MODEL 5
REMARK VINA RESULT:      -3.3     11.214     11.726
REMARK  Name = 
REMARK  0 active torsions:
REMARK  status: ('A' for Active; 'I' for Inactive)
REMARK                            x       y       z     vdW  Elec       q    Type
REMARK                         _______ _______ _______ _____ _____    ______ ____
ROOT
ATOM      1  S   UNL     1      10.999   4.189  27.761  0.00  0.00    +0.000 S 
ATOM      2  C   UNL     1       9.414   4.621  27.837  0.00  0.00    +0.000 C 
ATOM      3  N   UNL     1       8.398   4.111  27.052  0.00  0.00    +0.000 N 
ATOM      4  C   UNL     1       7.118   4.592  27.512  0.00  0.00    +0.000 C 
ATOM      5  C   UNL     1       7.488   5.795  28.374  0.00  0.00    +0.000 C 
ATOM      6  N   UNL     1       8.871   5.556  28.700  0.00  0.00    +0.000 N 
ATOM      7  H   UNL     1       8.550   3.325  26.432  0.00  0.00    +0.000 HD
ATOM      8  H   UNL     1       9.454   6.140  29.285  0.00  0.00    +0.000 HD
ENDROOT
TORSDOF 0
ENDMDL
MODEL 6
REMARK VINA RESULT:      -3.3      1.113      1.485
REMARK  Name = 
REMARK  0 active torsions:
REMARK  status: ('A' for Active; 'I' for Inactive)
REMARK                            x       y       z     vdW  Elec       q    Type
REMARK                         _______ _______ _______ _____ _____    ______ ____
ROOT
ATOM      1  S   UNL     1       6.285   4.144  14.274  0.00  0.00    +0.000 S 
ATOM      2  C   UNL     1       6.516   4.385  15.884  0.00  0.00    +0.000 C 
ATOM      3  N   UNL     1       5.520   4.526  16.832  0.00  0.00    +0.000 N 
ATOM      4  C   UNL     1       6.087   4.548  18.157  0.00  0.00    +0.000 C 
ATOM      5  C   UNL     1       7.560   4.853  17.900  0.00  0.00    +0.000 C 
ATOM      6  N   UNL     1       7.739   4.479  16.521  0.00  0.00    +0.000 N 
ATOM      7  H   UNL     1       4.546   4.371  16.604  0.00  0.00    +0.000 HD
ATOM      8  H   UNL     1       8.607   4.520  16.001  0.00  0.00    +0.000 HD
ENDROOT
TORSDOF 0
ENDMDL
MODEL 7
REMARK VINA RESULT:      -3.2      1.179      1.399
REMARK  Name = 
REMARK  0 active torsions:
REMARK  status: ('A' for Active; 'I' for Inactive)
REMARK                            x       y       z     vdW  Elec       q    Type
REMARK                         _______ _______ _______ _____ _____    ______ ____
ROOT
ATOM      1  S   UNL     1       6.253   4.078  14.412  0.00  0.00    +0.000 S 
ATOM      2  C   UNL     1       6.507   4.346  16.015  0.00  0.00    +0.000 C 
ATOM      3  N   UNL     1       7.731   4.326  16.654  0.00  0.00    +0.000 N 
ATOM      4  C   UNL     1       7.593   4.772  18.019  0.00  0.00    +0.000 C 
ATOM      5  C   UNL     1       6.095   4.641  18.277  0.00  0.00    +0.000 C 
ATOM      6  N   UNL     1       5.530   4.631  16.952  0.00  0.00    +0.000 N 
ATOM      7  H   UNL     1       8.598   4.255  16.137  0.00  0.00    +0.000 HD
ATOM      8  H   UNL     1       4.546   4.579  16.724  0.00  0.00    +0.000 HD
ENDROOT
TORSDOF 0
ENDMDL
MODEL 8
REMARK VINA RESULT:      -3.2      3.677      4.085
REMARK  Name = 
REMARK  0 active torsions:
REMARK  status: ('A' for Active; 'I' for Inactive)
REMARK                            x       y       z     vdW  Elec       q    Type
REMARK                         _______ _______ _______ _____ _____    ______ ____
ROOT
ATOM      1  S   UNL     1       3.410   1.761  18.288  0.00  0.00    +0.000 S 
ATOM      2  C   UNL     1       4.104   3.217  18.611  0.00  0.00    +0.000 C 
ATOM      3  N   UNL     1       5.399   3.417  19.046  0.00  0.00    +0.000 N 
ATOM      4  C   UNL     1       5.714   4.824  19.059  0.00  0.00    +0.000 C 
ATOM      5  C   UNL     1       4.341   5.488  19.012  0.00  0.00    +0.000 C 
ATOM      6  N   UNL     1       3.489   4.450  18.490  0.00  0.00    +0.000 N 
ATOM      7  H   UNL     1       6.067   2.658  19.088  0.00  0.00    +0.000 HD
ATOM      8  H   UNL     1       2.499   4.533  18.297  0.00  0.00    +0.000 HD
ENDROOT
TORSDOF 0
ENDMDL
MODEL 9
REMARK VINA RESULT:      -3.1      4.077      4.545
REMARK  Name = 
REMARK  0 active torsions:
REMARK  status: ('A' for Active; 'I' for Inactive)
REMARK                            x       y       z     vdW  Elec       q    Type
REMARK                         _______ _______ _______ _____ _____    ______ ____
ROOT
ATOM      1  S   UNL     1       5.905   5.222  19.028  0.00  0.00    +0.000 S 
ATOM      2  C   UNL     1       4.893   3.942  18.819  0.00  0.00    +0.000 C 
ATOM      3  N   UNL     1       3.825   3.890  17.945  0.00  0.00    +0.000 N 
ATOM      4  C   UNL     1       3.273   2.559  17.904  0.00  0.00    +0.000 C 
ATOM      5  C   UNL     1       3.827   1.914  19.171  0.00  0.00    +0.000 C 
ATOM      6  N   UNL     1       4.969   2.734  19.488  0.00  0.00    +0.000 N 
ATOM      7  H   UNL     1       3.658   4.624  17.268  0.00  0.00    +0.000 HD
ATOM      8  H   UNL     1       5.606   2.594  20.261  0.00  0.00    +0.000 HD
ENDROOT
TORSDOF 0
ENDMDL
