MODEL 1
REMARK VINA RESULT:      -8.8      0.000      0.000
REMARK  Name = 
REMARK  10 active torsions:
REMARK  status: ('A' for Active; 'I' for Inactive)
REMARK    1  A    between atoms: C_1  and  C_2
REMARK    2  A    between atoms: C_2  and  C_3
REMARK    3  A    between atoms: C_2  and  C_4
REMARK    4  A    between atoms: C_2  and  C_5
REMARK    5  A    between atoms: C_7  and  C_8
REMARK    6  A    between atoms: C_20  and  C_21
REMARK    7  A    between atoms: C_21  and  C_22
REMARK    8  A    between atoms: C_21  and  C_23
REMARK    9  A    between atoms: C_21  and  C_24
REMARK   10  A    between atoms: C_25  and  O_26
REMARK                            x       y       z     vdW  Elec       q    Type
REMARK                         _______ _______ _______ _____ _____    ______ ____
ROOT
ATOM      1  C   UNL     1       3.294   4.303  18.723  0.00  0.00    +0.000 A 
ATOM      2  C   UNL     1       2.504   5.472  18.621  0.00  0.00    +0.000 A 
ATOM      3  C   UNL     1       3.058   6.716  18.325  0.00  0.00    +0.000 A 
ATOM      4  C   UNL     1       4.434   6.810  18.115  0.00  0.00    +0.000 A 
ATOM      5  C   UNL     1       5.296   5.693  18.190  0.00  0.00    +0.000 A 
ATOM      6  C   UNL     1       4.690   4.457  18.534  0.00  0.00    +0.000 A 
ENDROOT
BRANCH   3   7
ATOM      7  C   UNL     1       2.219   7.917  18.207  0.00  0.00    +0.000 C 
ATOM      8  C   UNL     1       1.546   8.489  19.219  0.00  0.00    +0.000 C 
ATOM      9  C   UNL     1       1.529   8.021  20.652  0.00  0.00    +0.000 C 
ATOM     10  O   UNL     1       2.107   7.077  21.157  0.00  0.00    +0.000 OA
ATOM     11  N   UNL     1       0.695   8.908  21.310  0.00  0.00    +0.000 N 
ATOM     12  C   UNL     1       0.198   9.872  20.449  0.00  0.00    +0.000 A 
ATOM     13  C   UNL     1      -0.667  10.901  20.780  0.00  0.00    +0.000 A 
ATOM     14  C   UNL     1      -1.050  11.772  19.760  0.00  0.00    +0.000 A 
ATOM     15  C   UNL     1      -0.565  11.596  18.450  0.00  0.00    +0.000 A 
ATOM     16  C   UNL     1       0.311  10.547  18.135  0.00  0.00    +0.000 A 
ATOM     17  C   UNL     1       0.683   9.683  19.151  0.00  0.00    +0.000 A 
ATOM     18  H   UNL     1       0.497   8.830  22.296  0.00  0.00    +0.000 HD
ENDBRANCH   3   7
BRANCH   1  20
ATOM     19  C   UNL     1       1.066   3.160  18.591  0.00  0.00    +0.000 C 
ATOM     20  C   UNL     1       2.557   2.960  18.966  0.00  0.00    +0.000 C 
ATOM     21  C   UNL     1       2.654   2.551  20.454  0.00  0.00    +0.000 C 
ATOM     22  C   UNL     1       3.038   1.739  18.151  0.00  0.00    +0.000 C 
ENDBRANCH   1  20
BRANCH   5  23
ATOM     23  C   UNL     1       6.816   5.874  17.928  0.00  0.00    +0.000 C 
ATOM     24  C   UNL     1       7.145   7.273  17.335  0.00  0.00    +0.000 C 
ATOM     25  C   UNL     1       7.631   5.734  19.232  0.00  0.00    +0.000 C 
ATOM     26  C   UNL     1       7.372   4.866  16.892  0.00  0.00    +0.000 C 
ENDBRANCH   5  23
BRANCH   6  27
ATOM     27  O   UNL     1       5.495   3.373  18.736  0.00  0.00    +0.000 OA
ATOM     28  H   UNL     1       5.784   3.074  17.861  0.00  0.00    +0.000 HD
ENDBRANCH   6  27
TORSDOF 4
ENDMDL
MODEL 2
REMARK VINA RESULT:      -8.7      0.080      1.200
REMARK  Name = 
REMARK  10 active torsions:
REMARK  status: ('A' for Active; 'I' for Inactive)
REMARK    1  A    between atoms: C_1  and  C_2
REMARK    2  A    between atoms: C_2  and  C_3
REMARK    3  A    between atoms: C_2  and  C_4
REMARK    4  A    between atoms: C_2  and  C_5
REMARK    5  A    between atoms: C_7  and  C_8
REMARK    6  A    between atoms: C_20  and  C_21
REMARK    7  A    between atoms: C_21  and  C_22
REMARK    8  A    between atoms: C_21  and  C_23
REMARK    9  A    between atoms: C_21  and  C_24
REMARK   10  A    between atoms: C_25  and  O_26
REMARK                            x       y       z     vdW  Elec       q    Type
REMARK                         _______ _______ _______ _____ _____    ______ ____
ROOT
ATOM      1  C   UNL     1       3.297   4.277  18.693  0.00  0.00    +0.000 A 
ATOM      2  C   UNL     1       2.506   5.444  18.586  0.00  0.00    +0.000 A 
ATOM      3  C   UNL     1       3.062   6.692  18.309  0.00  0.00    +0.000 A 
ATOM      4  C   UNL     1       4.442   6.791  18.124  0.00  0.00    +0.000 A 
ATOM      5  C   UNL     1       5.305   5.676  18.207  0.00  0.00    +0.000 A 
ATOM      6  C   UNL     1       4.696   4.435  18.530  0.00  0.00    +0.000 A 
ENDROOT
BRANCH   3   7
ATOM      7  C   UNL     1       2.222   7.892  18.186  0.00  0.00    +0.000 C 
ATOM      8  C   UNL     1       1.548   8.467  19.194  0.00  0.00    +0.000 C 
ATOM      9  C   UNL     1       1.531   8.007  20.629  0.00  0.00    +0.000 C 
ATOM     10  O   UNL     1       2.110   7.065  21.138  0.00  0.00    +0.000 OA
ATOM     11  N   UNL     1       0.696   8.896  21.283  0.00  0.00    +0.000 N 
ATOM     12  C   UNL     1       0.199   9.856  20.417  0.00  0.00    +0.000 A 
ATOM     13  C   UNL     1      -0.667  10.885  20.743  0.00  0.00    +0.000 A 
ATOM     14  C   UNL     1      -1.050  11.751  19.719  0.00  0.00    +0.000 A 
ATOM     15  C   UNL     1      -0.565  11.569  18.410  0.00  0.00    +0.000 A 
ATOM     16  C   UNL     1       0.311  10.519  18.100  0.00  0.00    +0.000 A 
ATOM     17  C   UNL     1       0.684   9.660  19.120  0.00  0.00    +0.000 A 
ATOM     18  H   UNL     1       0.498   8.822  22.269  0.00  0.00    +0.000 HD
ENDBRANCH   3   7
BRANCH   1  20
ATOM     19  C   UNL     1       2.702   2.545  20.408  0.00  0.00    +0.000 C 
ATOM     20  C   UNL     1       2.559   2.930  18.913  0.00  0.00    +0.000 C 
ATOM     21  C   UNL     1       3.191   1.818  18.041  0.00  0.00    +0.000 C 
ATOM     22  C   UNL     1       1.044   2.904  18.612  0.00  0.00    +0.000 C 
ENDBRANCH   1  20
BRANCH   5  23
ATOM     23  C   UNL     1       6.829   5.862  17.972  0.00  0.00    +0.000 C 
ATOM     24  C   UNL     1       7.409   4.789  17.010  0.00  0.00    +0.000 C 
ATOM     25  C   UNL     1       7.135   7.241  17.348  0.00  0.00    +0.000 C 
ATOM     26  C   UNL     1       7.659   5.717  19.272  0.00  0.00    +0.000 C 
ENDBRANCH   5  23
BRANCH   6  27
ATOM     27  O   UNL     1       5.500   3.351  18.739  0.00  0.00    +0.000 OA
ATOM     28  H   UNL     1       5.834   3.082  17.870  0.00  0.00    +0.000 HD
ENDBRANCH   6  27
TORSDOF 4
ENDMDL
MODEL 3
REMARK VINA RESULT:      -8.7      0.459      3.673
REMARK  Name = 
REMARK  10 active torsions:
REMARK  status: ('A' for Active; 'I' for Inactive)
REMARK    1  A    between atoms: C_1  and  C_2
REMARK    2  A    between atoms: C_2  and  C_3
REMARK    3  A    between atoms: C_2  and  C_4
REMARK    4  A    between atoms: C_2  and  C_5
REMARK    5  A    between atoms: C_7  and  C_8
REMARK    6  A    between atoms: C_20  and  C_21
REMARK    7  A    between atoms: C_21  and  C_22
REMARK    8  A    between atoms: C_21  and  C_23
REMARK    9  A    between atoms: C_21  and  C_24
REMARK   10  A    between atoms: C_25  and  O_26
REMARK                            x       y       z     vdW  Elec       q    Type
REMARK                         _______ _______ _______ _____ _____    ______ ____
ROOT
ATOM      1  C   UNL     1       5.145   5.859  17.810  0.00  0.00    +0.000 A 
ATOM      2  C   UNL     1       4.321   7.008  17.786  0.00  0.00    +0.000 A 
ATOM      3  C   UNL     1       2.959   6.949  18.078  0.00  0.00    +0.000 A 
ATOM      4  C   UNL     1       2.393   5.719  18.413  0.00  0.00    +0.000 A 
ATOM      5  C   UNL     1       3.143   4.523  18.468  0.00  0.00    +0.000 A 
ATOM      6  C   UNL     1       4.516   4.628  18.124  0.00  0.00    +0.000 A 
ENDROOT
BRANCH   3   7
ATOM      7  C   UNL     1       2.122   8.158  18.063  0.00  0.00    +0.000 C 
ATOM      8  C   UNL     1       1.490   8.670  19.130  0.00  0.00    +0.000 C 
ATOM      9  C   UNL     1       1.523   8.119  20.533  0.00  0.00    +0.000 C 
ATOM     10  O   UNL     1       2.115   7.145  20.959  0.00  0.00    +0.000 OA
ATOM     11  N   UNL     1       0.719   8.967  21.273  0.00  0.00    +0.000 N 
ATOM     12  C   UNL     1       0.195   9.982  20.488  0.00  0.00    +0.000 A 
ATOM     13  C   UNL     1      -0.652  10.992  20.912  0.00  0.00    +0.000 A 
ATOM     14  C   UNL     1      -1.068  11.923  19.960  0.00  0.00    +0.000 A 
ATOM     15  C   UNL     1      -0.632  11.823  18.624  0.00  0.00    +0.000 A 
ATOM     16  C   UNL     1       0.226  10.792  18.216  0.00  0.00    +0.000 A 
ATOM     17  C   UNL     1       0.631   9.869  19.164  0.00  0.00    +0.000 A 
ATOM     18  H   UNL     1       0.556   8.831  22.259  0.00  0.00    +0.000 HD
ENDBRANCH   3   7
BRANCH   1  20
ATOM     19  C   UNL     1       6.924   7.581  17.411  0.00  0.00    +0.000 C 
ATOM     20  C   UNL     1       6.662   6.060  17.558  0.00  0.00    +0.000 C 
ATOM     21  C   UNL     1       7.094   5.344  16.257  0.00  0.00    +0.000 C 
ATOM     22  C   UNL     1       7.627   5.570  18.661  0.00  0.00    +0.000 C 
ENDBRANCH   1  20
BRANCH   5  23
ATOM     23  C   UNL     1       2.444   3.194  18.865  0.00  0.00    +0.000 C 
ATOM     24  C   UNL     1       0.986   3.422  19.352  0.00  0.00    +0.000 C 
ATOM     25  C   UNL     1       2.373   2.219  17.670  0.00  0.00    +0.000 C 
ATOM     26  C   UNL     1       3.146   2.475  20.044  0.00  0.00    +0.000 C 
ENDBRANCH   5  23
BRANCH   6  27
ATOM     27  O   UNL     1       5.255   3.483  18.046  0.00  0.00    +0.000 OA
ATOM     28  H   UNL     1       5.654   3.470  17.163  0.00  0.00    +0.000 HD
ENDBRANCH   6  27
TORSDOF 4
ENDMDL
MODEL 4
REMARK VINA RESULT:      -8.6      0.449      3.626
REMARK  Name = 
REMARK  10 active torsions:
REMARK  status: ('A' for Active; 'I' for Inactive)
REMARK    1  A    between atoms: C_1  and  C_2
REMARK    2  A    between atoms: C_2  and  C_3
REMARK    3  A    between atoms: C_2  and  C_4
REMARK    4  A    between atoms: C_2  and  C_5
REMARK    5  A    between atoms: C_7  and  C_8
REMARK    6  A    between atoms: C_20  and  C_21
REMARK    7  A    between atoms: C_21  and  C_22
REMARK    8  A    between atoms: C_21  and  C_23
REMARK    9  A    between atoms: C_21  and  C_24
REMARK   10  A    between atoms: C_25  and  O_26
REMARK                            x       y       z     vdW  Elec       q    Type
REMARK                         _______ _______ _______ _____ _____    ______ ____
ROOT
ATOM      1  C   UNL     1       5.177   5.920  17.784  0.00  0.00    +0.000 A 
ATOM      2  C   UNL     1       4.327   7.050  17.761  0.00  0.00    +0.000 A 
ATOM      3  C   UNL     1       2.964   6.956  18.033  0.00  0.00    +0.000 A 
ATOM      4  C   UNL     1       2.421   5.709  18.346  0.00  0.00    +0.000 A 
ATOM      5  C   UNL     1       3.198   4.530  18.398  0.00  0.00    +0.000 A 
ATOM      6  C   UNL     1       4.573   4.671  18.074  0.00  0.00    +0.000 A 
ENDROOT
BRANCH   3   7
ATOM      7  C   UNL     1       2.099   8.145  18.021  0.00  0.00    +0.000 C 
ATOM      8  C   UNL     1       1.482   8.660  19.096  0.00  0.00    +0.000 C 
ATOM      9  C   UNL     1       1.562   8.132  20.506  0.00  0.00    +0.000 C 
ATOM     10  O   UNL     1       2.186   7.178  20.931  0.00  0.00    +0.000 OA
ATOM     11  N   UNL     1       0.756   8.973  21.252  0.00  0.00    +0.000 N 
ATOM     12  C   UNL     1       0.191   9.964  20.466  0.00  0.00    +0.000 A 
ATOM     13  C   UNL     1      -0.669  10.960  20.895  0.00  0.00    +0.000 A 
ATOM     14  C   UNL     1      -1.129  11.866  19.940  0.00  0.00    +0.000 A 
ATOM     15  C   UNL     1      -0.724  11.756  18.595  0.00  0.00    +0.000 A 
ATOM     16  C   UNL     1       0.147  10.738  18.181  0.00  0.00    +0.000 A 
ATOM     17  C   UNL     1       0.596   9.839  19.133  0.00  0.00    +0.000 A 
ATOM     18  H   UNL     1       0.622   8.849  22.244  0.00  0.00    +0.000 HD
ENDBRANCH   3   7
BRANCH   1  20
ATOM     19  C   UNL     1       7.102   5.420  16.256  0.00  0.00    +0.000 C 
ATOM     20  C   UNL     1       6.693   6.159  17.555  0.00  0.00    +0.000 C 
ATOM     21  C   UNL     1       7.514   5.595  18.739  0.00  0.00    +0.000 C 
ATOM     22  C   UNL     1       7.151   7.623  17.371  0.00  0.00    +0.000 C 
ENDBRANCH   1  20
BRANCH   5  23
ATOM     23  C   UNL     1       2.525   3.180  18.770  0.00  0.00    +0.000 C 
ATOM     24  C   UNL     1       2.593   2.153  17.606  0.00  0.00    +0.000 C 
ATOM     25  C   UNL     1       3.214   2.528  19.989  0.00  0.00    +0.000 C 
ATOM     26  C   UNL     1       1.015   3.327  19.079  0.00  0.00    +0.000 C 
ENDBRANCH   5  23
BRANCH   6  27
ATOM     27  O   UNL     1       5.340   3.544  17.993  0.00  0.00    +0.000 OA
ATOM     28  H   UNL     1       5.611   3.460  17.067  0.00  0.00    +0.000 HD
ENDBRANCH   6  27
TORSDOF 4
ENDMDL
MODEL 5
REMARK VINA RESULT:      -7.9      0.927      1.009
REMARK  Name = 
REMARK  10 active torsions:
REMARK  status: ('A' for Active; 'I' for Inactive)
REMARK    1  A    between atoms: C_1  and  C_2
REMARK    2  A    between atoms: C_2  and  C_3
REMARK    3  A    between atoms: C_2  and  C_4
REMARK    4  A    between atoms: C_2  and  C_5
REMARK    5  A    between atoms: C_7  and  C_8
REMARK    6  A    between atoms: C_20  and  C_21
REMARK    7  A    between atoms: C_21  and  C_22
REMARK    8  A    between atoms: C_21  and  C_23
REMARK    9  A    between atoms: C_21  and  C_24
REMARK   10  A    between atoms: C_25  and  O_26
REMARK                            x       y       z     vdW  Elec       q    Type
REMARK                         _______ _______ _______ _____ _____    ______ ____
ROOT
ATOM      1  C   UNL     1       2.832   4.273  18.981  0.00  0.00    +0.000 A 
ATOM      2  C   UNL     1       2.246   5.560  18.951  0.00  0.00    +0.000 A 
ATOM      3  C   UNL     1       2.834   6.626  18.273  0.00  0.00    +0.000 A 
ATOM      4  C   UNL     1       4.036   6.414  17.595  0.00  0.00    +0.000 A 
ATOM      5  C   UNL     1       4.686   5.161  17.567  0.00  0.00    +0.000 A 
ATOM      6  C   UNL     1       4.068   4.118  18.306  0.00  0.00    +0.000 A 
ENDROOT
BRANCH   3   7
ATOM      7  C   UNL     1       2.202   7.952  18.240  0.00  0.00    +0.000 C 
ATOM      8  C   UNL     1       1.628   8.558  19.291  0.00  0.00    +0.000 C 
ATOM      9  C   UNL     1       1.529   8.007  20.691  0.00  0.00    +0.000 C 
ATOM     10  O   UNL     1       1.945   6.950  21.129  0.00  0.00    +0.000 OA
ATOM     11  N   UNL     1       0.849   8.973  21.411  0.00  0.00    +0.000 N 
ATOM     12  C   UNL     1       0.518  10.059  20.618  0.00  0.00    +0.000 A 
ATOM     13  C   UNL     1      -0.169  11.190  21.022  0.00  0.00    +0.000 A 
ATOM     14  C   UNL     1      -0.402  12.177  20.064  0.00  0.00    +0.000 A 
ATOM     15  C   UNL     1       0.053  12.010  18.741  0.00  0.00    +0.000 A 
ATOM     16  C   UNL     1       0.747  10.856  18.352  0.00  0.00    +0.000 A 
ATOM     17  C   UNL     1       0.970   9.878  19.307  0.00  0.00    +0.000 A 
ATOM     18  H   UNL     1       0.637   8.863  22.391  0.00  0.00    +0.000 HD
ENDBRANCH   3   7
BRANCH   1  20
ATOM     19  C   UNL     1       0.687   3.731  20.162  0.00  0.00    +0.000 C 
ATOM     20  C   UNL     1       2.041   3.143  19.690  0.00  0.00    +0.000 C 
ATOM     21  C   UNL     1       2.823   2.623  20.919  0.00  0.00    +0.000 C 
ATOM     22  C   UNL     1       1.689   1.898  18.846  0.00  0.00    +0.000 C 
ENDBRANCH   1  20
BRANCH   5  23
ATOM     23  C   UNL     1       6.013   4.999  16.777  0.00  0.00    +0.000 C 
ATOM     24  C   UNL     1       6.396   6.293  16.005  0.00  0.00    +0.000 C 
ATOM     25  C   UNL     1       7.191   4.672  17.720  0.00  0.00    +0.000 C 
ATOM     26  C   UNL     1       5.935   3.899  15.689  0.00  0.00    +0.000 C 
ENDBRANCH   5  23
BRANCH   6  27
ATOM     27  O   UNL     1       4.718   2.921  18.409  0.00  0.00    +0.000 OA
ATOM     28  H   UNL     1       4.269   2.421  19.106  0.00  0.00    +0.000 HD
ENDBRANCH   6  27
TORSDOF 4
ENDMDL
MODEL 6
REMARK VINA RESULT:      -7.9      2.489      8.298
REMARK  Name = 
REMARK  10 active torsions:
REMARK  status: ('A' for Active; 'I' for Inactive)
REMARK    1  A    between atoms: C_1  and  C_2
REMARK    2  A    between atoms: C_2  and  C_3
REMARK    3  A    between atoms: C_2  and  C_4
REMARK    4  A    between atoms: C_2  and  C_5
REMARK    5  A    between atoms: C_7  and  C_8
REMARK    6  A    between atoms: C_20  and  C_21
REMARK    7  A    between atoms: C_21  and  C_22
REMARK    8  A    between atoms: C_21  and  C_23
REMARK    9  A    between atoms: C_21  and  C_24
REMARK   10  A    between atoms: C_25  and  O_26
REMARK                            x       y       z     vdW  Elec       q    Type
REMARK                         _______ _______ _______ _____ _____    ______ ____
ROOT
ATOM      1  C   UNL     1       0.007  11.818  19.352  0.00  0.00    +0.000 A 
ATOM      2  C   UNL     1       1.028  10.907  18.993  0.00  0.00    +0.000 A 
ATOM      3  C   UNL     1       0.796   9.840  18.128  0.00  0.00    +0.000 A 
ATOM      4  C   UNL     1      -0.481   9.669  17.592  0.00  0.00    +0.000 A 
ATOM      5  C   UNL     1      -1.556  10.536  17.891  0.00  0.00    +0.000 A 
ATOM      6  C   UNL     1      -1.280  11.583  18.808  0.00  0.00    +0.000 A 
ENDROOT
BRANCH   3   7
ATOM      7  C   UNL     1       1.874   8.912  17.754  0.00  0.00    +0.000 C 
ATOM      8  C   UNL     1       2.338   7.919  18.529  0.00  0.00    +0.000 C 
ATOM      9  C   UNL     1       1.846   7.562  19.908  0.00  0.00    +0.000 C 
ATOM     10  O   UNL     1       0.958   8.078  20.561  0.00  0.00    +0.000 OA
ATOM     11  N   UNL     1       2.630   6.494  20.306  0.00  0.00    +0.000 N 
ATOM     12  C   UNL     1       3.547   6.146  19.328  0.00  0.00    +0.000 A 
ATOM     13  C   UNL     1       4.484   5.130  19.406  0.00  0.00    +0.000 A 
ATOM     14  C   UNL     1       5.320   4.941  18.306  0.00  0.00    +0.000 A 
ATOM     15  C   UNL     1       5.201   5.762  17.168  0.00  0.00    +0.000 A 
ATOM     16  C   UNL     1       4.246   6.787  17.109  0.00  0.00    +0.000 A 
ATOM     17  C   UNL     1       3.422   6.972  18.206  0.00  0.00    +0.000 A 
ATOM     18  H   UNL     1       2.518   6.049  21.204  0.00  0.00    +0.000 HD
ENDBRANCH   3   7
BRANCH   1  20
ATOM     19  C   UNL     1       1.949  13.038  20.368  0.00  0.00    +0.000 C 
ATOM     20  C   UNL     1       0.404  13.020  20.249  0.00  0.00    +0.000 C 
ATOM     21  C   UNL     1      -0.211  12.868  21.661  0.00  0.00    +0.000 C 
ATOM     22  C   UNL     1       0.002  14.427  19.754  0.00  0.00    +0.000 C 
ENDBRANCH   1  20
BRANCH   5  23
ATOM     23  C   UNL     1      -2.946  10.290  17.242  0.00  0.00    +0.000 C 
ATOM     24  C   UNL     1      -2.826   9.722  15.800  0.00  0.00    +0.000 C 
ATOM     25  C   UNL     1      -3.775   9.276  18.059  0.00  0.00    +0.000 C 
ATOM     26  C   UNL     1      -3.774  11.589  17.087  0.00  0.00    +0.000 C 
ENDBRANCH   5  23
BRANCH   6  27
ATOM     27  O   UNL     1      -2.314  12.374  19.221  0.00  0.00    +0.000 OA
ATOM     28  H   UNL     1      -2.258  13.194  18.707  0.00  0.00    +0.000 HD
ENDBRANCH   6  27
TORSDOF 4
ENDMDL
MODEL 7
REMARK VINA RESULT:      -7.9      2.538      8.417
REMARK  Name = 
REMARK  10 active torsions:
REMARK  status: ('A' for Active; 'I' for Inactive)
REMARK    1  A    between atoms: C_1  and  C_2
REMARK    2  A    between atoms: C_2  and  C_3
REMARK    3  A    between atoms: C_2  and  C_4
REMARK    4  A    between atoms: C_2  and  C_5
REMARK    5  A    between atoms: C_7  and  C_8
REMARK    6  A    between atoms: C_20  and  C_21
REMARK    7  A    between atoms: C_21  and  C_22
REMARK    8  A    between atoms: C_21  and  C_23
REMARK    9  A    between atoms: C_21  and  C_24
REMARK   10  A    between atoms: C_25  and  O_26
REMARK                            x       y       z     vdW  Elec       q    Type
REMARK                         _______ _______ _______ _____ _____    ______ ____
ROOT
ATOM      1  C   UNL     1       0.441  12.288  19.226  0.00  0.00    +0.000 A 
ATOM      2  C   UNL     1       1.329  11.237  18.897  0.00  0.00    +0.000 A 
ATOM      3  C   UNL     1       0.909  10.103  18.204  0.00  0.00    +0.000 A 
ATOM      4  C   UNL     1      -0.428  10.005  17.817  0.00  0.00    +0.000 A 
ATOM      5  C   UNL     1      -1.380  11.010  18.098  0.00  0.00    +0.000 A 
ATOM      6  C   UNL     1      -0.912  12.126  18.839  0.00  0.00    +0.000 A 
ENDROOT
BRANCH   3   7
ATOM      7  C   UNL     1       1.850   9.029  17.857  0.00  0.00    +0.000 C 
ATOM      8  C   UNL     1       2.196   8.017  18.668  0.00  0.00    +0.000 C 
ATOM      9  C   UNL     1       1.689   7.785  20.068  0.00  0.00    +0.000 C 
ATOM     10  O   UNL     1       0.887   8.438  20.710  0.00  0.00    +0.000 OA
ATOM     11  N   UNL     1       2.334   6.640  20.501  0.00  0.00    +0.000 N 
ATOM     12  C   UNL     1       3.181   6.136  19.527  0.00  0.00    +0.000 A 
ATOM     13  C   UNL     1       3.979   5.011  19.638  0.00  0.00    +0.000 A 
ATOM     14  C   UNL     1       4.763   4.669  18.536  0.00  0.00    +0.000 A 
ATOM     15  C   UNL     1       4.730   5.451  17.365  0.00  0.00    +0.000 A 
ATOM     16  C   UNL     1       3.915   6.588  17.274  0.00  0.00    +0.000 A 
ATOM     17  C   UNL     1       3.143   6.925  18.373  0.00  0.00    +0.000 A 
ATOM     18  H   UNL     1       2.183   6.251  21.419  0.00  0.00    +0.000 HD
ENDBRANCH   3   7
BRANCH   1  20
ATOM     19  C   UNL     1       2.584  13.399  19.909  0.00  0.00    +0.000 C 
ATOM     20  C   UNL     1       1.040  13.542  19.916  0.00  0.00    +0.000 C 
ATOM     21  C   UNL     1       0.548  13.640  21.380  0.00  0.00    +0.000 C 
ATOM     22  C   UNL     1       0.739  14.911  19.267  0.00  0.00    +0.000 C 
ENDBRANCH   1  20
BRANCH   5  23
ATOM     23  C   UNL     1      -2.848  10.836  17.619  0.00  0.00    +0.000 C 
ATOM     24  C   UNL     1      -3.844  11.670  18.471  0.00  0.00    +0.000 C 
ATOM     25  C   UNL     1      -3.016  11.291  16.153  0.00  0.00    +0.000 C 
ATOM     26  C   UNL     1      -3.350   9.376  17.740  0.00  0.00    +0.000 C 
ENDBRANCH   5  23
BRANCH   6  27
ATOM     27  O   UNL     1      -1.819  13.066  19.239  0.00  0.00    +0.000 OA
ATOM     28  H   UNL     1      -2.628  12.588  19.475  0.00  0.00    +0.000 HD
ENDBRANCH   6  27
TORSDOF 4
ENDMDL
MODEL 8
REMARK VINA RESULT:      -7.9      2.561      7.867
REMARK  Name = 
REMARK  10 active torsions:
REMARK  status: ('A' for Active; 'I' for Inactive)
REMARK    1  A    between atoms: C_1  and  C_2
REMARK    2  A    between atoms: C_2  and  C_3
REMARK    3  A    between atoms: C_2  and  C_4
REMARK    4  A    between atoms: C_2  and  C_5
REMARK    5  A    between atoms: C_7  and  C_8
REMARK    6  A    between atoms: C_20  and  C_21
REMARK    7  A    between atoms: C_21  and  C_22
REMARK    8  A    between atoms: C_21  and  C_23
REMARK    9  A    between atoms: C_21  and  C_24
REMARK   10  A    between atoms: C_25  and  O_26
REMARK                            x       y       z     vdW  Elec       q    Type
REMARK                         _______ _______ _______ _____ _____    ______ ____
ROOT
ATOM      1  C   UNL     1      -1.394  11.116  18.077  0.00  0.00    +0.000 A 
ATOM      2  C   UNL     1      -0.478  10.083  17.769  0.00  0.00    +0.000 A 
ATOM      3  C   UNL     1       0.863  10.148  18.144  0.00  0.00    +0.000 A 
ATOM      4  C   UNL     1       1.314  11.262  18.852  0.00  0.00    +0.000 A 
ATOM      5  C   UNL     1       0.466  12.335  19.208  0.00  0.00    +0.000 A 
ATOM      6  C   UNL     1      -0.881  12.241  18.769  0.00  0.00    +0.000 A 
ENDROOT
BRANCH   3   7
ATOM      7  C   UNL     1       1.797   9.058  17.828  0.00  0.00    +0.000 C 
ATOM      8  C   UNL     1       2.134   8.065  18.667  0.00  0.00    +0.000 C 
ATOM      9  C   UNL     1       1.620   7.874  20.071  0.00  0.00    +0.000 C 
ATOM     10  O   UNL     1       0.822   8.550  20.693  0.00  0.00    +0.000 OA
ATOM     11  N   UNL     1       2.257   6.737  20.536  0.00  0.00    +0.000 N 
ATOM     12  C   UNL     1       3.102   6.201  19.579  0.00  0.00    +0.000 A 
ATOM     13  C   UNL     1       3.892   5.073  19.721  0.00  0.00    +0.000 A 
ATOM     14  C   UNL     1       4.676   4.697  18.631  0.00  0.00    +0.000 A 
ATOM     15  C   UNL     1       4.652   5.447  17.440  0.00  0.00    +0.000 A 
ATOM     16  C   UNL     1       3.845   6.587  17.316  0.00  0.00    +0.000 A 
ATOM     17  C   UNL     1       3.073   6.959  18.404  0.00  0.00    +0.000 A 
ATOM     18  H   UNL     1       2.100   6.374  21.464  0.00  0.00    +0.000 HD
ENDBRANCH   3   7
BRANCH   1  20
ATOM     19  C   UNL     1      -3.197   9.386  17.863  0.00  0.00    +0.000 C 
ATOM     20  C   UNL     1      -2.880  10.893  17.691  0.00  0.00    +0.000 C 
ATOM     21  C   UNL     1      -3.122  11.296  16.217  0.00  0.00    +0.000 C 
ATOM     22  C   UNL     1      -3.941  11.647  18.523  0.00  0.00    +0.000 C 
ENDBRANCH   1  20
BRANCH   5  23
ATOM     23  C   UNL     1       1.038  13.535  20.012  0.00  0.00    +0.000 C 
ATOM     24  C   UNL     1       2.546  13.353  20.341  0.00  0.00    +0.000 C 
ATOM     25  C   UNL     1       0.904  14.854  19.221  0.00  0.00    +0.000 C 
ATOM     26  C   UNL     1       0.353  13.717  21.389  0.00  0.00    +0.000 C 
ENDBRANCH   5  23
BRANCH   6  27
ATOM     27  O   UNL     1      -1.709  13.305  18.983  0.00  0.00    +0.000 OA
ATOM     28  H   UNL     1      -2.161  13.139  19.824  0.00  0.00    +0.000 HD
ENDBRANCH   6  27
TORSDOF 4
ENDMDL
MODEL 9
REMARK VINA RESULT:      -7.8      0.935      1.465
REMARK  Name = 
REMARK  10 active torsions:
REMARK  status: ('A' for Active; 'I' for Inactive)
REMARK    1  A    between atoms: C_1  and  C_2
REMARK    2  A    between atoms: C_2  and  C_3
REMARK    3  A    between atoms: C_2  and  C_4
REMARK    4  A    between atoms: C_2  and  C_5
REMARK    5  A    between atoms: C_7  and  C_8
REMARK    6  A    between atoms: C_20  and  C_21
REMARK    7  A    between atoms: C_21  and  C_22
REMARK    8  A    between atoms: C_21  and  C_23
REMARK    9  A    between atoms: C_21  and  C_24
REMARK   10  A    between atoms: C_25  and  O_26
REMARK                            x       y       z     vdW  Elec       q    Type
REMARK                         _______ _______ _______ _____ _____    ______ ____
ROOT
ATOM      1  C   UNL     1       2.858   4.319  19.014  0.00  0.00    +0.000 A 
ATOM      2  C   UNL     1       2.264   5.602  18.982  0.00  0.00    +0.000 A 
ATOM      3  C   UNL     1       2.828   6.661  18.273  0.00  0.00    +0.000 A 
ATOM      4  C   UNL     1       4.012   6.446  17.566  0.00  0.00    +0.000 A 
ATOM      5  C   UNL     1       4.668   5.196  17.538  0.00  0.00    +0.000 A 
ATOM      6  C   UNL     1       4.076   4.160  18.308  0.00  0.00    +0.000 A 
ENDROOT
BRANCH   3   7
ATOM      7  C   UNL     1       2.187   7.983  18.238  0.00  0.00    +0.000 C 
ATOM      8  C   UNL     1       1.612   8.588  19.289  0.00  0.00    +0.000 C 
ATOM      9  C   UNL     1       1.521   8.040  20.690  0.00  0.00    +0.000 C 
ATOM     10  O   UNL     1       1.944   6.987  21.130  0.00  0.00    +0.000 OA
ATOM     11  N   UNL     1       0.836   9.003  21.410  0.00  0.00    +0.000 N 
ATOM     12  C   UNL     1       0.497  10.086  20.615  0.00  0.00    +0.000 A 
ATOM     13  C   UNL     1      -0.196  11.214  21.018  0.00  0.00    +0.000 A 
ATOM     14  C   UNL     1      -0.438  12.196  20.057  0.00  0.00    +0.000 A 
ATOM     15  C   UNL     1       0.014  12.029  18.734  0.00  0.00    +0.000 A 
ATOM     16  C   UNL     1       0.715  10.878  18.347  0.00  0.00    +0.000 A 
ATOM     17  C   UNL     1       0.947   9.905  19.303  0.00  0.00    +0.000 A 
ATOM     18  H   UNL     1       0.627   8.895  22.391  0.00  0.00    +0.000 HD
ENDBRANCH   3   7
BRANCH   1  20
ATOM     19  C   UNL     1       1.876   2.025  18.766  0.00  0.00    +0.000 C 
ATOM     20  C   UNL     1       2.093   3.194  19.760  0.00  0.00    +0.000 C 
ATOM     21  C   UNL     1       0.717   3.707  20.248  0.00  0.00    +0.000 C 
ATOM     22  C   UNL     1       2.785   2.576  20.995  0.00  0.00    +0.000 C 
ENDBRANCH   1  20
BRANCH   5  23
ATOM     23  C   UNL     1       5.975   5.030  16.714  0.00  0.00    +0.000 C 
ATOM     24  C   UNL     1       5.902   3.822  15.740  0.00  0.00    +0.000 C 
ATOM     25  C   UNL     1       6.260   6.283  15.858  0.00  0.00    +0.000 C 
ATOM     26  C   UNL     1       7.213   4.749  17.601  0.00  0.00    +0.000 C 
ENDBRANCH   5  23
BRANCH   6  27
ATOM     27  O   UNL     1       4.736   2.969  18.410  0.00  0.00    +0.000 OA
ATOM     28  H   UNL     1       4.333   2.373  17.762  0.00  0.00    +0.000 HD
ENDBRANCH   6  27
TORSDOF 4
ENDMDL
