MODEL 1
REMARK VINA RESULT:      -7.5      0.000      0.000
REMARK  Name = 
REMARK  10 active torsions:
REMARK  status: ('A' for Active; 'I' for Inactive)
REMARK    1  A    between atoms: C_1  and  C_2
REMARK    2  A    between atoms: C_2  and  C_3
REMARK    3  A    between atoms: C_3  and  C_4
REMARK    4  A    between atoms: C_4  and  C_5
REMARK    5  A    between atoms: C_5  and  C_6
REMARK    6  A    between atoms: C_6  and  C_7
REMARK    7  A    between atoms: C_10  and  C_11
REMARK    8  A    between atoms: N_13  and  C_14
REMARK    9  A    between atoms: C_14  and  C_15
REMARK   10  A    between atoms: N_17  and  C_18
REMARK                            x       y       z     vdW  Elec       q    Type
REMARK                         _______ _______ _______ _____ _____    ______ ____
ROOT
ATOM      1  C   UNL     1       0.609  10.012  20.501  0.00  0.00    +0.000 C 
ATOM      2  O   UNL     1      -0.372   9.777  21.201  0.00  0.00    +0.000 OA
ATOM      3  N   UNL     1       1.104  11.327  20.358  0.00  0.00    +0.000 N 
ATOM      4  H   UNL     1       1.841  11.509  19.694  0.00  0.00    +0.000 HD
ENDROOT
BRANCH   1   8
ATOM      5  C   UNL     1       2.789   6.626  18.495  0.00  0.00    +0.000 A 
ATOM      6  C   UNL     1       2.368   6.532  19.827  0.00  0.00    +0.000 A 
ATOM      7  C   UNL     1       1.647   7.614  20.446  0.00  0.00    +0.000 A 
ATOM      8  C   UNL     1       1.329   8.820  19.776  0.00  0.00    +0.000 A 
ATOM      9  C   UNL     1       1.769   8.877  18.428  0.00  0.00    +0.000 A 
ATOM     10  C   UNL     1       2.468   7.815  17.820  0.00  0.00    +0.000 A 
BRANCH   5  11
ATOM     11  C   UNL     1       3.630   5.559  17.801  0.00  0.00    +0.000 C 
BRANCH  11  12
ATOM     12  C   UNL     1       2.972   4.209  17.454  0.00  0.00    +0.000 C 
BRANCH  12  13
ATOM     13  C   UNL     1       2.873   3.252  18.646  0.00  0.00    +0.000 C 
BRANCH  13  14
ATOM     14  C   UNL     1       1.451   2.706  18.820  0.00  0.00    +0.000 C 
BRANCH  14  16
ATOM     15  C   UNL     1       1.640   2.987  21.322  0.00  0.00    +0.000 C 
ATOM     16  C   UNL     1       0.795   3.260  20.087  0.00  0.00    +0.000 C 
ENDBRANCH  14  16
ENDBRANCH  13  14
ENDBRANCH  12  13
ENDBRANCH  11  12
ENDBRANCH   5  11
ENDBRANCH   1   8
BRANCH   3  17
ATOM     17  C   UNL     1       0.503  12.568  21.020  0.00  0.00    +0.000 C 
BRANCH  17  18
ATOM     18  C   UNL     1      -0.952  13.100  20.493  0.00  0.00    +0.000 C 
ATOM     19  O   UNL     1      -1.007  14.221  19.973  0.00  0.00    +0.000 OA
ATOM     20  N   UNL     1      -2.114  12.253  20.513  0.00  0.00    +0.000 N 
ATOM     21  H   UNL     1      -2.010  11.368  20.984  0.00  0.00    +0.000 HD
BRANCH  20  22
ATOM     22  C   UNL     1      -2.998  12.182  19.238  0.00  0.00    +0.000 C 
ATOM     23  C   UNL     1      -2.309  11.069  18.421  0.00  0.00    +0.000 C 
ATOM     24  C   UNL     1      -3.009  10.414  17.247  0.00  0.00    +0.000 C 
ATOM     25  C   UNL     1      -4.284  11.034  16.750  0.00  0.00    +0.000 C 
ATOM     26  C   UNL     1      -5.056  11.818  17.769  0.00  0.00    +0.000 A 
ATOM     27  C   UNL     1      -6.354  12.150  17.330  0.00  0.00    +0.000 A 
ATOM     28  C   UNL     1      -7.323  12.486  18.241  0.00  0.00    +0.000 A 
ATOM     29  C   UNL     1      -6.959  12.501  19.580  0.00  0.00    +0.000 A 
ATOM     30  C   UNL     1      -5.590  12.351  20.006  0.00  0.00    +0.000 A 
ATOM     31  C   UNL     1      -4.564  12.057  19.095  0.00  0.00    +0.000 A 
ENDBRANCH  20  22
ENDBRANCH  17  18
ENDBRANCH   3  17
TORSDOF 9
ENDMDL
MODEL 2
REMARK VINA RESULT:      -7.2      2.126      3.570
REMARK  Name = 
REMARK  10 active torsions:
REMARK  status: ('A' for Active; 'I' for Inactive)
REMARK    1  A    between atoms: C_1  and  C_2
REMARK    2  A    between atoms: C_2  and  C_3
REMARK    3  A    between atoms: C_3  and  C_4
REMARK    4  A    between atoms: C_4  and  C_5
REMARK    5  A    between atoms: C_5  and  C_6
REMARK    6  A    between atoms: C_6  and  C_7
REMARK    7  A    between atoms: C_10  and  C_11
REMARK    8  A    between atoms: N_13  and  C_14
REMARK    9  A    between atoms: C_14  and  C_15
REMARK   10  A    between atoms: N_17  and  C_18
REMARK                            x       y       z     vdW  Elec       q    Type
REMARK                         _______ _______ _______ _____ _____    ______ ____
ROOT
ATOM      1  C   UNL     1       1.520   8.965  19.371  0.00  0.00    +0.000 C 
ATOM      2  O   UNL     1       1.141   9.080  20.533  0.00  0.00    +0.000 OA
ATOM      3  N   UNL     1       1.276   9.982  18.422  0.00  0.00    +0.000 N 
ATOM      4  H   UNL     1       1.499   9.817  17.452  0.00  0.00    +0.000 HD
ENDROOT
BRANCH   1   8
ATOM      5  C   UNL     1       3.871   5.292  18.270  0.00  0.00    +0.000 A 
ATOM      6  C   UNL     1       3.109   5.343  19.443  0.00  0.00    +0.000 A 
ATOM      7  C   UNL     1       2.340   6.516  19.767  0.00  0.00    +0.000 A 
ATOM      8  C   UNL     1       2.306   7.673  18.953  0.00  0.00    +0.000 A 
ATOM      9  C   UNL     1       3.088   7.583  17.771  0.00  0.00    +0.000 A 
ATOM     10  C   UNL     1       3.835   6.432  17.451  0.00  0.00    +0.000 A 
BRANCH   5  11
ATOM     11  C   UNL     1       4.776   4.119  17.904  0.00  0.00    +0.000 C 
BRANCH  11  12
ATOM     12  C   UNL     1       5.647   4.222  16.637  0.00  0.00    +0.000 C 
BRANCH  12  13
ATOM     13  C   UNL     1       7.095   4.633  16.921  0.00  0.00    +0.000 C 
BRANCH  13  14
ATOM     14  C   UNL     1       7.302   6.143  16.752  0.00  0.00    +0.000 C 
BRANCH  14  16
ATOM     15  C   UNL     1       7.757   5.798  19.211  0.00  0.00    +0.000 C 
ATOM     16  C   UNL     1       7.588   6.817  18.095  0.00  0.00    +0.000 C 
ENDBRANCH  14  16
ENDBRANCH  13  14
ENDBRANCH  12  13
ENDBRANCH  11  12
ENDBRANCH   5  11
ENDBRANCH   1   8
BRANCH   3  17
ATOM     17  C   UNL     1       0.536  11.290  18.705  0.00  0.00    +0.000 C 
BRANCH  17  18
ATOM     18  C   UNL     1      -1.099  11.286  18.633  0.00  0.00    +0.000 C 
ATOM     19  O   UNL     1      -1.671  10.200  18.480  0.00  0.00    +0.000 OA
ATOM     20  N   UNL     1      -1.864  12.481  18.863  0.00  0.00    +0.000 N 
ATOM     21  H   UNL     1      -1.338  13.337  18.943  0.00  0.00    +0.000 HD
BRANCH  20  22
ATOM     22  C   UNL     1      -3.081  12.405  19.825  0.00  0.00    +0.000 C 
ATOM     23  C   UNL     1      -2.850  13.619  20.748  0.00  0.00    +0.000 C 
ATOM     24  C   UNL     1      -3.958  14.149  21.637  0.00  0.00    +0.000 C 
ATOM     25  C   UNL     1      -5.205  13.323  21.777  0.00  0.00    +0.000 C 
ATOM     26  C   UNL     1      -5.509  12.418  20.620  0.00  0.00    +0.000 A 
ATOM     27  C   UNL     1      -6.808  11.873  20.685  0.00  0.00    +0.000 A 
ATOM     28  C   UNL     1      -7.402  11.376  19.551  0.00  0.00    +0.000 A 
ATOM     29  C   UNL     1      -6.665  11.421  18.376  0.00  0.00    +0.000 A 
ATOM     30  C   UNL     1      -5.275  11.799  18.355  0.00  0.00    +0.000 A 
ATOM     31  C   UNL     1      -4.620  12.263  19.506  0.00  0.00    +0.000 A 
ENDBRANCH  20  22
ENDBRANCH  17  18
ENDBRANCH   3  17
TORSDOF 9
ENDMDL
MODEL 3
REMARK VINA RESULT:      -7.1      1.695      2.765
REMARK  Name = 
REMARK  10 active torsions:
REMARK  status: ('A' for Active; 'I' for Inactive)
REMARK    1  A    between atoms: C_1  and  C_2
REMARK    2  A    between atoms: C_2  and  C_3
REMARK    3  A    between atoms: C_3  and  C_4
REMARK    4  A    between atoms: C_4  and  C_5
REMARK    5  A    between atoms: C_5  and  C_6
REMARK    6  A    between atoms: C_6  and  C_7
REMARK    7  A    between atoms: C_10  and  C_11
REMARK    8  A    between atoms: N_13  and  C_14
REMARK    9  A    between atoms: C_14  and  C_15
REMARK   10  A    between atoms: N_17  and  C_18
REMARK                            x       y       z     vdW  Elec       q    Type
REMARK                         _______ _______ _______ _____ _____    ______ ____
ROOT
ATOM      1  C   UNL     1       1.103   8.886  20.688  0.00  0.00    +0.000 C 
ATOM      2  O   UNL     1       0.600   8.458  21.723  0.00  0.00    +0.000 OA
ATOM      3  N   UNL     1       1.031  10.257  20.358  0.00  0.00    +0.000 N 
ATOM      4  H   UNL     1       1.354  10.566  19.454  0.00  0.00    +0.000 HD
ENDROOT
BRANCH   1   8
ATOM      5  C   UNL     1       3.365   6.033  18.047  0.00  0.00    +0.000 A 
ATOM      6  C   UNL     1       2.856   5.628  19.286  0.00  0.00    +0.000 A 
ATOM      7  C   UNL     1       2.110   6.546  20.108  0.00  0.00    +0.000 A 
ATOM      8  C   UNL     1       1.852   7.888  19.738  0.00  0.00    +0.000 A 
ATOM      9  C   UNL     1       2.381   8.261  18.474  0.00  0.00    +0.000 A 
ATOM     10  C   UNL     1       3.105   7.360  17.668  0.00  0.00    +0.000 A 
BRANCH   5  11
ATOM     11  C   UNL     1       4.236   5.144  17.164  0.00  0.00    +0.000 C 
BRANCH  11  12
ATOM     12  C   UNL     1       5.139   5.808  16.107  0.00  0.00    +0.000 C 
BRANCH  12  13
ATOM     13  C   UNL     1       6.604   5.922  16.538  0.00  0.00    +0.000 C 
BRANCH  13  14
ATOM     14  C   UNL     1       6.876   7.230  17.290  0.00  0.00    +0.000 C 
BRANCH  14  16
ATOM     15  C   UNL     1       7.725   5.733  19.137  0.00  0.00    +0.000 C 
ATOM     16  C   UNL     1       7.933   7.035  18.378  0.00  0.00    +0.000 C 
ENDBRANCH  14  16
ENDBRANCH  13  14
ENDBRANCH  12  13
ENDBRANCH  11  12
ENDBRANCH   5  11
ENDBRANCH   1   8
BRANCH   3  17
ATOM     17  C   UNL     1       0.343  11.330  21.203  0.00  0.00    +0.000 C 
BRANCH  17  18
ATOM     18  C   UNL     1      -0.803  12.258  20.494  0.00  0.00    +0.000 C 
ATOM     19  O   UNL     1      -0.433  13.251  19.857  0.00  0.00    +0.000 OA
ATOM     20  N   UNL     1      -2.189  11.875  20.499  0.00  0.00    +0.000 N 
ATOM     21  H   UNL     1      -2.427  11.078  21.067  0.00  0.00    +0.000 HD
BRANCH  20  22
ATOM     22  C   UNL     1      -2.979  11.948  19.164  0.00  0.00    +0.000 C 
ATOM     23  C   UNL     1      -2.346  10.806  18.342  0.00  0.00    +0.000 C 
ATOM     24  C   UNL     1      -3.018  10.276  17.091  0.00  0.00    +0.000 C 
ATOM     25  C   UNL     1      -4.186  11.043  16.539  0.00  0.00    +0.000 C 
ATOM     26  C   UNL     1      -4.949  11.859  17.539  0.00  0.00    +0.000 A 
ATOM     27  C   UNL     1      -6.172  12.339  17.028  0.00  0.00    +0.000 A 
ATOM     28  C   UNL     1      -7.168  12.734  17.886  0.00  0.00    +0.000 A 
ATOM     29  C   UNL     1      -6.904  12.655  19.246  0.00  0.00    +0.000 A 
ATOM     30  C   UNL     1      -5.592  12.348  19.757  0.00  0.00    +0.000 A 
ATOM     31  C   UNL     1      -4.535  11.990  18.906  0.00  0.00    +0.000 A 
ENDBRANCH  20  22
ENDBRANCH  17  18
ENDBRANCH   3  17
TORSDOF 9
ENDMDL
MODEL 4
REMARK VINA RESULT:      -7.0      1.818      2.991
REMARK  Name = 
REMARK  10 active torsions:
REMARK  status: ('A' for Active; 'I' for Inactive)
REMARK    1  A    between atoms: C_1  and  C_2
REMARK    2  A    between atoms: C_2  and  C_3
REMARK    3  A    between atoms: C_3  and  C_4
REMARK    4  A    between atoms: C_4  and  C_5
REMARK    5  A    between atoms: C_5  and  C_6
REMARK    6  A    between atoms: C_6  and  C_7
REMARK    7  A    between atoms: C_10  and  C_11
REMARK    8  A    between atoms: N_13  and  C_14
REMARK    9  A    between atoms: C_14  and  C_15
REMARK   10  A    between atoms: N_17  and  C_18
REMARK                            x       y       z     vdW  Elec       q    Type
REMARK                         _______ _______ _______ _____ _____    ______ ____
ROOT
ATOM      1  C   UNL     1       0.938  10.173  18.644  0.00  0.00    +0.000 C 
ATOM      2  O   UNL     1       1.363  11.190  19.185  0.00  0.00    +0.000 OA
ATOM      3  N   UNL     1      -0.320  10.162  18.002  0.00  0.00    +0.000 N 
ATOM      4  H   UNL     1      -0.694   9.290  17.661  0.00  0.00    +0.000 HD
ENDROOT
BRANCH   1   8
ATOM      5  C   UNL     1       3.399   6.408  18.573  0.00  0.00    +0.000 A 
ATOM      6  C   UNL     1       3.496   7.360  17.551  0.00  0.00    +0.000 A 
ATOM      7  C   UNL     1       2.722   8.573  17.602  0.00  0.00    +0.000 A 
ATOM      8  C   UNL     1       1.825   8.879  18.654  0.00  0.00    +0.000 A 
ATOM      9  C   UNL     1       1.756   7.893  19.673  0.00  0.00    +0.000 A 
ATOM     10  C   UNL     1       2.520   6.709  19.625  0.00  0.00    +0.000 A 
BRANCH   5  11
ATOM     11  C   UNL     1       4.122   5.065  18.543  0.00  0.00    +0.000 C 
BRANCH  11  12
ATOM     12  C   UNL     1       3.536   3.929  17.683  0.00  0.00    +0.000 C 
BRANCH  12  13
ATOM     13  C   UNL     1       3.708   2.540  18.305  0.00  0.00    +0.000 C 
BRANCH  13  14
ATOM     14  C   UNL     1       2.369   1.959  18.777  0.00  0.00    +0.000 C 
BRANCH  14  16
ATOM     15  C   UNL     1       0.874   3.464  20.145  0.00  0.00    +0.000 C 
ATOM     16  C   UNL     1       1.264   3.016  18.745  0.00  0.00    +0.000 C 
ENDBRANCH  14  16
ENDBRANCH  13  14
ENDBRANCH  12  13
ENDBRANCH  11  12
ENDBRANCH   5  11
ENDBRANCH   1   8
BRANCH   3  17
ATOM     17  C   UNL     1      -1.271  11.357  17.911  0.00  0.00    +0.000 C 
BRANCH  17  18
ATOM     18  C   UNL     1      -2.880  11.064  17.852  0.00  0.00    +0.000 C 
ATOM     19  O   UNL     1      -3.267   9.909  18.066  0.00  0.00    +0.000 OA
ATOM     20  N   UNL     1      -3.832  12.127  17.681  0.00  0.00    +0.000 N 
ATOM     21  H   UNL     1      -3.450  13.037  17.474  0.00  0.00    +0.000 HD
BRANCH  20  22
ATOM     22  C   UNL     1      -5.067  12.169  18.622  0.00  0.00    +0.000 C 
ATOM     23  C   UNL     1      -5.897  10.965  18.131  0.00  0.00    +0.000 C 
ATOM     24  C   UNL     1      -7.032  10.404  18.965  0.00  0.00    +0.000 C 
ATOM     25  C   UNL     1      -7.483  11.192  20.162  0.00  0.00    +0.000 C 
ATOM     26  C   UNL     1      -6.444  12.084  20.772  0.00  0.00    +0.000 A 
ATOM     27  C   UNL     1      -6.833  12.590  22.030  0.00  0.00    +0.000 A 
ATOM     28  C   UNL     1      -5.886  13.065  22.902  0.00  0.00    +0.000 A 
ATOM     29  C   UNL     1      -4.563  13.039  22.481  0.00  0.00    +0.000 A 
ATOM     30  C   UNL     1      -4.194  12.704  21.130  0.00  0.00    +0.000 A 
ATOM     31  C   UNL     1      -5.143  12.263  20.195  0.00  0.00    +0.000 A 
ENDBRANCH  20  22
ENDBRANCH  17  18
ENDBRANCH   3  17
TORSDOF 9
ENDMDL
MODEL 5
REMARK VINA RESULT:      -7.0      1.557      2.535
REMARK  Name = 
REMARK  10 active torsions:
REMARK  status: ('A' for Active; 'I' for Inactive)
REMARK    1  A    between atoms: C_1  and  C_2
REMARK    2  A    between atoms: C_2  and  C_3
REMARK    3  A    between atoms: C_3  and  C_4
REMARK    4  A    between atoms: C_4  and  C_5
REMARK    5  A    between atoms: C_5  and  C_6
REMARK    6  A    between atoms: C_6  and  C_7
REMARK    7  A    between atoms: C_10  and  C_11
REMARK    8  A    between atoms: N_13  and  C_14
REMARK    9  A    between atoms: C_14  and  C_15
REMARK   10  A    between atoms: N_17  and  C_18
REMARK                            x       y       z     vdW  Elec       q    Type
REMARK                         _______ _______ _______ _____ _____    ______ ____
ROOT
ATOM      1  C   UNL     1       1.147   9.693  19.638  0.00  0.00    +0.000 C 
ATOM      2  O   UNL     1       0.801   9.727  20.815  0.00  0.00    +0.000 OA
ATOM      3  N   UNL     1       0.855  10.761  18.762  0.00  0.00    +0.000 N 
ATOM      4  H   UNL     1       1.052  10.663  17.778  0.00  0.00    +0.000 HD
ENDROOT
BRANCH   1   8
ATOM      5  C   UNL     1       3.543   6.156  18.229  0.00  0.00    +0.000 A 
ATOM      6  C   UNL     1       2.928   6.163  19.486  0.00  0.00    +0.000 A 
ATOM      7  C   UNL     1       2.141   7.292  19.911  0.00  0.00    +0.000 A 
ATOM      8  C   UNL     1       1.946   8.447  19.117  0.00  0.00    +0.000 A 
ATOM      9  C   UNL     1       2.581   8.402  17.848  0.00  0.00    +0.000 A 
ATOM     10  C   UNL     1       3.344   7.293  17.430  0.00  0.00    +0.000 A 
BRANCH   5  11
ATOM     11  C   UNL     1       4.459   5.035  17.747  0.00  0.00    +0.000 C 
BRANCH  11  12
ATOM     12  C   UNL     1       3.839   3.664  17.414  0.00  0.00    +0.000 C 
BRANCH  12  13
ATOM     13  C   UNL     1       3.827   2.695  18.599  0.00  0.00    +0.000 C 
BRANCH  13  14
ATOM     14  C   UNL     1       2.494   1.944  18.707  0.00  0.00    +0.000 C 
BRANCH  14  16
ATOM     15  C   UNL     1       0.826   3.325  20.004  0.00  0.00    +0.000 C 
ATOM     16  C   UNL     1       1.307   2.906  18.623  0.00  0.00    +0.000 C 
ENDBRANCH  14  16
ENDBRANCH  13  14
ENDBRANCH  12  13
ENDBRANCH  11  12
ENDBRANCH   5  11
ENDBRANCH   1   8
BRANCH   3  17
ATOM     17  C   UNL     1       0.098  12.033  19.148  0.00  0.00    +0.000 C 
BRANCH  17  18
ATOM     18  C   UNL     1      -1.536  12.018  19.063  0.00  0.00    +0.000 C 
ATOM     19  O   UNL     1      -2.090  10.964  18.729  0.00  0.00    +0.000 OA
ATOM     20  N   UNL     1      -2.321  13.149  19.479  0.00  0.00    +0.000 N 
ATOM     21  H   UNL     1      -1.808  13.987  19.703  0.00  0.00    +0.000 HD
BRANCH  20  22
ATOM     22  C   UNL     1      -3.542  12.898  20.405  0.00  0.00    +0.000 C 
ATOM     23  C   UNL     1      -3.609  14.204  21.224  0.00  0.00    +0.000 C 
ATOM     24  C   UNL     1      -4.844  14.562  22.027  0.00  0.00    +0.000 C 
ATOM     25  C   UNL     1      -5.902  13.509  22.201  0.00  0.00    +0.000 C 
ATOM     26  C   UNL     1      -5.958  12.471  21.120  0.00  0.00    +0.000 A 
ATOM     27  C   UNL     1      -7.119  11.675  21.191  0.00  0.00    +0.000 A 
ATOM     28  C   UNL     1      -7.543  10.976  20.089  0.00  0.00    +0.000 A 
ATOM     29  C   UNL     1      -6.774  11.079  18.937  0.00  0.00    +0.000 A 
ATOM     30  C   UNL     1      -5.491  11.735  18.926  0.00  0.00    +0.000 A 
ATOM     31  C   UNL     1      -5.002  12.415  20.052  0.00  0.00    +0.000 A 
ENDBRANCH  20  22
ENDBRANCH  17  18
ENDBRANCH   3  17
TORSDOF 9
ENDMDL
MODEL 6
REMARK VINA RESULT:      -6.9      1.226      1.445
REMARK  Name = 
REMARK  10 active torsions:
REMARK  status: ('A' for Active; 'I' for Inactive)
REMARK    1  A    between atoms: C_1  and  C_2
REMARK    2  A    between atoms: C_2  and  C_3
REMARK    3  A    between atoms: C_3  and  C_4
REMARK    4  A    between atoms: C_4  and  C_5
REMARK    5  A    between atoms: C_5  and  C_6
REMARK    6  A    between atoms: C_6  and  C_7
REMARK    7  A    between atoms: C_10  and  C_11
REMARK    8  A    between atoms: N_13  and  C_14
REMARK    9  A    between atoms: C_14  and  C_15
REMARK   10  A    between atoms: N_17  and  C_18
REMARK                            x       y       z     vdW  Elec       q    Type
REMARK                         _______ _______ _______ _____ _____    ______ ____
ROOT
ATOM      1  C   UNL     1       1.477   9.654  18.870  0.00  0.00    +0.000 C 
ATOM      2  O   UNL     1       0.948  10.122  17.866  0.00  0.00    +0.000 OA
ATOM      3  N   UNL     1       1.429  10.337  20.105  0.00  0.00    +0.000 N 
ATOM      4  H   UNL     1       1.962   9.987  20.885  0.00  0.00    +0.000 HD
ENDROOT
BRANCH   1   8
ATOM      5  C   UNL     1       3.638   5.713  18.674  0.00  0.00    +0.000 A 
ATOM      6  C   UNL     1       2.876   6.070  19.793  0.00  0.00    +0.000 A 
ATOM      7  C   UNL     1       2.168   7.323  19.829  0.00  0.00    +0.000 A 
ATOM      8  C   UNL     1       2.197   8.263  18.771  0.00  0.00    +0.000 A 
ATOM      9  C   UNL     1       2.977   7.865  17.653  0.00  0.00    +0.000 A 
ATOM     10  C   UNL     1       3.663   6.635  17.616  0.00  0.00    +0.000 A 
BRANCH   5  11
ATOM     11  C   UNL     1       4.482   4.444  18.601  0.00  0.00    +0.000 C 
BRANCH  11  12
ATOM     12  C   UNL     1       3.995   3.281  17.715  0.00  0.00    +0.000 C 
BRANCH  12  13
ATOM     13  C   UNL     1       2.483   3.292  17.468  0.00  0.00    +0.000 C 
BRANCH  13  14
ATOM     14  C   UNL     1       1.770   2.185  18.255  0.00  0.00    +0.000 C 
BRANCH  14  16
ATOM     15  C   UNL     1       0.909   3.197  20.401  0.00  0.00    +0.000 C 
ATOM     16  C   UNL     1       1.992   2.344  19.760  0.00  0.00    +0.000 C 
ENDBRANCH  14  16
ENDBRANCH  13  14
ENDBRANCH  12  13
ENDBRANCH  11  12
ENDBRANCH   5  11
ENDBRANCH   1   8
BRANCH   3  17
ATOM     17  C   UNL     1       0.750  11.688  20.335  0.00  0.00    +0.000 C 
BRANCH  17  18
ATOM     18  C   UNL     1      -0.862  11.799  20.073  0.00  0.00    +0.000 C 
ATOM     19  O   UNL     1      -1.438  12.833  20.431  0.00  0.00    +0.000 OA
ATOM     20  N   UNL     1      -1.576  10.789  19.339  0.00  0.00    +0.000 N 
ATOM     21  H   UNL     1      -1.056   9.957  19.110  0.00  0.00    +0.000 HD
BRANCH  20  22
ATOM     22  C   UNL     1      -2.554  11.242  18.221  0.00  0.00    +0.000 C 
ATOM     23  C   UNL     1      -2.321  10.179  17.128  0.00  0.00    +0.000 C 
ATOM     24  C   UNL     1      -3.295  10.012  15.978  0.00  0.00    +0.000 C 
ATOM     25  C   UNL     1      -4.358  11.059  15.797  0.00  0.00    +0.000 C 
ATOM     26  C   UNL     1      -4.752  11.796  17.042  0.00  0.00    +0.000 A 
ATOM     27  C   UNL     1      -5.920  12.567  16.870  0.00  0.00    +0.000 A 
ATOM     28  C   UNL     1      -6.648  12.964  17.963  0.00  0.00    +0.000 A 
ATOM     29  C   UNL     1      -6.174  12.591  19.213  0.00  0.00    +0.000 A 
ATOM     30  C   UNL     1      -4.884  11.973  19.392  0.00  0.00    +0.000 A 
ATOM     31  C   UNL     1      -4.088  11.600  18.299  0.00  0.00    +0.000 A 
ENDBRANCH  20  22
ENDBRANCH  17  18
ENDBRANCH   3  17
TORSDOF 9
ENDMDL
MODEL 7
REMARK VINA RESULT:      -6.9      6.460     10.593
REMARK  Name = 
REMARK  10 active torsions:
REMARK  status: ('A' for Active; 'I' for Inactive)
REMARK    1  A    between atoms: C_1  and  C_2
REMARK    2  A    between atoms: C_2  and  C_3
REMARK    3  A    between atoms: C_3  and  C_4
REMARK    4  A    between atoms: C_4  and  C_5
REMARK    5  A    between atoms: C_5  and  C_6
REMARK    6  A    between atoms: C_6  and  C_7
REMARK    7  A    between atoms: C_10  and  C_11
REMARK    8  A    between atoms: N_13  and  C_14
REMARK    9  A    between atoms: C_14  and  C_15
REMARK   10  A    between atoms: N_17  and  C_18
REMARK                            x       y       z     vdW  Elec       q    Type
REMARK                         _______ _______ _______ _____ _____    ______ ____
ROOT
ATOM      1  C   UNL     1       7.838   7.315  17.900  0.00  0.00    +0.000 C 
ATOM      2  O   UNL     1       7.851   6.494  18.813  0.00  0.00    +0.000 OA
ATOM      3  N   UNL     1       7.433   6.948  16.597  0.00  0.00    +0.000 N 
ATOM      4  H   UNL     1       7.535   7.609  15.843  0.00  0.00    +0.000 HD
ENDROOT
BRANCH   1   8
ATOM      5  C   UNL     1       9.135  11.554  18.662  0.00  0.00    +0.000 A 
ATOM      6  C   UNL     1       8.289  11.233  17.593  0.00  0.00    +0.000 A 
ATOM      7  C   UNL     1       7.861   9.875  17.379  0.00  0.00    +0.000 A 
ATOM      8  C   UNL     1       8.259   8.795  18.203  0.00  0.00    +0.000 A 
ATOM      9  C   UNL     1       9.112   9.160  19.278  0.00  0.00    +0.000 A 
ATOM     10  C   UNL     1       9.525  10.490  19.491  0.00  0.00    +0.000 A 
BRANCH   5  11
ATOM     11  C   UNL     1       9.696  12.952  18.899  0.00  0.00    +0.000 C 
BRANCH  11  12
ATOM     12  C   UNL     1      10.016  13.386  20.343  0.00  0.00    +0.000 C 
BRANCH  12  13
ATOM     13  C   UNL     1      10.979  14.574  20.426  0.00  0.00    +0.000 C 
BRANCH  13  14
ATOM     14  C   UNL     1      10.436  15.800  19.681  0.00  0.00    +0.000 C 
BRANCH  14  16
ATOM     15  C   UNL     1       7.991  16.353  19.383  0.00  0.00    +0.000 C 
ATOM     16  C   UNL     1       9.168  16.337  20.346  0.00  0.00    +0.000 C 
ENDBRANCH  14  16
ENDBRANCH  13  14
ENDBRANCH  12  13
ENDBRANCH  11  12
ENDBRANCH   5  11
ENDBRANCH   1   8
BRANCH   3  17
ATOM     17  C   UNL     1       6.989   5.546  16.177  0.00  0.00    +0.000 C 
BRANCH  17  18
ATOM     18  C   UNL     1       5.509   5.029  16.649  0.00  0.00    +0.000 C 
ATOM     19  O   UNL     1       5.351   3.817  16.835  0.00  0.00    +0.000 OA
ATOM     20  N   UNL     1       4.454   5.954  16.960  0.00  0.00    +0.000 N 
ATOM     21  H   UNL     1       4.636   6.923  16.750  0.00  0.00    +0.000 HD
BRANCH  20  22
ATOM     22  C   UNL     1       3.648   5.740  18.270  0.00  0.00    +0.000 C 
ATOM     23  C   UNL     1       3.246   7.181  18.649  0.00  0.00    +0.000 C 
ATOM     24  C   UNL     1       2.165   7.446  19.678  0.00  0.00    +0.000 C 
ATOM     25  C   UNL     1       1.664   6.286  20.491  0.00  0.00    +0.000 C 
ATOM     26  C   UNL     1       1.797   4.941  19.840  0.00  0.00    +0.000 A 
ATOM     27  C   UNL     1       1.082   3.935  20.521  0.00  0.00    +0.000 A 
ATOM     28  C   UNL     1       0.748   2.772  19.874  0.00  0.00    +0.000 A 
ATOM     29  C   UNL     1       1.159   2.637  18.555  0.00  0.00    +0.000 A 
ATOM     30  C   UNL     1       2.051   3.579  17.929  0.00  0.00    +0.000 A 
ATOM     31  C   UNL     1       2.455   4.755  18.579  0.00  0.00    +0.000 A 
ENDBRANCH  20  22
ENDBRANCH  17  18
ENDBRANCH   3  17
TORSDOF 9
ENDMDL
MODEL 8
REMARK VINA RESULT:      -6.9      3.955      6.350
REMARK  Name = 
REMARK  10 active torsions:
REMARK  status: ('A' for Active; 'I' for Inactive)
REMARK    1  A    between atoms: C_1  and  C_2
REMARK    2  A    between atoms: C_2  and  C_3
REMARK    3  A    between atoms: C_3  and  C_4
REMARK    4  A    between atoms: C_4  and  C_5
REMARK    5  A    between atoms: C_5  and  C_6
REMARK    6  A    between atoms: C_6  and  C_7
REMARK    7  A    between atoms: C_10  and  C_11
REMARK    8  A    between atoms: N_13  and  C_14
REMARK    9  A    between atoms: C_14  and  C_15
REMARK   10  A    between atoms: N_17  and  C_18
REMARK                            x       y       z     vdW  Elec       q    Type
REMARK                         _______ _______ _______ _____ _____    ______ ____
ROOT
ATOM      1  C   UNL     1       2.379   7.613  18.676  0.00  0.00    +0.000 C 
ATOM      2  O   UNL     1       2.125   7.361  19.850  0.00  0.00    +0.000 OA
ATOM      3  N   UNL     1       1.883   8.782  18.058  0.00  0.00    +0.000 N 
ATOM      4  H   UNL     1       2.014   8.912  17.067  0.00  0.00    +0.000 HD
ENDROOT
BRANCH   1   8
ATOM      5  C   UNL     1       5.039   4.728  16.476  0.00  0.00    +0.000 A 
ATOM      6  C   UNL     1       3.886   4.293  17.140  0.00  0.00    +0.000 A 
ATOM      7  C   UNL     1       3.030   5.233  17.816  0.00  0.00    +0.000 A 
ATOM      8  C   UNL     1       3.289   6.623  17.866  0.00  0.00    +0.000 A 
ATOM      9  C   UNL     1       4.464   7.028  17.179  0.00  0.00    +0.000 A 
ATOM     10  C   UNL     1       5.297   6.107  16.511  0.00  0.00    +0.000 A 
BRANCH   5  11
ATOM     11  C   UNL     1       6.035   3.782  15.813  0.00  0.00    +0.000 C 
BRANCH  11  12
ATOM     12  C   UNL     1       6.480   4.071  14.366  0.00  0.00    +0.000 C 
BRANCH  12  13
ATOM     13  C   UNL     1       5.402   3.765  13.322  0.00  0.00    +0.000 C 
BRANCH  13  14
ATOM     14  C   UNL     1       6.010   3.478  11.944  0.00  0.00    +0.000 C 
BRANCH  14  16
ATOM     15  C   UNL     1       6.866   1.262  11.088  0.00  0.00    +0.000 C 
ATOM     16  C   UNL     1       5.636   2.078  11.454  0.00  0.00    +0.000 C 
ENDBRANCH  14  16
ENDBRANCH  13  14
ENDBRANCH  12  13
ENDBRANCH  11  12
ENDBRANCH   5  11
ENDBRANCH   1   8
BRANCH   3  17
ATOM     17  C   UNL     1       1.001   9.829  18.740  0.00  0.00    +0.000 C 
BRANCH  17  18
ATOM     18  C   UNL     1       1.519  11.382  18.762  0.00  0.00    +0.000 C 
ATOM     19  O   UNL     1       2.317  11.739  17.887  0.00  0.00    +0.000 OA
ATOM     20  N   UNL     1       0.977  12.342  19.685  0.00  0.00    +0.000 N 
ATOM     21  H   UNL     1       0.360  11.977  20.394  0.00  0.00    +0.000 HD
BRANCH  20  22
ATOM     22  C   UNL     1       0.546  13.730  19.137  0.00  0.00    +0.000 C 
ATOM     23  C   UNL     1      -0.597  14.123  20.097  0.00  0.00    +0.000 C 
ATOM     24  C   UNL     1      -1.107  15.549  20.163  0.00  0.00    +0.000 C 
ATOM     25  C   UNL     1      -0.642  16.514  19.110  0.00  0.00    +0.000 C 
ATOM     26  C   UNL     1       0.686  16.197  18.490  0.00  0.00    +0.000 A 
ATOM     27  C   UNL     1       1.190  17.260  17.713  0.00  0.00    +0.000 A 
ATOM     28  C   UNL     1       2.529  17.323  17.420  0.00  0.00    +0.000 A 
ATOM     29  C   UNL     1       3.334  16.300  17.902  0.00  0.00    +0.000 A 
ATOM     30  C   UNL     1       2.788  15.123  18.527  0.00  0.00    +0.000 A 
ATOM     31  C   UNL     1       1.416  15.001  18.796  0.00  0.00    +0.000 A 
ENDBRANCH  20  22
ENDBRANCH  17  18
ENDBRANCH   3  17
TORSDOF 9
ENDMDL
MODEL 9
REMARK VINA RESULT:      -6.9      1.501      2.708
REMARK  Name = 
REMARK  10 active torsions:
REMARK  status: ('A' for Active; 'I' for Inactive)
REMARK    1  A    between atoms: C_1  and  C_2
REMARK    2  A    between atoms: C_2  and  C_3
REMARK    3  A    between atoms: C_3  and  C_4
REMARK    4  A    between atoms: C_4  and  C_5
REMARK    5  A    between atoms: C_5  and  C_6
REMARK    6  A    between atoms: C_6  and  C_7
REMARK    7  A    between atoms: C_10  and  C_11
REMARK    8  A    between atoms: N_13  and  C_14
REMARK    9  A    between atoms: C_14  and  C_15
REMARK   10  A    between atoms: N_17  and  C_18
REMARK                            x       y       z     vdW  Elec       q    Type
REMARK                         _______ _______ _______ _____ _____    ______ ____
ROOT
ATOM      1  C   UNL     1       0.912   9.547  20.527  0.00  0.00    +0.000 C 
ATOM      2  O   UNL     1      -0.094   9.412  21.218  0.00  0.00    +0.000 OA
ATOM      3  N   UNL     1       1.483  10.821  20.316  0.00  0.00    +0.000 N 
ATOM      4  H   UNL     1       2.242  10.920  19.659  0.00  0.00    +0.000 HD
ENDROOT
BRANCH   1   8
ATOM      5  C   UNL     1       2.695   5.880  18.628  0.00  0.00    +0.000 A 
ATOM      6  C   UNL     1       2.616   7.094  17.934  0.00  0.00    +0.000 A 
ATOM      7  C   UNL     1       2.068   8.266  18.566  0.00  0.00    +0.000 A 
ATOM      8  C   UNL     1       1.574   8.275  19.892  0.00  0.00    +0.000 A 
ATOM      9  C   UNL     1       1.674   7.028  20.565  0.00  0.00    +0.000 A 
ATOM     10  C   UNL     1       2.218   5.884  19.948  0.00  0.00    +0.000 A 
BRANCH   5  11
ATOM     11  C   UNL     1       3.184   4.580  17.996  0.00  0.00    +0.000 C 
BRANCH  11  12
ATOM     12  C   UNL     1       4.616   4.101  18.302  0.00  0.00    +0.000 C 
BRANCH  12  13
ATOM     13  C   UNL     1       5.686   4.791  17.451  0.00  0.00    +0.000 C 
BRANCH  13  14
ATOM     14  C   UNL     1       5.315   4.795  15.963  0.00  0.00    +0.000 C 
BRANCH  14  16
ATOM     15  C   UNL     1       6.080   3.904  13.728  0.00  0.00    +0.000 C 
ATOM     16  C   UNL     1       6.515   4.421  15.091  0.00  0.00    +0.000 C 
ENDBRANCH  14  16
ENDBRANCH  13  14
ENDBRANCH  12  13
ENDBRANCH  11  12
ENDBRANCH   5  11
ENDBRANCH   1   8
BRANCH   3  17
ATOM     17  C   UNL     1       0.944  12.133  20.889  0.00  0.00    +0.000 C 
BRANCH  17  18
ATOM     18  C   UNL     1      -0.420  12.760  20.236  0.00  0.00    +0.000 C 
ATOM     19  O   UNL     1      -0.320  13.797  19.570  0.00  0.00    +0.000 OA
ATOM     20  N   UNL     1      -1.679  12.072  20.322  0.00  0.00    +0.000 N 
ATOM     21  H   UNL     1      -1.700  11.254  20.910  0.00  0.00    +0.000 HD
BRANCH  20  22
ATOM     22  C   UNL     1      -2.534  11.934  19.032  0.00  0.00    +0.000 C 
ATOM     23  C   UNL     1      -1.895  10.711  18.342  0.00  0.00    +0.000 C 
ATOM     24  C   UNL     1      -2.604   9.992  17.211  0.00  0.00    +0.000 C 
ATOM     25  C   UNL     1      -3.825  10.637  16.621  0.00  0.00    +0.000 C 
ATOM     26  C   UNL     1      -4.573  11.557  17.540  0.00  0.00    +0.000 A 
ATOM     27  C   UNL     1      -5.837  11.921  17.033  0.00  0.00    +0.000 A 
ATOM     28  C   UNL     1      -6.806  12.397  17.880  0.00  0.00    +0.000 A 
ATOM     29  C   UNL     1      -6.475  12.515  19.223  0.00  0.00    +0.000 A 
ATOM     30  C   UNL     1      -5.130  12.325  19.702  0.00  0.00    +0.000 A 
ATOM     31  C   UNL     1      -4.101  11.889  18.853  0.00  0.00    +0.000 A 
ENDBRANCH  20  22
ENDBRANCH  17  18
ENDBRANCH   3  17
TORSDOF 9
ENDMDL
