MODEL 1
REMARK VINA RESULT:      -7.5      0.000      0.000
REMARK  Name = 
REMARK  4 active torsions:
REMARK  status: ('A' for Active; 'I' for Inactive)
REMARK    1  A    between atoms: O_1  and  C_2
REMARK    2  A    between atoms: C_2  and  C_3
REMARK    3  A    between atoms: C_7  and  C_8
REMARK    4  A    between atoms: C_11  and  O_12
REMARK                            x       y       z     vdW  Elec       q    Type
REMARK                         _______ _______ _______ _____ _____    ______ ____
ROOT
ATOM      1  C   UNL     1       1.075   3.402  20.063  0.00  0.00    +0.000 C 
ATOM      2  C   UNL     1       0.973   4.856  20.553  0.00  0.00    +0.000 C 
ATOM      3  C   UNL     1       2.225   5.720  20.449  0.00  0.00    +0.000 C 
ATOM      4  C   UNL     1       2.415   6.370  19.081  0.00  0.00    +0.000 C 
ATOM      5  C   UNL     1       2.725   5.466  17.876  0.00  0.00    +0.000 C 
ATOM      6  C   UNL     1       1.798   4.246  17.709  0.00  0.00    +0.000 C 
ATOM      7  C   UNL     1       1.884   3.162  18.780  0.00  0.00    +0.000 C 
ENDROOT
BRANCH   5   8
ATOM      8  C   UNL     1       4.208   5.147  17.701  0.00  0.00    +0.000 A 
ATOM      9  C   UNL     1       5.182   5.497  18.648  0.00  0.00    +0.000 A 
ATOM     10  C   UNL     1       6.527   5.162  18.463  0.00  0.00    +0.000 A 
ATOM     11  C   UNL     1       6.915   4.485  17.317  0.00  0.00    +0.000 A 
ATOM     12  C   UNL     1       5.979   4.143  16.353  0.00  0.00    +0.000 A 
ATOM     13  C   UNL     1       4.635   4.468  16.545  0.00  0.00    +0.000 A 
BRANCH  11  14
ATOM     14  O   UNL     1       8.215   4.137  17.106  0.00  0.00    +0.000 OA
ATOM     15  H   UNL     1       8.237   3.239  16.741  0.00  0.00    +0.000 HD
ENDBRANCH  11  14
ENDBRANCH   5   8
BRANCH   1  16
ATOM     16  C   UNL     1       1.570   2.451  21.168  0.00  0.00    +0.000 C 
BRANCH  16  17
ATOM     17  O   UNL     1       2.055   3.177  22.289  0.00  0.00    +0.000 OA
ATOM     18  H   UNL     1       1.297   3.331  22.879  0.00  0.00    +0.000 HD
ENDBRANCH  16  17
ENDBRANCH   1  16
TORSDOF 4
ENDMDL
MODEL 2
REMARK VINA RESULT:      -7.5      0.444      1.281
REMARK  Name = 
REMARK  4 active torsions:
REMARK  status: ('A' for Active; 'I' for Inactive)
REMARK    1  A    between atoms: O_1  and  C_2
REMARK    2  A    between atoms: C_2  and  C_3
REMARK    3  A    between atoms: C_7  and  C_8
REMARK    4  A    between atoms: C_11  and  O_12
REMARK                            x       y       z     vdW  Elec       q    Type
REMARK                         _______ _______ _______ _____ _____    ______ ____
ROOT
ATOM      1  C   UNL     1       1.122   3.343  20.319  0.00  0.00    +0.000 C 
ATOM      2  C   UNL     1       0.995   4.845  20.627  0.00  0.00    +0.000 C 
ATOM      3  C   UNL     1       2.213   5.721  20.359  0.00  0.00    +0.000 C 
ATOM      4  C   UNL     1       2.325   6.197  18.913  0.00  0.00    +0.000 C 
ATOM      5  C   UNL     1       2.613   5.157  17.818  0.00  0.00    +0.000 C 
ATOM      6  C   UNL     1       1.719   3.902  17.848  0.00  0.00    +0.000 C 
ATOM      7  C   UNL     1       1.884   2.964  19.040  0.00  0.00    +0.000 C 
ENDROOT
BRANCH   5   8
ATOM      8  C   UNL     1       4.097   4.857  17.616  0.00  0.00    +0.000 A 
ATOM      9  C   UNL     1       4.601   4.242  16.461  0.00  0.00    +0.000 A 
ATOM     10  C   UNL     1       5.971   4.010  16.303  0.00  0.00    +0.000 A 
ATOM     11  C   UNL     1       6.851   4.379  17.308  0.00  0.00    +0.000 A 
ATOM     12  C   UNL     1       6.381   4.972  18.471  0.00  0.00    +0.000 A 
ATOM     13  C   UNL     1       5.014   5.214  18.622  0.00  0.00    +0.000 A 
BRANCH  11  14
ATOM     14  O   UNL     1       8.192   4.174  17.186  0.00  0.00    +0.000 OA
ATOM     15  H   UNL     1       8.563   4.031  18.071  0.00  0.00    +0.000 HD
ENDBRANCH  11  14
ENDBRANCH   5   8
BRANCH   1  16
ATOM     16  C   UNL     1       1.693   2.553  21.511  0.00  0.00    +0.000 C 
BRANCH  16  17
ATOM     17  O   UNL     1       3.113   2.561  21.497  0.00  0.00    +0.000 OA
ATOM     18  H   UNL     1       3.389   2.909  20.632  0.00  0.00    +0.000 HD
ENDBRANCH  16  17
ENDBRANCH   1  16
TORSDOF 4
ENDMDL
MODEL 3
REMARK VINA RESULT:      -7.3      1.409      1.990
REMARK  Name = 
REMARK  4 active torsions:
REMARK  status: ('A' for Active; 'I' for Inactive)
REMARK    1  A    between atoms: O_1  and  C_2
REMARK    2  A    between atoms: C_2  and  C_3
REMARK    3  A    between atoms: C_7  and  C_8
REMARK    4  A    between atoms: C_11  and  O_12
REMARK                            x       y       z     vdW  Elec       q    Type
REMARK                         _______ _______ _______ _____ _____    ______ ____
ROOT
ATOM      1  C   UNL     1       2.229   2.216  20.129  0.00  0.00    +0.000 C 
ATOM      2  C   UNL     1       1.103   3.223  19.840  0.00  0.00    +0.000 C 
ATOM      3  C   UNL     1       1.496   4.546  19.193  0.00  0.00    +0.000 C 
ATOM      4  C   UNL     1       1.602   4.482  17.671  0.00  0.00    +0.000 C 
ATOM      5  C   UNL     1       2.730   3.642  17.050  0.00  0.00    +0.000 C 
ATOM      6  C   UNL     1       2.872   2.212  17.607  0.00  0.00    +0.000 C 
ATOM      7  C   UNL     1       3.322   2.078  19.059  0.00  0.00    +0.000 C 
ENDROOT
BRANCH   5   8
ATOM      8  C   UNL     1       4.056   4.386  16.904  0.00  0.00    +0.000 A 
ATOM      9  C   UNL     1       5.194   3.811  16.320  0.00  0.00    +0.000 A 
ATOM     10  C   UNL     1       6.382   4.536  16.180  0.00  0.00    +0.000 A 
ATOM     11  C   UNL     1       6.446   5.843  16.638  0.00  0.00    +0.000 A 
ATOM     12  C   UNL     1       5.344   6.433  17.238  0.00  0.00    +0.000 A 
ATOM     13  C   UNL     1       4.155   5.712  17.366  0.00  0.00    +0.000 A 
BRANCH  11  14
ATOM     14  O   UNL     1       7.585   6.581  16.513  0.00  0.00    +0.000 OA
ATOM     15  H   UNL     1       7.470   7.199  15.774  0.00  0.00    +0.000 HD
ENDBRANCH  11  14
ENDBRANCH   5   8
BRANCH   1  16
ATOM     16  C   UNL     1       2.881   2.456  21.503  0.00  0.00    +0.000 C 
BRANCH  16  17
ATOM     17  O   UNL     1       2.004   3.159  22.371  0.00  0.00    +0.000 OA
ATOM     18  H   UNL     1       2.458   3.246  23.227  0.00  0.00    +0.000 HD
ENDBRANCH  16  17
ENDBRANCH   1  16
TORSDOF 4
ENDMDL
MODEL 4
REMARK VINA RESULT:      -7.3      1.423      1.774
REMARK  Name = 
REMARK  4 active torsions:
REMARK  status: ('A' for Active; 'I' for Inactive)
REMARK    1  A    between atoms: O_1  and  C_2
REMARK    2  A    between atoms: C_2  and  C_3
REMARK    3  A    between atoms: C_7  and  C_8
REMARK    4  A    between atoms: C_11  and  O_12
REMARK                            x       y       z     vdW  Elec       q    Type
REMARK                         _______ _______ _______ _____ _____    ______ ____
ROOT
ATOM      1  C   UNL     1       2.259   2.184  20.125  0.00  0.00    +0.000 C 
ATOM      2  C   UNL     1       1.084   3.126  19.814  0.00  0.00    +0.000 C 
ATOM      3  C   UNL     1       1.412   4.467  19.168  0.00  0.00    +0.000 C 
ATOM      4  C   UNL     1       1.546   4.404  17.648  0.00  0.00    +0.000 C 
ATOM      5  C   UNL     1       2.728   3.625  17.048  0.00  0.00    +0.000 C 
ATOM      6  C   UNL     1       2.941   2.208  17.613  0.00  0.00    +0.000 C 
ATOM      7  C   UNL     1       3.375   2.104  19.072  0.00  0.00    +0.000 C 
ENDROOT
BRANCH   5   8
ATOM      8  C   UNL     1       4.013   4.442  16.920  0.00  0.00    +0.000 A 
ATOM      9  C   UNL     1       4.118   5.772  17.354  0.00  0.00    +0.000 A 
ATOM     10  C   UNL     1       5.321   6.477  17.245  0.00  0.00    +0.000 A 
ATOM     11  C   UNL     1       6.429   5.861  16.684  0.00  0.00    +0.000 A 
ATOM     12  C   UNL     1       6.351   4.554  16.228  0.00  0.00    +0.000 A 
ATOM     13  C   UNL     1       5.153   3.848  16.349  0.00  0.00    +0.000 A 
BRANCH  11  14
ATOM     14  O   UNL     1       7.619   6.515  16.567  0.00  0.00    +0.000 OA
ATOM     15  H   UNL     1       7.633   7.243  17.207  0.00  0.00    +0.000 HD
ENDBRANCH  11  14
ENDBRANCH   5   8
BRANCH   1  16
ATOM     16  C   UNL     1       2.876   2.464  21.508  0.00  0.00    +0.000 C 
BRANCH  16  17
ATOM     17  O   UNL     1       1.959   3.150  22.348  0.00  0.00    +0.000 OA
ATOM     18  H   UNL     1       2.258   4.074  22.404  0.00  0.00    +0.000 HD
ENDBRANCH  16  17
ENDBRANCH   1  16
TORSDOF 4
ENDMDL
MODEL 5
REMARK VINA RESULT:      -7.1      1.293      1.345
REMARK  Name = 
REMARK  4 active torsions:
REMARK  status: ('A' for Active; 'I' for Inactive)
REMARK    1  A    between atoms: O_1  and  C_2
REMARK    2  A    between atoms: C_2  and  C_3
REMARK    3  A    between atoms: C_7  and  C_8
REMARK    4  A    between atoms: C_11  and  O_12
REMARK                            x       y       z     vdW  Elec       q    Type
REMARK                         _______ _______ _______ _____ _____    ______ ____
ROOT
ATOM      1  C   UNL     1       0.840   3.320  19.141  0.00  0.00    +0.000 C 
ATOM      2  C   UNL     1       0.971   4.168  20.417  0.00  0.00    +0.000 C 
ATOM      3  C   UNL     1       2.363   4.664  20.789  0.00  0.00    +0.000 C 
ATOM      4  C   UNL     1       2.765   5.959  20.088  0.00  0.00    +0.000 C 
ATOM      5  C   UNL     1       2.990   5.930  18.567  0.00  0.00    +0.000 C 
ATOM      6  C   UNL     1       1.871   5.261  17.747  0.00  0.00    +0.000 C 
ATOM      7  C   UNL     1       1.681   3.758  17.933  0.00  0.00    +0.000 C 
ENDROOT
BRANCH   5   8
ATOM      8  C   UNL     1       4.399   5.511  18.153  0.00  0.00    +0.000 A 
ATOM      9  C   UNL     1       5.457   5.379  19.065  0.00  0.00    +0.000 A 
ATOM     10  C   UNL     1       6.726   4.966  18.649  0.00  0.00    +0.000 A 
ATOM     11  C   UNL     1       6.955   4.693  17.310  0.00  0.00    +0.000 A 
ATOM     12  C   UNL     1       5.935   4.833  16.380  0.00  0.00    +0.000 A 
ATOM     13  C   UNL     1       4.665   5.234  16.799  0.00  0.00    +0.000 A 
BRANCH  11  14
ATOM     14  O   UNL     1       8.177   4.282  16.869  0.00  0.00    +0.000 OA
ATOM     15  H   UNL     1       8.487   3.567  17.447  0.00  0.00    +0.000 HD
ENDBRANCH  11  14
ENDBRANCH   5   8
BRANCH   1  16
ATOM     16  C   UNL     1       1.074   1.823  19.414  0.00  0.00    +0.000 C 
BRANCH  16  17
ATOM     17  O   UNL     1       2.195   1.339  18.689  0.00  0.00    +0.000 OA
ATOM     18  H   UNL     1       2.885   1.123  19.340  0.00  0.00    +0.000 HD
ENDBRANCH  16  17
ENDBRANCH   1  16
TORSDOF 4
ENDMDL
MODEL 6
REMARK VINA RESULT:      -7.0      1.275      1.771
REMARK  Name = 
REMARK  4 active torsions:
REMARK  status: ('A' for Active; 'I' for Inactive)
REMARK    1  A    between atoms: O_1  and  C_2
REMARK    2  A    between atoms: C_2  and  C_3
REMARK    3  A    between atoms: C_7  and  C_8
REMARK    4  A    between atoms: C_11  and  O_12
REMARK                            x       y       z     vdW  Elec       q    Type
REMARK                         _______ _______ _______ _____ _____    ______ ____
ROOT
ATOM      1  C   UNL     1       0.807   3.324  19.174  0.00  0.00    +0.000 C 
ATOM      2  C   UNL     1       1.005   4.159  20.450  0.00  0.00    +0.000 C 
ATOM      3  C   UNL     1       2.423   4.614  20.777  0.00  0.00    +0.000 C 
ATOM      4  C   UNL     1       2.836   5.903  20.070  0.00  0.00    +0.000 C 
ATOM      5  C   UNL     1       3.006   5.880  18.542  0.00  0.00    +0.000 C 
ATOM      6  C   UNL     1       1.840   5.247  17.757  0.00  0.00    +0.000 C 
ATOM      7  C   UNL     1       1.617   3.749  17.940  0.00  0.00    +0.000 C 
ENDROOT
BRANCH   5   8
ATOM      8  C   UNL     1       4.387   5.426  18.075  0.00  0.00    +0.000 A 
ATOM      9  C   UNL     1       4.661   5.049  16.751  0.00  0.00    +0.000 A 
ATOM     10  C   UNL     1       5.946   4.666  16.357  0.00  0.00    +0.000 A 
ATOM     11  C   UNL     1       6.972   4.641  17.290  0.00  0.00    +0.000 A 
ATOM     12  C   UNL     1       6.729   4.989  18.610  0.00  0.00    +0.000 A 
ATOM     13  C   UNL     1       5.447   5.383  18.999  0.00  0.00    +0.000 A 
BRANCH  11  14
ATOM     14  O   UNL     1       8.238   4.279  16.940  0.00  0.00    +0.000 OA
ATOM     15  H   UNL     1       8.281   3.311  16.903  0.00  0.00    +0.000 HD
ENDBRANCH  11  14
ENDBRANCH   5   8
BRANCH   1  16
ATOM     16  C   UNL     1       1.009   1.819  19.429  0.00  0.00    +0.000 C 
BRANCH  16  17
ATOM     17  O   UNL     1       2.136   1.326  18.718  0.00  0.00    +0.000 OA
ATOM     18  H   UNL     1       2.442   0.530  19.185  0.00  0.00    +0.000 HD
ENDBRANCH  16  17
ENDBRANCH   1  16
TORSDOF 4
ENDMDL
MODEL 7
REMARK VINA RESULT:      -6.9      1.712      2.360
REMARK  Name = 
REMARK  4 active torsions:
REMARK  status: ('A' for Active; 'I' for Inactive)
REMARK    1  A    between atoms: O_1  and  C_2
REMARK    2  A    between atoms: C_2  and  C_3
REMARK    3  A    between atoms: C_7  and  C_8
REMARK    4  A    between atoms: C_11  and  O_12
REMARK                            x       y       z     vdW  Elec       q    Type
REMARK                         _______ _______ _______ _____ _____    ______ ____
ROOT
ATOM      1  C   UNL     1       2.272   2.706  20.452  0.00  0.00    +0.000 C 
ATOM      2  C   UNL     1       1.165   2.839  19.393  0.00  0.00    +0.000 C 
ATOM      3  C   UNL     1       1.350   3.901  18.315  0.00  0.00    +0.000 C 
ATOM      4  C   UNL     1       2.196   3.439  17.131  0.00  0.00    +0.000 C 
ATOM      5  C   UNL     1       3.690   3.161  17.362  0.00  0.00    +0.000 C 
ATOM      6  C   UNL     1       4.017   2.264  18.571  0.00  0.00    +0.000 C 
ATOM      7  C   UNL     1       3.720   2.834  19.955  0.00  0.00    +0.000 C 
ENDROOT
BRANCH   5   8
ATOM      8  C   UNL     1       4.580   4.398  17.249  0.00  0.00    +0.000 A 
ATOM      9  C   UNL     1       4.091   5.706  17.385  0.00  0.00    +0.000 A 
ATOM     10  C   UNL     1       4.943   6.811  17.303  0.00  0.00    +0.000 A 
ATOM     11  C   UNL     1       6.296   6.619  17.068  0.00  0.00    +0.000 A 
ATOM     12  C   UNL     1       6.807   5.339  16.910  0.00  0.00    +0.000 A 
ATOM     13  C   UNL     1       5.956   4.236  17.004  0.00  0.00    +0.000 A 
BRANCH  11  14
ATOM     14  O   UNL     1       7.157   7.672  16.987  0.00  0.00    +0.000 OA
ATOM     15  H   UNL     1       6.694   8.470  17.286  0.00  0.00    +0.000 HD
ENDBRANCH  11  14
ENDBRANCH   5   8
BRANCH   1  16
ATOM     16  C   UNL     1       2.052   3.655  21.643  0.00  0.00    +0.000 C 
BRANCH  16  17
ATOM     17  O   UNL     1       2.512   4.966  21.346  0.00  0.00    +0.000 OA
ATOM     18  H   UNL     1       1.743   5.478  21.043  0.00  0.00    +0.000 HD
ENDBRANCH  16  17
ENDBRANCH   1  16
TORSDOF 4
ENDMDL
MODEL 8
REMARK VINA RESULT:      -6.9      1.593      2.081
REMARK  Name = 
REMARK  4 active torsions:
REMARK  status: ('A' for Active; 'I' for Inactive)
REMARK    1  A    between atoms: O_1  and  C_2
REMARK    2  A    between atoms: C_2  and  C_3
REMARK    3  A    between atoms: C_7  and  C_8
REMARK    4  A    between atoms: C_11  and  O_12
REMARK                            x       y       z     vdW  Elec       q    Type
REMARK                         _______ _______ _______ _____ _____    ______ ____
ROOT
ATOM      1  C   UNL     1       1.706   2.237  19.858  0.00  0.00    +0.000 C 
ATOM      2  C   UNL     1       0.934   2.974  18.751  0.00  0.00    +0.000 C 
ATOM      3  C   UNL     1       1.593   4.205  18.138  0.00  0.00    +0.000 C 
ATOM      4  C   UNL     1       2.573   3.885  17.012  0.00  0.00    +0.000 C 
ATOM      5  C   UNL     1       3.874   3.144  17.360  0.00  0.00    +0.000 C 
ATOM      6  C   UNL     1       3.704   1.883  18.229  0.00  0.00    +0.000 C 
ATOM      7  C   UNL     1       3.222   2.091  19.662  0.00  0.00    +0.000 C 
ENDROOT
BRANCH   5   8
ATOM      8  C   UNL     1       5.012   4.059  17.810  0.00  0.00    +0.000 A 
ATOM      9  C   UNL     1       5.047   4.669  19.072  0.00  0.00    +0.000 A 
ATOM     10  C   UNL     1       6.121   5.478  19.456  0.00  0.00    +0.000 A 
ATOM     11  C   UNL     1       7.166   5.697  18.573  0.00  0.00    +0.000 A 
ATOM     12  C   UNL     1       7.151   5.123  17.310  0.00  0.00    +0.000 A 
ATOM     13  C   UNL     1       6.084   4.306  16.933  0.00  0.00    +0.000 A 
BRANCH  11  14
ATOM     14  O   UNL     1       8.232   6.475  18.915  0.00  0.00    +0.000 OA
ATOM     15  H   UNL     1       7.938   7.399  18.951  0.00  0.00    +0.000 HD
ENDBRANCH  11  14
ENDBRANCH   5   8
BRANCH   1  16
ATOM     16  C   UNL     1       1.423   2.826  21.252  0.00  0.00    +0.000 C 
BRANCH  16  17
ATOM     17  O   UNL     1       2.552   2.694  22.104  0.00  0.00    +0.000 OA
ATOM     18  H   UNL     1       3.164   3.415  21.880  0.00  0.00    +0.000 HD
ENDBRANCH  16  17
ENDBRANCH   1  16
TORSDOF 4
ENDMDL
MODEL 9
REMARK VINA RESULT:      -6.9      1.786      2.396
REMARK  Name = 
REMARK  4 active torsions:
REMARK  status: ('A' for Active; 'I' for Inactive)
REMARK    1  A    between atoms: O_1  and  C_2
REMARK    2  A    between atoms: C_2  and  C_3
REMARK    3  A    between atoms: C_7  and  C_8
REMARK    4  A    between atoms: C_11  and  O_12
REMARK                            x       y       z     vdW  Elec       q    Type
REMARK                         _______ _______ _______ _____ _____    ______ ____
ROOT
ATOM      1  C   UNL     1       2.116   3.027  20.230  0.00  0.00    +0.000 C 
ATOM      2  C   UNL     1       1.232   3.089  18.974  0.00  0.00    +0.000 C 
ATOM      3  C   UNL     1       1.640   4.065  17.876  0.00  0.00    +0.000 C 
ATOM      4  C   UNL     1       2.683   3.507  16.911  0.00  0.00    +0.000 C 
ATOM      5  C   UNL     1       4.101   3.235  17.440  0.00  0.00    +0.000 C 
ATOM      6  C   UNL     1       4.173   2.429  18.751  0.00  0.00    +0.000 C 
ATOM      7  C   UNL     1       3.634   3.105  20.008  0.00  0.00    +0.000 C 
ENDROOT
BRANCH   5   8
ATOM      8  C   UNL     1       5.023   4.452  17.408  0.00  0.00    +0.000 A 
ATOM      9  C   UNL     1       6.277   4.476  18.036  0.00  0.00    +0.000 A 
ATOM     10  C   UNL     1       7.105   5.600  17.959  0.00  0.00    +0.000 A 
ATOM     11  C   UNL     1       6.678   6.721  17.264  0.00  0.00    +0.000 A 
ATOM     12  C   UNL     1       5.436   6.735  16.648  0.00  0.00    +0.000 A 
ATOM     13  C   UNL     1       4.616   5.607  16.716  0.00  0.00    +0.000 A 
BRANCH  11  14
ATOM     14  O   UNL     1       7.461   7.832  17.163  0.00  0.00    +0.000 OA
ATOM     15  H   UNL     1       7.410   8.320  18.000  0.00  0.00    +0.000 HD
ENDBRANCH  11  14
ENDBRANCH   5   8
BRANCH   1  16
ATOM     16  C   UNL     1       1.697   4.067  21.286  0.00  0.00    +0.000 C 
BRANCH  16  17
ATOM     17  O   UNL     1       2.499   5.236  21.200  0.00  0.00    +0.000 OA
ATOM     18  H   UNL     1       3.411   4.946  21.033  0.00  0.00    +0.000 HD
ENDBRANCH  16  17
ENDBRANCH   1  16
TORSDOF 4
ENDMDL
