MODEL 1
REMARK VINA RESULT:      -7.9      0.000      0.000
REMARK  Name = 
REMARK  6 active torsions:
REMARK  status: ('A' for Active; 'I' for Inactive)
REMARK    1  A    between atoms: C_1  and  C_2
REMARK    2  A    between atoms: C_4  and  C_5
REMARK    3  A    between atoms: C_9  and  C_10
REMARK    4  A    between atoms: N_12  and  C_13
REMARK    5  A    between atoms: C_18  and  C_19
REMARK    6  A    between atoms: C_19  and  C_20
REMARK                            x       y       z     vdW  Elec       q    Type
REMARK                         _______ _______ _______ _____ _____    ______ ____
ROOT
ATOM      1  C   UNL     1       0.639   9.771  18.307  0.00  0.00    +0.000 A 
ATOM      2  C   UNL     1      -0.651   9.612  17.818  0.00  0.00    +0.000 A 
ATOM      3  C   UNL     1      -1.675  10.468  18.202  0.00  0.00    +0.000 A 
ATOM      4  C   UNL     1      -1.410  11.511  19.070  0.00  0.00    +0.000 A 
ATOM      5  F   UNL     1      -2.434  12.319  19.369  0.00  0.00    +0.000 F 
ATOM      6  C   UNL     1      -0.129  11.728  19.603  0.00  0.00    +0.000 A 
ATOM      7  C   UNL     1       0.895  10.822  19.208  0.00  0.00    +0.000 A 
ENDROOT
BRANCH   6   8
ATOM      8  C   UNL     1       0.194  12.915  20.535  0.00  0.00    +0.000 C 
ATOM      9  C   UNL     1      -0.250  14.240  19.857  0.00  0.00    +0.000 C 
ATOM     10  O   UNL     1       0.745  14.799  18.998  0.00  0.00    +0.000 OA
ATOM     11  C   UNL     1       1.975  15.072  19.682  0.00  0.00    +0.000 C 
ATOM     12  C   UNL     1       2.994  15.422  18.582  0.00  0.00    +0.000 C 
ATOM     13  C   UNL     1       2.638  16.748  17.922  0.00  0.00    +0.000 C 
ATOM     14  O   UNL     1       2.585  17.785  18.902  0.00  0.00    +0.000 OA
ATOM     15  C   UNL     1       1.565  17.551  19.872  0.00  0.00    +0.000 C 
ATOM     16  C   UNL     1       1.847  16.270  20.640  0.00  0.00    +0.000 C 
ATOM     17  C   UNL     1       2.434  13.843  20.506  0.00  0.00    +0.000 C 
ATOM     18  N   UNL     1       3.726  13.732  20.934  0.00  0.00    +0.000 N 
ATOM     19  N   UNL     1       1.648  12.886  20.866  0.00  0.00    +0.000 NA
ATOM     20  H   UNL     1       4.475  14.254  20.502  0.00  0.00    +0.000 HD
ATOM     21  H   UNL     1       3.975  12.810  21.275  0.00  0.00    +0.000 HD
BRANCH   8  22
ATOM     22  C   UNL     1      -0.568  12.879  21.898  0.00  0.00    +0.000 C 
ATOM     23  F   UNL     1      -0.412  11.691  22.534  0.00  0.00    +0.000 F 
ATOM     24  F   UNL     1      -0.055  13.827  22.740  0.00  0.00    +0.000 F 
ENDBRANCH   8  22
ENDBRANCH   6   8
BRANCH   1  27
ATOM     25  C   UNL     1       2.214   7.860  18.689  0.00  0.00    +0.000 C 
ATOM     26  O   UNL     1       1.838   7.560  19.811  0.00  0.00    +0.000 OA
ATOM     27  N   UNL     1       1.670   8.891  17.891  0.00  0.00    +0.000 N 
ATOM     28  H   UNL     1       1.950   8.921  16.915  0.00  0.00    +0.000 HD
BRANCH  25  35
ATOM     29  C   UNL     1       2.038   4.751  18.115  0.00  0.00    +0.000 C 
ATOM     30  C   UNL     1       3.201   5.635  17.767  0.00  0.00    +0.000 A 
ATOM     31  C   UNL     1       4.292   5.018  17.112  0.00  0.00    +0.000 A 
ATOM     32  C   UNL     1       5.409   5.758  16.741  0.00  0.00    +0.000 A 
ATOM     33  C   UNL     1       5.416   7.106  17.057  0.00  0.00    +0.000 A 
ATOM     34  N   UNL     1       4.401   7.751  17.687  0.00  0.00    +0.000 NA
ATOM     35  C   UNL     1       3.302   7.019  18.034  0.00  0.00    +0.000 A 
BRANCH  32  36
ATOM     36  C   UNL     1       6.519   5.148  16.058  0.00  0.00    +0.000 C 
ATOM     37  N   UNL     1       7.404   4.666  15.506  0.00  0.00    +0.000 NA
ENDBRANCH  32  36
ENDBRANCH  25  35
ENDBRANCH   1  27
TORSDOF 5
ENDMDL
MODEL 2
REMARK VINA RESULT:      -7.8      1.820      2.818
REMARK  Name = 
REMARK  6 active torsions:
REMARK  status: ('A' for Active; 'I' for Inactive)
REMARK    1  A    between atoms: C_1  and  C_2
REMARK    2  A    between atoms: C_4  and  C_5
REMARK    3  A    between atoms: C_9  and  C_10
REMARK    4  A    between atoms: N_12  and  C_13
REMARK    5  A    between atoms: C_18  and  C_19
REMARK    6  A    between atoms: C_19  and  C_20
REMARK                            x       y       z     vdW  Elec       q    Type
REMARK                         _______ _______ _______ _____ _____    ______ ____
ROOT
ATOM      1  C   UNL     1       2.017   7.898  19.143  0.00  0.00    +0.000 A 
ATOM      2  C   UNL     1       1.744   7.347  20.389  0.00  0.00    +0.000 A 
ATOM      3  C   UNL     1       1.029   8.055  21.346  0.00  0.00    +0.000 A 
ATOM      4  C   UNL     1       0.558   9.322  21.055  0.00  0.00    +0.000 A 
ATOM      5  F   UNL     1      -0.155   9.932  22.009  0.00  0.00    +0.000 F 
ATOM      6  C   UNL     1       0.799   9.939  19.816  0.00  0.00    +0.000 A 
ATOM      7  C   UNL     1       1.553   9.197  18.863  0.00  0.00    +0.000 A 
ENDROOT
BRANCH   6   8
ATOM      8  C   UNL     1       0.240  11.332  19.459  0.00  0.00    +0.000 C 
ATOM      9  C   UNL     1       1.222  12.050  18.492  0.00  0.00    +0.000 C 
ATOM     10  O   UNL     1       2.257  12.769  19.164  0.00  0.00    +0.000 OA
ATOM     11  C   UNL     1       1.745  13.768  20.056  0.00  0.00    +0.000 C 
ATOM     12  C   UNL     1       2.957  14.261  20.869  0.00  0.00    +0.000 C 
ATOM     13  C   UNL     1       3.926  15.026  19.977  0.00  0.00    +0.000 C 
ATOM     14  O   UNL     1       3.259  16.127  19.359  0.00  0.00    +0.000 OA
ATOM     15  C   UNL     1       2.203  15.696  18.501  0.00  0.00    +0.000 C 
ATOM     16  C   UNL     1       1.138  14.961  19.298  0.00  0.00    +0.000 C 
ATOM     17  C   UNL     1       0.650  13.176  20.979  0.00  0.00    +0.000 C 
ATOM     18  N   UNL     1       0.284  13.816  22.129  0.00  0.00    +0.000 N 
ATOM     19  N   UNL     1       0.000  12.092  20.719  0.00  0.00    +0.000 NA
ATOM     20  H   UNL     1       0.884  14.498  22.570  0.00  0.00    +0.000 HD
ATOM     21  H   UNL     1      -0.276  13.253  22.760  0.00  0.00    +0.000 HD
BRANCH   8  22
ATOM     22  C   UNL     1      -1.125  11.295  18.700  0.00  0.00    +0.000 C 
ATOM     23  F   UNL     1      -1.581  10.028  18.542  0.00  0.00    +0.000 F 
ATOM     24  F   UNL     1      -2.078  11.951  19.430  0.00  0.00    +0.000 F 
ENDBRANCH   8  22
ENDBRANCH   6   8
BRANCH   1  27
ATOM     25  C   UNL     1       3.744   6.207  18.484  0.00  0.00    +0.000 C 
ATOM     26  O   UNL     1       4.085   5.875  19.608  0.00  0.00    +0.000 OA
ATOM     27  N   UNL     1       2.739   7.152  18.178  0.00  0.00    +0.000 N 
ATOM     28  H   UNL     1       2.429   7.206  17.213  0.00  0.00    +0.000 HD
BRANCH  25  35
ATOM     29  C   UNL     1       3.725   3.083  17.970  0.00  0.00    +0.000 C 
ATOM     30  C   UNL     1       4.344   4.110  17.064  0.00  0.00    +0.000 A 
ATOM     31  C   UNL     1       4.947   3.628  15.880  0.00  0.00    +0.000 A 
ATOM     32  C   UNL     1       5.537   4.504  14.976  0.00  0.00    +0.000 A 
ATOM     33  C   UNL     1       5.527   5.851  15.294  0.00  0.00    +0.000 A 
ATOM     34  N   UNL     1       4.967   6.370  16.416  0.00  0.00    +0.000 NA
ATOM     35  C   UNL     1       4.377   5.504  17.290  0.00  0.00    +0.000 A 
BRANCH  32  36
ATOM     36  C   UNL     1       6.139   4.031  13.758  0.00  0.00    +0.000 C 
ATOM     37  N   UNL     1       6.613   3.656  12.781  0.00  0.00    +0.000 NA
ENDBRANCH  32  36
ENDBRANCH  25  35
ENDBRANCH   1  27
TORSDOF 5
ENDMDL
MODEL 3
REMARK VINA RESULT:      -7.6      1.617      2.313
REMARK  Name = 
REMARK  6 active torsions:
REMARK  status: ('A' for Active; 'I' for Inactive)
REMARK    1  A    between atoms: C_1  and  C_2
REMARK    2  A    between atoms: C_4  and  C_5
REMARK    3  A    between atoms: C_9  and  C_10
REMARK    4  A    between atoms: N_12  and  C_13
REMARK    5  A    between atoms: C_18  and  C_19
REMARK    6  A    between atoms: C_19  and  C_20
REMARK                            x       y       z     vdW  Elec       q    Type
REMARK                         _______ _______ _______ _____ _____    ______ ____
ROOT
ATOM      1  C   UNL     1       1.401   8.623  19.996  0.00  0.00    +0.000 A 
ATOM      2  C   UNL     1       0.977   8.140  21.227  0.00  0.00    +0.000 A 
ATOM      3  C   UNL     1       0.229   8.930  22.090  0.00  0.00    +0.000 A 
ATOM      4  C   UNL     1      -0.121  10.214  21.716  0.00  0.00    +0.000 A 
ATOM      5  F   UNL     1      -0.874  10.908  22.579  0.00  0.00    +0.000 F 
ATOM      6  C   UNL     1       0.276  10.766  20.486  0.00  0.00    +0.000 A 
ATOM      7  C   UNL     1       1.059   9.939  19.632  0.00  0.00    +0.000 A 
ENDROOT
BRANCH   6   8
ATOM      8  C   UNL     1      -0.146  12.180  20.034  0.00  0.00    +0.000 C 
ATOM      9  C   UNL     1       0.740  12.627  18.840  0.00  0.00    +0.000 C 
ATOM     10  O   UNL     1       1.961  13.250  19.240  0.00  0.00    +0.000 OA
ATOM     11  C   UNL     1       1.748  14.408  20.057  0.00  0.00    +0.000 C 
ATOM     12  C   UNL     1       3.136  14.797  20.599  0.00  0.00    +0.000 C 
ATOM     13  C   UNL     1       4.030  15.302  19.473  0.00  0.00    +0.000 C 
ATOM     14  O   UNL     1       3.418  16.415  18.821  0.00  0.00    +0.000 OA
ATOM     15  C   UNL     1       2.182  16.058  18.203  0.00  0.00    +0.000 C 
ATOM     16  C   UNL     1       1.182  15.588  19.247  0.00  0.00    +0.000 C 
ATOM     17  C   UNL     1       0.760  14.098  21.210  0.00  0.00    +0.000 C 
ATOM     18  N   UNL     1       0.686  14.910  22.305  0.00  0.00    +0.000 N 
ATOM     19  N   UNL     1      -0.063  13.104  21.202  0.00  0.00    +0.000 NA
ATOM     20  H   UNL     1       1.438  15.538  22.551  0.00  0.00    +0.000 HD
ATOM     21  H   UNL     1       0.173  14.514  23.085  0.00  0.00    +0.000 HD
BRANCH   8  22
ATOM     22  C   UNL     1      -1.614  12.268  19.508  0.00  0.00    +0.000 C 
ATOM     23  F   UNL     1      -1.975  11.152  18.827  0.00  0.00    +0.000 F 
ATOM     24  F   UNL     1      -2.480  12.363  20.563  0.00  0.00    +0.000 F 
ENDBRANCH   8  22
ENDBRANCH   6   8
BRANCH   1  27
ATOM     25  C   UNL     1       2.518   6.458  19.410  0.00  0.00    +0.000 C 
ATOM     26  O   UNL     1       2.193   5.832  20.406  0.00  0.00    +0.000 OA
ATOM     27  N   UNL     1       2.154   7.793  19.127  0.00  0.00    +0.000 N 
ATOM     28  H   UNL     1       2.337   8.137  18.189  0.00  0.00    +0.000 HD
BRANCH  25  35
ATOM     29  C   UNL     1       1.680   3.748  18.003  0.00  0.00    +0.000 C 
ATOM     30  C   UNL     1       2.915   4.544  17.692  0.00  0.00    +0.000 A 
ATOM     31  C   UNL     1       3.753   4.039  16.672  0.00  0.00    +0.000 A 
ATOM     32  C   UNL     1       4.913   4.712  16.307  0.00  0.00    +0.000 A 
ATOM     33  C   UNL     1       5.220   5.873  16.993  0.00  0.00    +0.000 A 
ATOM     34  N   UNL     1       4.456   6.403  17.983  0.00  0.00    +0.000 NA
ATOM     35  C   UNL     1       3.312   5.744  18.324  0.00  0.00    +0.000 A 
BRANCH  32  36
ATOM     36  C   UNL     1       5.766   4.219  15.258  0.00  0.00    +0.000 C 
ATOM     37  N   UNL     1       6.455   3.827  14.426  0.00  0.00    +0.000 NA
ENDBRANCH  32  36
ENDBRANCH  25  35
ENDBRANCH   1  27
TORSDOF 5
ENDMDL
MODEL 4
REMARK VINA RESULT:      -7.6      1.683      2.282
REMARK  Name = 
REMARK  6 active torsions:
REMARK  status: ('A' for Active; 'I' for Inactive)
REMARK    1  A    between atoms: C_1  and  C_2
REMARK    2  A    between atoms: C_4  and  C_5
REMARK    3  A    between atoms: C_9  and  C_10
REMARK    4  A    between atoms: N_12  and  C_13
REMARK    5  A    between atoms: C_18  and  C_19
REMARK    6  A    between atoms: C_19  and  C_20
REMARK                            x       y       z     vdW  Elec       q    Type
REMARK                         _______ _______ _______ _____ _____    ______ ____
ROOT
ATOM      1  C   UNL     1       1.138   8.817  20.659  0.00  0.00    +0.000 A 
ATOM      2  C   UNL     1       0.541   8.398  21.842  0.00  0.00    +0.000 A 
ATOM      3  C   UNL     1      -0.277   9.249  22.573  0.00  0.00    +0.000 A 
ATOM      4  C   UNL     1      -0.524  10.529  22.113  0.00  0.00    +0.000 A 
ATOM      5  F   UNL     1      -1.351  11.283  22.848  0.00  0.00    +0.000 F 
ATOM      6  C   UNL     1       0.049  11.017  20.927  0.00  0.00    +0.000 A 
ATOM      7  C   UNL     1       0.900  10.129  20.210  0.00  0.00    +0.000 A 
ENDROOT
BRANCH   6   8
ATOM      8  C   UNL     1      -0.254  12.426  20.376  0.00  0.00    +0.000 C 
ATOM      9  C   UNL     1       0.678  12.720  19.167  0.00  0.00    +0.000 C 
ATOM     10  O   UNL     1       1.941  13.269  19.544  0.00  0.00    +0.000 OA
ATOM     11  C   UNL     1       1.813  14.493  20.279  0.00  0.00    +0.000 C 
ATOM     12  C   UNL     1       3.223  14.806  20.815  0.00  0.00    +0.000 C 
ATOM     13  C   UNL     1       4.165  15.161  19.672  0.00  0.00    +0.000 C 
ATOM     14  O   UNL     1       3.652  16.273  18.939  0.00  0.00    +0.000 OA
ATOM     15  C   UNL     1       2.397  15.974  18.327  0.00  0.00    +0.000 C 
ATOM     16  C   UNL     1       1.353  15.657  19.384  0.00  0.00    +0.000 C 
ATOM     17  C   UNL     1       0.792  14.341  21.435  0.00  0.00    +0.000 C 
ATOM     18  N   UNL     1       0.773  15.228  22.473  0.00  0.00    +0.000 N 
ATOM     19  N   UNL     1      -0.108  13.417  21.480  0.00  0.00    +0.000 NA
ATOM     20  H   UNL     1       1.571  15.809  22.688  0.00  0.00    +0.000 HD
ATOM     21  H   UNL     1       0.222  14.927  23.269  0.00  0.00    +0.000 HD
BRANCH   8  22
ATOM     22  C   UNL     1      -1.704  12.595  19.822  0.00  0.00    +0.000 C 
ATOM     23  F   UNL     1      -2.214  11.421  19.373  0.00  0.00    +0.000 F 
ATOM     24  F   UNL     1      -2.537  13.009  20.825  0.00  0.00    +0.000 F 
ENDBRANCH   8  22
ENDBRANCH   6   8
BRANCH   1  27
ATOM     25  C   UNL     1       2.045   7.891  18.515  0.00  0.00    +0.000 C 
ATOM     26  O   UNL     1       1.465   8.647  17.752  0.00  0.00    +0.000 OA
ATOM     27  N   UNL     1       1.961   7.926  19.924  0.00  0.00    +0.000 N 
ATOM     28  H   UNL     1       2.627   7.363  20.444  0.00  0.00    +0.000 HD
BRANCH  25  35
ATOM     29  C   UNL     1       1.734   4.748  18.730  0.00  0.00    +0.000 C 
ATOM     30  C   UNL     1       2.847   5.465  18.021  0.00  0.00    +0.000 A 
ATOM     31  C   UNL     1       3.818   4.657  17.387  0.00  0.00    +0.000 A 
ATOM     32  C   UNL     1       4.881   5.231  16.698  0.00  0.00    +0.000 A 
ATOM     33  C   UNL     1       4.957   6.612  16.679  0.00  0.00    +0.000 A 
ATOM     34  N   UNL     1       4.057   7.438  17.272  0.00  0.00    +0.000 NA
ATOM     35  C   UNL     1       3.010   6.866  17.934  0.00  0.00    +0.000 A 
BRANCH  32  36
ATOM     36  C   UNL     1       5.867   4.422  16.033  0.00  0.00    +0.000 C 
ATOM     37  N   UNL     1       6.661   3.780  15.505  0.00  0.00    +0.000 NA
ENDBRANCH  32  36
ENDBRANCH  25  35
ENDBRANCH   1  27
TORSDOF 5
ENDMDL
MODEL 5
REMARK VINA RESULT:      -7.5      2.608      3.676
REMARK  Name = 
REMARK  6 active torsions:
REMARK  status: ('A' for Active; 'I' for Inactive)
REMARK    1  A    between atoms: C_1  and  C_2
REMARK    2  A    between atoms: C_4  and  C_5
REMARK    3  A    between atoms: C_9  and  C_10
REMARK    4  A    between atoms: N_12  and  C_13
REMARK    5  A    between atoms: C_18  and  C_19
REMARK    6  A    between atoms: C_19  and  C_20
REMARK                            x       y       z     vdW  Elec       q    Type
REMARK                         _______ _______ _______ _____ _____    ______ ____
ROOT
ATOM      1  C   UNL     1       1.456   8.575  20.093  0.00  0.00    +0.000 A 
ATOM      2  C   UNL     1       1.175   8.126  21.378  0.00  0.00    +0.000 A 
ATOM      3  C   UNL     1       0.440   8.902  22.265  0.00  0.00    +0.000 A 
ATOM      4  C   UNL     1      -0.040  10.136  21.864  0.00  0.00    +0.000 A 
ATOM      5  F   UNL     1      -0.770  10.815  22.757  0.00  0.00    +0.000 F 
ATOM      6  C   UNL     1       0.210  10.651  20.581  0.00  0.00    +0.000 A 
ATOM      7  C   UNL     1       0.983   9.841  19.701  0.00  0.00    +0.000 A 
ENDROOT
BRANCH   6   8
ATOM      8  C   UNL     1      -0.358  12.003  20.103  0.00  0.00    +0.000 C 
ATOM      9  C   UNL     1       0.414  13.161  20.793  0.00  0.00    +0.000 C 
ATOM     10  O   UNL     1      -0.122  13.522  22.067  0.00  0.00    +0.000 OA
ATOM     11  C   UNL     1      -1.496  13.923  21.994  0.00  0.00    +0.000 C 
ATOM     12  C   UNL     1      -1.978  14.028  23.453  0.00  0.00    +0.000 C 
ATOM     13  C   UNL     1      -1.293  15.190  24.161  0.00  0.00    +0.000 C 
ATOM     14  O   UNL     1      -1.546  16.409  23.463  0.00  0.00    +0.000 OA
ATOM     15  C   UNL     1      -1.005  16.389  22.142  0.00  0.00    +0.000 C 
ATOM     16  C   UNL     1      -1.661  15.295  21.317  0.00  0.00    +0.000 C 
ATOM     17  C   UNL     1      -2.333  12.889  21.198  0.00  0.00    +0.000 C 
ATOM     18  N   UNL     1      -3.694  12.861  21.304  0.00  0.00    +0.000 N 
ATOM     19  N   UNL     1      -1.824  12.034  20.377  0.00  0.00    +0.000 NA
ATOM     20  H   UNL     1      -4.173  13.276  22.090  0.00  0.00    +0.000 HD
ATOM     21  H   UNL     1      -4.125  12.028  20.918  0.00  0.00    +0.000 HD
BRANCH   8  22
ATOM     22  C   UNL     1      -0.192  12.259  18.571  0.00  0.00    +0.000 C 
ATOM     23  F   UNL     1      -1.370  12.578  17.981  0.00  0.00    +0.000 F 
ATOM     24  F   UNL     1       0.634  13.330  18.368  0.00  0.00    +0.000 F 
ENDBRANCH   8  22
ENDBRANCH   6   8
BRANCH   1  27
ATOM     25  C   UNL     1       2.512   6.401  19.431  0.00  0.00    +0.000 C 
ATOM     26  O   UNL     1       2.149   5.743  20.393  0.00  0.00    +0.000 OA
ATOM     27  N   UNL     1       2.198   7.759  19.202  0.00  0.00    +0.000 N 
ATOM     28  H   UNL     1       2.410   8.137  18.283  0.00  0.00    +0.000 HD
BRANCH  25  35
ATOM     29  C   UNL     1       1.760   3.633  18.092  0.00  0.00    +0.000 C 
ATOM     30  C   UNL     1       2.944   4.482  17.727  0.00  0.00    +0.000 A 
ATOM     31  C   UNL     1       3.770   4.002  16.685  0.00  0.00    +0.000 A 
ATOM     32  C   UNL     1       4.883   4.725  16.271  0.00  0.00    +0.000 A 
ATOM     33  C   UNL     1       5.157   5.910  16.931  0.00  0.00    +0.000 A 
ATOM     34  N   UNL     1       4.402   6.418  17.939  0.00  0.00    +0.000 NA
ATOM     35  C   UNL     1       3.303   5.709  18.329  0.00  0.00    +0.000 A 
BRANCH  32  36
ATOM     36  C   UNL     1       5.724   4.258  15.201  0.00  0.00    +0.000 C 
ATOM     37  N   UNL     1       6.390   3.890  14.339  0.00  0.00    +0.000 NA
ENDBRANCH  32  36
ENDBRANCH  25  35
ENDBRANCH   1  27
TORSDOF 5
ENDMDL
MODEL 6
REMARK VINA RESULT:      -7.5      2.307      3.428
REMARK  Name = 
REMARK  6 active torsions:
REMARK  status: ('A' for Active; 'I' for Inactive)
REMARK    1  A    between atoms: C_1  and  C_2
REMARK    2  A    between atoms: C_4  and  C_5
REMARK    3  A    between atoms: C_9  and  C_10
REMARK    4  A    between atoms: N_12  and  C_13
REMARK    5  A    between atoms: C_18  and  C_19
REMARK    6  A    between atoms: C_19  and  C_20
REMARK                            x       y       z     vdW  Elec       q    Type
REMARK                         _______ _______ _______ _____ _____    ______ ____
ROOT
ATOM      1  C   UNL     1       0.633   9.679  18.189  0.00  0.00    +0.000 A 
ATOM      2  C   UNL     1      -0.653   9.548  17.682  0.00  0.00    +0.000 A 
ATOM      3  C   UNL     1      -1.665  10.424  18.054  0.00  0.00    +0.000 A 
ATOM      4  C   UNL     1      -1.391  11.459  18.928  0.00  0.00    +0.000 A 
ATOM      5  F   UNL     1      -2.402  12.288  19.216  0.00  0.00    +0.000 F 
ATOM      6  C   UNL     1      -0.113  11.648  19.480  0.00  0.00    +0.000 A 
ATOM      7  C   UNL     1       0.898  10.722  19.096  0.00  0.00    +0.000 A 
ENDROOT
BRANCH   6   8
ATOM      8  C   UNL     1       0.221  12.826  20.420  0.00  0.00    +0.000 C 
ATOM      9  C   UNL     1      -0.240  12.483  21.863  0.00  0.00    +0.000 C 
ATOM     10  O   UNL     1      -1.604  12.821  22.119  0.00  0.00    +0.000 OA
ATOM     11  C   UNL     1      -1.874  14.214  21.915  0.00  0.00    +0.000 C 
ATOM     12  C   UNL     1      -3.407  14.355  21.984  0.00  0.00    +0.000 C 
ATOM     13  C   UNL     1      -3.908  14.086  23.397  0.00  0.00    +0.000 C 
ATOM     14  O   UNL     1      -3.283  14.980  24.318  0.00  0.00    +0.000 OA
ATOM     15  C   UNL     1      -1.869  14.792  24.367  0.00  0.00    +0.000 C 
ATOM     16  C   UNL     1      -1.246  15.090  23.013  0.00  0.00    +0.000 C 
ATOM     17  C   UNL     1      -1.326  14.690  20.546  0.00  0.00    +0.000 C 
ATOM     18  N   UNL     1      -1.771  15.849  19.979  0.00  0.00    +0.000 N 
ATOM     19  N   UNL     1      -0.412  14.065  19.883  0.00  0.00    +0.000 NA
ATOM     20  H   UNL     1      -2.648  16.270  20.251  0.00  0.00    +0.000 HD
ATOM     21  H   UNL     1      -1.515  15.963  19.005  0.00  0.00    +0.000 HD
BRANCH   8  22
ATOM     22  C   UNL     1       1.748  13.130  20.542  0.00  0.00    +0.000 C 
ATOM     23  F   UNL     1       2.251  13.660  19.399  0.00  0.00    +0.000 F 
ATOM     24  F   UNL     1       1.957  14.068  21.516  0.00  0.00    +0.000 F 
ENDBRANCH   8  22
ENDBRANCH   6   8
BRANCH   1  27
ATOM     25  C   UNL     1       2.230   7.797  18.620  0.00  0.00    +0.000 C 
ATOM     26  O   UNL     1       1.898   7.561  19.771  0.00  0.00    +0.000 OA
ATOM     27  N   UNL     1       1.652   8.780  17.786  0.00  0.00    +0.000 N 
ATOM     28  H   UNL     1       1.894   8.754  16.800  0.00  0.00    +0.000 HD
BRANCH  25  35
ATOM     29  C   UNL     1       2.013   4.672  18.159  0.00  0.00    +0.000 C 
ATOM     30  C   UNL     1       3.177   5.532  17.756  0.00  0.00    +0.000 A 
ATOM     31  C   UNL     1       4.248   4.881  17.102  0.00  0.00    +0.000 A 
ATOM     32  C   UNL     1       5.364   5.596  16.683  0.00  0.00    +0.000 A 
ATOM     33  C   UNL     1       5.390   6.953  16.952  0.00  0.00    +0.000 A 
ATOM     34  N   UNL     1       4.395   7.630  17.578  0.00  0.00    +0.000 NA
ATOM     35  C   UNL     1       3.297   6.923  17.973  0.00  0.00    +0.000 A 
BRANCH  32  36
ATOM     36  C   UNL     1       6.454   4.951  16.000  0.00  0.00    +0.000 C 
ATOM     37  N   UNL     1       7.324   4.429  15.461  0.00  0.00    +0.000 NA
ENDBRANCH  32  36
ENDBRANCH  25  35
ENDBRANCH   1  27
TORSDOF 5
ENDMDL
MODEL 7
REMARK VINA RESULT:      -7.5      2.637      3.691
REMARK  Name = 
REMARK  6 active torsions:
REMARK  status: ('A' for Active; 'I' for Inactive)
REMARK    1  A    between atoms: C_1  and  C_2
REMARK    2  A    between atoms: C_4  and  C_5
REMARK    3  A    between atoms: C_9  and  C_10
REMARK    4  A    between atoms: N_12  and  C_13
REMARK    5  A    between atoms: C_18  and  C_19
REMARK    6  A    between atoms: C_19  and  C_20
REMARK                            x       y       z     vdW  Elec       q    Type
REMARK                         _______ _______ _______ _____ _____    ______ ____
ROOT
ATOM      1  C   UNL     1       1.188   8.821  20.481  0.00  0.00    +0.000 A 
ATOM      2  C   UNL     1       0.528   8.360  21.613  0.00  0.00    +0.000 A 
ATOM      3  C   UNL     1      -0.402   9.152  22.275  0.00  0.00    +0.000 A 
ATOM      4  C   UNL     1      -0.696  10.414  21.793  0.00  0.00    +0.000 A 
ATOM      5  F   UNL     1      -1.628  11.109  22.457  0.00  0.00    +0.000 F 
ATOM      6  C   UNL     1      -0.064  10.943  20.655  0.00  0.00    +0.000 A 
ATOM      7  C   UNL     1       0.899  10.116  20.011  0.00  0.00    +0.000 A 
ENDROOT
BRANCH   6   8
ATOM      8  C   UNL     1      -0.416  12.330  20.078  0.00  0.00    +0.000 C 
ATOM      9  C   UNL     1       0.087  13.435  21.046  0.00  0.00    +0.000 C 
ATOM     10  O   UNL     1      -0.850  13.758  22.075  0.00  0.00    +0.000 OA
ATOM     11  C   UNL     1      -2.110  14.202  21.554  0.00  0.00    +0.000 C 
ATOM     12  C   UNL     1      -3.062  14.261  22.764  0.00  0.00    +0.000 C 
ATOM     13  C   UNL     1      -2.648  15.372  23.719  0.00  0.00    +0.000 C 
ATOM     14  O   UNL     1      -2.630  16.626  23.037  0.00  0.00    +0.000 OA
ATOM     15  C   UNL     1      -1.668  16.645  21.982  0.00  0.00    +0.000 C 
ATOM     16  C   UNL     1      -2.013  15.604  20.930  0.00  0.00    +0.000 C 
ATOM     17  C   UNL     1      -2.635  13.226  20.471  0.00  0.00    +0.000 C 
ATOM     18  N   UNL     1      -3.949  13.233  20.102  0.00  0.00    +0.000 N 
ATOM     19  N   UNL     1      -1.886  12.391  19.833  0.00  0.00    +0.000 NA
ATOM     20  H   UNL     1      -4.665  13.629  20.695  0.00  0.00    +0.000 HD
ATOM     21  H   UNL     1      -4.233  12.430  19.551  0.00  0.00    +0.000 HD
BRANCH   8  22
ATOM     22  C   UNL     1       0.271  12.643  18.710  0.00  0.00    +0.000 C 
ATOM     23  F   UNL     1      -0.586  13.228  17.836  0.00  0.00    +0.000 F 
ATOM     24  F   UNL     1       1.287  13.539  18.897  0.00  0.00    +0.000 F 
ENDBRANCH   8  22
ENDBRANCH   6   8
BRANCH   1  27
ATOM     25  C   UNL     1       2.224   7.856  18.414  0.00  0.00    +0.000 C 
ATOM     26  O   UNL     1       1.557   8.469  17.596  0.00  0.00    +0.000 OA
ATOM     27  N   UNL     1       2.125   7.990  19.817  0.00  0.00    +0.000 N 
ATOM     28  H   UNL     1       2.854   7.560  20.378  0.00  0.00    +0.000 HD
BRANCH  25  35
ATOM     29  C   UNL     1       1.955   4.718  18.092  0.00  0.00    +0.000 C 
ATOM     30  C   UNL     1       3.176   5.525  17.757  0.00  0.00    +0.000 A 
ATOM     31  C   UNL     1       4.282   4.813  17.238  0.00  0.00    +0.000 A 
ATOM     32  C   UNL     1       5.453   5.476  16.889  0.00  0.00    +0.000 A 
ATOM     33  C   UNL     1       5.496   6.845  17.090  0.00  0.00    +0.000 A 
ATOM     34  N   UNL     1       4.468   7.579  17.587  0.00  0.00    +0.000 NA
ATOM     35  C   UNL     1       3.318   6.922  17.913  0.00  0.00    +0.000 A 
BRANCH  32  36
ATOM     36  C   UNL     1       6.581   4.768  16.343  0.00  0.00    +0.000 C 
ATOM     37  N   UNL     1       7.484   4.210  15.902  0.00  0.00    +0.000 NA
ENDBRANCH  32  36
ENDBRANCH  25  35
ENDBRANCH   1  27
TORSDOF 5
ENDMDL
MODEL 8
REMARK VINA RESULT:      -7.4      2.803      3.914
REMARK  Name = 
REMARK  6 active torsions:
REMARK  status: ('A' for Active; 'I' for Inactive)
REMARK    1  A    between atoms: C_1  and  C_2
REMARK    2  A    between atoms: C_4  and  C_5
REMARK    3  A    between atoms: C_9  and  C_10
REMARK    4  A    between atoms: N_12  and  C_13
REMARK    5  A    between atoms: C_18  and  C_19
REMARK    6  A    between atoms: C_19  and  C_20
REMARK                            x       y       z     vdW  Elec       q    Type
REMARK                         _______ _______ _______ _____ _____    ______ ____
ROOT
ATOM      1  C   UNL     1       2.086   7.857  19.126  0.00  0.00    +0.000 A 
ATOM      2  C   UNL     1       1.686   7.264  20.316  0.00  0.00    +0.000 A 
ATOM      3  C   UNL     1       1.002   7.987  21.285  0.00  0.00    +0.000 A 
ATOM      4  C   UNL     1       0.691   9.315  21.060  0.00  0.00    +0.000 A 
ATOM      5  F   UNL     1      -0.001   9.942  22.019  0.00  0.00    +0.000 F 
ATOM      6  C   UNL     1       1.067   9.977  19.879  0.00  0.00    +0.000 A 
ATOM      7  C   UNL     1       1.785   9.216  18.914  0.00  0.00    +0.000 A 
ENDROOT
BRANCH   6   8
ATOM      8  C   UNL     1       0.687  11.445  19.592  0.00  0.00    +0.000 C 
ATOM      9  C   UNL     1       1.189  12.346  20.753  0.00  0.00    +0.000 C 
ATOM     10  O   UNL     1       0.265  12.443  21.838  0.00  0.00    +0.000 OA
ATOM     11  C   UNL     1      -1.009  12.960  21.432  0.00  0.00    +0.000 C 
ATOM     12  C   UNL     1      -1.943  12.762  22.641  0.00  0.00    +0.000 C 
ATOM     13  C   UNL     1      -1.529  13.670  23.792  0.00  0.00    +0.000 C 
ATOM     14  O   UNL     1      -1.539  15.034  23.371  0.00  0.00    +0.000 OA
ATOM     15  C   UNL     1      -0.595  15.277  22.329  0.00  0.00    +0.000 C 
ATOM     16  C   UNL     1      -0.943  14.459  21.095  0.00  0.00    +0.000 C 
ATOM     17  C   UNL     1      -1.538  12.209  20.183  0.00  0.00    +0.000 C 
ATOM     18  N   UNL     1      -2.858  12.266  19.840  0.00  0.00    +0.000 N 
ATOM     19  N   UNL     1      -0.787  11.529  19.384  0.00  0.00    +0.000 NA
ATOM     20  H   UNL     1      -3.569  12.525  20.509  0.00  0.00    +0.000 HD
ATOM     21  H   UNL     1      -3.139  11.583  19.145  0.00  0.00    +0.000 HD
BRANCH   8  22
ATOM     22  C   UNL     1       1.347  12.034  18.305  0.00  0.00    +0.000 C 
ATOM     23  F   UNL     1       0.770  13.203  17.930  0.00  0.00    +0.000 F 
ATOM     24  F   UNL     1       2.661  12.324  18.549  0.00  0.00    +0.000 F 
ENDBRANCH   8  22
ENDBRANCH   6   8
BRANCH   1  27
ATOM     25  C   UNL     1       3.846   6.219  18.422  0.00  0.00    +0.000 C 
ATOM     26  O   UNL     1       4.286   5.965  19.532  0.00  0.00    +0.000 OA
ATOM     27  N   UNL     1       2.773   7.096  18.147  0.00  0.00    +0.000 N 
ATOM     28  H   UNL     1       2.390   7.082  17.206  0.00  0.00    +0.000 HD
BRANCH  25  35
ATOM     29  C   UNL     1       3.689   3.095  17.929  0.00  0.00    +0.000 C 
ATOM     30  C   UNL     1       4.330   4.090  17.004  0.00  0.00    +0.000 A 
ATOM     31  C   UNL     1       4.888   3.578  15.811  0.00  0.00    +0.000 A 
ATOM     32  C   UNL     1       5.494   4.424  14.890  0.00  0.00    +0.000 A 
ATOM     33  C   UNL     1       5.546   5.772  15.198  0.00  0.00    +0.000 A 
ATOM     34  N   UNL     1       5.031   6.320  16.328  0.00  0.00    +0.000 NA
ATOM     35  C   UNL     1       4.425   5.484  17.220  0.00  0.00    +0.000 A 
BRANCH  32  36
ATOM     36  C   UNL     1       6.051   3.919  13.663  0.00  0.00    +0.000 C 
ATOM     37  N   UNL     1       6.490   3.521  12.678  0.00  0.00    +0.000 NA
ENDBRANCH  32  36
ENDBRANCH  25  35
ENDBRANCH   1  27
TORSDOF 5
ENDMDL
MODEL 9
REMARK VINA RESULT:      -7.4      2.391      3.310
REMARK  Name = 
REMARK  6 active torsions:
REMARK  status: ('A' for Active; 'I' for Inactive)
REMARK    1  A    between atoms: C_1  and  C_2
REMARK    2  A    between atoms: C_4  and  C_5
REMARK    3  A    between atoms: C_9  and  C_10
REMARK    4  A    between atoms: N_12  and  C_13
REMARK    5  A    between atoms: C_18  and  C_19
REMARK    6  A    between atoms: C_19  and  C_20
REMARK                            x       y       z     vdW  Elec       q    Type
REMARK                         _______ _______ _______ _____ _____    ______ ____
ROOT
ATOM      1  C   UNL     1       0.774   9.204  21.436  0.00  0.00    +0.000 A 
ATOM      2  C   UNL     1       0.050   9.301  22.618  0.00  0.00    +0.000 A 
ATOM      3  C   UNL     1      -0.618  10.470  22.958  0.00  0.00    +0.000 A 
ATOM      4  C   UNL     1      -0.583  11.555  22.101  0.00  0.00    +0.000 A 
ATOM      5  F   UNL     1      -1.278  12.637  22.472  0.00  0.00    +0.000 F 
ATOM      6  C   UNL     1       0.131  11.526  20.891  0.00  0.00    +0.000 A 
ATOM      7  C   UNL     1       0.822  10.320  20.580  0.00  0.00    +0.000 A 
ENDROOT
BRANCH   6   8
ATOM      8  C   UNL     1       0.140  12.710  19.902  0.00  0.00    +0.000 C 
ATOM      9  C   UNL     1       1.375  12.593  18.966  0.00  0.00    +0.000 C 
ATOM     10  O   UNL     1       2.556  13.189  19.506  0.00  0.00    +0.000 OA
ATOM     11  C   UNL     1       2.386  14.582  19.799  0.00  0.00    +0.000 C 
ATOM     12  C   UNL     1       3.640  14.996  20.591  0.00  0.00    +0.000 C 
ATOM     13  C   UNL     1       4.875  14.956  19.701  0.00  0.00    +0.000 C 
ATOM     14  O   UNL     1       4.694  15.809  18.571  0.00  0.00    +0.000 OA
ATOM     15  C   UNL     1       3.610  15.380  17.747  0.00  0.00    +0.000 C 
ATOM     16  C   UNL     1       2.303  15.433  18.520  0.00  0.00    +0.000 C 
ATOM     17  C   UNL     1       1.094  14.821  20.622  0.00  0.00    +0.000 C 
ATOM     18  N   UNL     1       0.914  15.981  21.318  0.00  0.00    +0.000 N 
ATOM     19  N   UNL     1       0.113  13.984  20.676  0.00  0.00    +0.000 NA
ATOM     20  H   UNL     1       1.692  16.574  21.572  0.00  0.00    +0.000 HD
ATOM     21  H   UNL     1       0.149  15.955  21.983  0.00  0.00    +0.000 HD
BRANCH   8  22
ATOM     22  C   UNL     1      -1.094  12.751  18.945  0.00  0.00    +0.000 C 
ATOM     23  F   UNL     1      -0.797  13.343  17.762  0.00  0.00    +0.000 F 
ATOM     24  F   UNL     1      -1.486  11.476  18.641  0.00  0.00    +0.000 F 
ENDBRANCH   8  22
ENDBRANCH   6   8
BRANCH   1  27
ATOM     25  C   UNL     1       1.872   7.649  19.807  0.00  0.00    +0.000 C 
ATOM     26  O   UNL     1       1.780   8.357  18.818  0.00  0.00    +0.000 OA
ATOM     27  N   UNL     1       1.437   7.996  21.106  0.00  0.00    +0.000 N 
ATOM     28  H   UNL     1       1.732   7.396  21.871  0.00  0.00    +0.000 HD
BRANCH  25  35
ATOM     29  C   UNL     1       4.046   6.918  17.625  0.00  0.00    +0.000 C 
ATOM     30  C   UNL     1       3.566   6.003  18.714  0.00  0.00    +0.000 A 
ATOM     31  C   UNL     1       4.156   4.720  18.769  0.00  0.00    +0.000 A 
ATOM     32  C   UNL     1       3.783   3.807  19.749  0.00  0.00    +0.000 A 
ATOM     33  C   UNL     1       2.803   4.197  20.645  0.00  0.00    +0.000 A 
ATOM     34  N   UNL     1       2.199   5.413  20.639  0.00  0.00    +0.000 NA
ATOM     35  C   UNL     1       2.583   6.308  19.683  0.00  0.00    +0.000 A 
BRANCH  32  36
ATOM     36  C   UNL     1       4.387   2.503  19.827  0.00  0.00    +0.000 C 
ATOM     37  N   UNL     1       4.876   1.465  19.896  0.00  0.00    +0.000 NA
ENDBRANCH  32  36
ENDBRANCH  25  35
ENDBRANCH   1  27
TORSDOF 5
ENDMDL
