MODEL 1
REMARK VINA RESULT:      -7.8      0.000      0.000
REMARK  Name = 
REMARK  11 active torsions:
REMARK  status: ('A' for Active; 'I' for Inactive)
REMARK    1  A    between atoms: C_1  and  C_2
REMARK    2  A    between atoms: C_2  and  O_3
REMARK    3  A    between atoms: O_3  and  C_4
REMARK    4  A    between atoms: C_7  and  C_8
REMARK    5  A    between atoms: C_8  and  C_9
REMARK    6  A    between atoms: C_9  and  N_10
REMARK    7  A    between atoms: C_11  and  C_13
REMARK    8  A    between atoms: C_13  and  C_14
REMARK    9  A    between atoms: C_14  and  C_15
REMARK   10  A    between atoms: C_15  and  N_16
REMARK   11  A    between atoms: C_18  and  C_19
REMARK                            x       y       z     vdW  Elec       q    Type
REMARK                         _______ _______ _______ _____ _____    ______ ____
ROOT
ATOM      1  C   UNL     1       1.829   8.827  17.917  0.00  0.00    +0.000 C 
ENDROOT
BRANCH   1   2
ATOM      2  C   UNL     1       3.056   7.928  17.803  0.00  0.00    +0.000 C 
BRANCH   2   4
ATOM      3  N   UNL     1       3.634   6.075  19.314  0.00  0.00    +0.000 N 
ATOM      4  C   UNL     1       2.786   6.525  18.322  0.00  0.00    +0.000 C 
ATOM      5  O   UNL     1       1.862   5.845  17.882  0.00  0.00    +0.000 OA
ATOM      6  H   UNL     1       4.266   6.725  19.766  0.00  0.00    +0.000 HD
BRANCH   3   7
ATOM      7  C   UNL     1       3.441   4.753  19.893  0.00  0.00    +0.000 C 
BRANCH   7   8
ATOM      8  C   UNL     1       4.279   3.641  19.249  0.00  0.00    +0.000 C 
BRANCH   8  12
ATOM      9  C   UNL     1       6.753   4.772  15.881  0.00  0.00    +0.000 A 
ATOM     10  C   UNL     1       7.204   4.970  17.186  0.00  0.00    +0.000 A 
ATOM     11  C   UNL     1       6.409   4.612  18.277  0.00  0.00    +0.000 A 
ATOM     12  C   UNL     1       5.131   4.073  18.079  0.00  0.00    +0.000 A 
ATOM     13  C   UNL     1       4.679   3.886  16.765  0.00  0.00    +0.000 A 
ATOM     14  C   UNL     1       5.480   4.244  15.672  0.00  0.00    +0.000 A 
BRANCH   9  15
ATOM     15  O   UNL     1       7.633   5.139  14.903  0.00  0.00    +0.000 OA
BRANCH  15  17
ATOM     16  C   UNL     1       8.177   5.596  12.633  0.00  0.00    +0.000 C 
ATOM     17  C   UNL     1       7.271   4.809  13.564  0.00  0.00    +0.000 C 
ENDBRANCH  15  17
ENDBRANCH   9  15
ENDBRANCH   8  12
ENDBRANCH   7   8
ENDBRANCH   3   7
ENDBRANCH   2   4
ENDBRANCH   1   2
BRANCH   1  18
ATOM     18  C   UNL     1       1.328   9.018  19.357  0.00  0.00    +0.000 C 
BRANCH  18  19
ATOM     19  N   UNL     1       0.365  10.128  19.424  0.00  0.00    +0.000 N 
ATOM     20  N   UNL     1      -0.438  10.238  18.282  0.00  0.00    +0.000 NA
ATOM     21  C   UNL     1      -1.490  11.005  18.321  0.00  0.00    +0.000 A 
ATOM     22  C   UNL     1      -2.303  11.195  17.072  0.00  0.00    +0.000 C 
ATOM     23  C   UNL     1      -1.842  11.676  19.539  0.00  0.00    +0.000 A 
ATOM     24  S   UNL     1      -3.354  12.368  19.805  0.00  0.00    +0.000 S 
ATOM     25  C   UNL     1      -2.914  12.858  21.387  0.00  0.00    +0.000 A 
ATOM     26  C   UNL     1      -3.765  13.480  22.318  0.00  0.00    +0.000 A 
ATOM     27  C   UNL     1      -3.224  13.964  23.505  0.00  0.00    +0.000 A 
ATOM     28  C   UNL     1      -1.864  13.840  23.751  0.00  0.00    +0.000 A 
ATOM     29  C   UNL     1      -1.036  13.136  22.860  0.00  0.00    +0.000 A 
ATOM     30  C   UNL     1      -1.561  12.589  21.656  0.00  0.00    +0.000 A 
ATOM     31  C   UNL     1      -1.006  11.725  20.629  0.00  0.00    +0.000 A 
ATOM     32  C   UNL     1       0.220  10.921  20.598  0.00  0.00    +0.000 A 
ATOM     33  O   UNL     1       0.997  10.878  21.545  0.00  0.00    +0.000 OA
ENDBRANCH  18  19
ENDBRANCH   1  18
TORSDOF 9
ENDMDL
MODEL 2
REMARK VINA RESULT:      -7.8      7.379      9.360
REMARK  Name = 
REMARK  11 active torsions:
REMARK  status: ('A' for Active; 'I' for Inactive)
REMARK    1  A    between atoms: C_1  and  C_2
REMARK    2  A    between atoms: C_2  and  O_3
REMARK    3  A    between atoms: O_3  and  C_4
REMARK    4  A    between atoms: C_7  and  C_8
REMARK    5  A    between atoms: C_8  and  C_9
REMARK    6  A    between atoms: C_9  and  N_10
REMARK    7  A    between atoms: C_11  and  C_13
REMARK    8  A    between atoms: C_13  and  C_14
REMARK    9  A    between atoms: C_14  and  C_15
REMARK   10  A    between atoms: C_15  and  N_16
REMARK   11  A    between atoms: C_18  and  C_19
REMARK                            x       y       z     vdW  Elec       q    Type
REMARK                         _______ _______ _______ _____ _____    ______ ____
ROOT
ATOM      1  C   UNL     1       8.821   9.617  17.826  0.00  0.00    +0.000 C 
ENDROOT
BRANCH   1   2
ATOM      2  C   UNL     1       7.495   8.878  17.679  0.00  0.00    +0.000 C 
BRANCH   2   4
ATOM      3  N   UNL     1       7.293   6.705  16.544  0.00  0.00    +0.000 N 
ATOM      4  C   UNL     1       7.678   7.368  17.691  0.00  0.00    +0.000 C 
ATOM      5  O   UNL     1       8.148   6.788  18.667  0.00  0.00    +0.000 OA
ATOM      6  H   UNL     1       7.076   7.233  15.709  0.00  0.00    +0.000 HD
BRANCH   3   7
ATOM      7  C   UNL     1       7.452   5.260  16.450  0.00  0.00    +0.000 C 
BRANCH   7   8
ATOM      8  C   UNL     1       6.155   4.487  16.180  0.00  0.00    +0.000 C 
BRANCH   8  12
ATOM      9  C   UNL     1       3.281   4.604  19.416  0.00  0.00    +0.000 A 
ATOM     10  C   UNL     1       4.648   4.540  19.688  0.00  0.00    +0.000 A 
ATOM     11  C   UNL     1       5.580   4.497  18.649  0.00  0.00    +0.000 A 
ATOM     12  C   UNL     1       5.157   4.489  17.314  0.00  0.00    +0.000 A 
ATOM     13  C   UNL     1       3.781   4.544  17.047  0.00  0.00    +0.000 A 
ATOM     14  C   UNL     1       2.848   4.589  18.092  0.00  0.00    +0.000 A 
BRANCH   9  15
ATOM     15  O   UNL     1       2.476   4.668  20.517  0.00  0.00    +0.000 OA
BRANCH  15  17
ATOM     16  C   UNL     1       1.258   2.808  21.364  0.00  0.00    +0.000 C 
ATOM     17  C   UNL     1       1.218   4.001  20.425  0.00  0.00    +0.000 C 
ENDBRANCH  15  17
ENDBRANCH   9  15
ENDBRANCH   8  12
ENDBRANCH   7   8
ENDBRANCH   3   7
ENDBRANCH   2   4
ENDBRANCH   1   2
BRANCH   1  18
ATOM     18  C   UNL     1       9.125  10.073  19.262  0.00  0.00    +0.000 C 
BRANCH  18  19
ATOM     19  N   UNL     1       9.796  11.382  19.255  0.00  0.00    +0.000 N 
ATOM     20  N   UNL     1      10.353  11.716  18.014  0.00  0.00    +0.000 NA
ATOM     21  C   UNL     1      10.741  12.941  17.806  0.00  0.00    +0.000 A 
ATOM     22  C   UNL     1      11.420  13.283  16.509  0.00  0.00    +0.000 C 
ATOM     23  C   UNL     1      10.545  13.937  18.819  0.00  0.00    +0.000 A 
ATOM     24  S   UNL     1      10.656  15.590  18.519  0.00  0.00    +0.000 S 
ATOM     25  C   UNL     1      10.271  15.968  20.145  0.00  0.00    +0.000 A 
ATOM     26  C   UNL     1      10.092  17.263  20.665  0.00  0.00    +0.000 A 
ATOM     27  C   UNL     1       9.940  17.422  22.039  0.00  0.00    +0.000 A 
ATOM     28  C   UNL     1       9.976  16.315  22.875  0.00  0.00    +0.000 A 
ATOM     29  C   UNL     1      10.062  15.017  22.342  0.00  0.00    +0.000 A 
ATOM     30  C   UNL     1      10.175  14.813  20.939  0.00  0.00    +0.000 A 
ATOM     31  C   UNL     1      10.152  13.627  20.099  0.00  0.00    +0.000 A 
ATOM     32  C   UNL     1       9.762  12.243  20.388  0.00  0.00    +0.000 A 
ATOM     33  O   UNL     1       9.363  11.894  21.494  0.00  0.00    +0.000 OA
ENDBRANCH  18  19
ENDBRANCH   1  18
TORSDOF 9
ENDMDL
MODEL 3
REMARK VINA RESULT:      -7.8      4.856      8.276
REMARK  Name = 
REMARK  11 active torsions:
REMARK  status: ('A' for Active; 'I' for Inactive)
REMARK    1  A    between atoms: C_1  and  C_2
REMARK    2  A    between atoms: C_2  and  O_3
REMARK    3  A    between atoms: O_3  and  C_4
REMARK    4  A    between atoms: C_7  and  C_8
REMARK    5  A    between atoms: C_8  and  C_9
REMARK    6  A    between atoms: C_9  and  N_10
REMARK    7  A    between atoms: C_11  and  C_13
REMARK    8  A    between atoms: C_13  and  C_14
REMARK    9  A    between atoms: C_14  and  C_15
REMARK   10  A    between atoms: C_15  and  N_16
REMARK   11  A    between atoms: C_18  and  C_19
REMARK                            x       y       z     vdW  Elec       q    Type
REMARK                         _______ _______ _______ _____ _____    ______ ____
ROOT
ATOM      1  C   UNL     1       6.759   4.549  16.086  0.00  0.00    +0.000 C 
ENDROOT
BRANCH   1   2
ATOM      2  C   UNL     1       7.636   4.702  17.324  0.00  0.00    +0.000 C 
BRANCH   2   4
ATOM      3  N   UNL     1       7.951   7.142  17.310  0.00  0.00    +0.000 N 
ATOM      4  C   UNL     1       7.447   6.055  17.994  0.00  0.00    +0.000 C 
ATOM      5  O   UNL     1       6.872   6.159  19.075  0.00  0.00    +0.000 OA
ATOM      6  H   UNL     1       8.260   7.033  16.352  0.00  0.00    +0.000 HD
BRANCH   3   7
ATOM      7  C   UNL     1       7.798   8.482  17.859  0.00  0.00    +0.000 C 
BRANCH   7   8
ATOM      8  C   UNL     1       8.970   8.961  18.725  0.00  0.00    +0.000 C 
BRANCH   8  12
ATOM      9  C   UNL     1       9.112  13.242  19.349  0.00  0.00    +0.000 A 
ATOM     10  C   UNL     1       8.755  12.722  18.105  0.00  0.00    +0.000 A 
ATOM     11  C   UNL     1       8.712  11.342  17.896  0.00  0.00    +0.000 A 
ATOM     12  C   UNL     1       9.055  10.455  18.925  0.00  0.00    +0.000 A 
ATOM     13  C   UNL     1       9.422  10.985  20.170  0.00  0.00    +0.000 A 
ATOM     14  C   UNL     1       9.463  12.370  20.378  0.00  0.00    +0.000 A 
BRANCH   9  15
ATOM     15  O   UNL     1       9.091  14.605  19.433  0.00  0.00    +0.000 OA
BRANCH  15  17
ATOM     16  C   UNL     1       6.867  15.114  20.108  0.00  0.00    +0.000 C 
ATOM     17  C   UNL     1       7.896  15.251  18.998  0.00  0.00    +0.000 C 
ENDBRANCH  15  17
ENDBRANCH   9  15
ENDBRANCH   8  12
ENDBRANCH   7   8
ENDBRANCH   3   7
ENDBRANCH   2   4
ENDBRANCH   1   2
BRANCH   1  18
ATOM     18  C   UNL     1       5.698   3.444  16.207  0.00  0.00    +0.000 C 
BRANCH  18  19
ATOM     19  N   UNL     1       4.562   3.908  17.019  0.00  0.00    +0.000 N 
ATOM     20  N   UNL     1       4.093   2.947  17.922  0.00  0.00    +0.000 NA
ATOM     21  C   UNL     1       3.273   3.314  18.865  0.00  0.00    +0.000 A 
ATOM     22  C   UNL     1       2.698   2.270  19.781  0.00  0.00    +0.000 C 
ATOM     23  C   UNL     1       2.909   4.694  19.001  0.00  0.00    +0.000 A 
ATOM     24  S   UNL     1       2.180   5.323  20.382  0.00  0.00    +0.000 S 
ATOM     25  C   UNL     1       2.152   6.902  19.718  0.00  0.00    +0.000 A 
ATOM     26  C   UNL     1       1.718   8.063  20.383  0.00  0.00    +0.000 A 
ATOM     27  C   UNL     1       1.604   9.247  19.663  0.00  0.00    +0.000 A 
ATOM     28  C   UNL     1       1.906   9.270  18.308  0.00  0.00    +0.000 A 
ATOM     29  C   UNL     1       2.427   8.131  17.672  0.00  0.00    +0.000 A 
ATOM     30  C   UNL     1       2.598   6.913  18.385  0.00  0.00    +0.000 A 
ATOM     31  C   UNL     1       3.215   5.640  18.052  0.00  0.00    +0.000 A 
ATOM     32  C   UNL     1       4.088   5.249  16.940  0.00  0.00    +0.000 A 
ATOM     33  O   UNL     1       4.440   6.043  16.075  0.00  0.00    +0.000 OA
ENDBRANCH  18  19
ENDBRANCH   1  18
TORSDOF 9
ENDMDL
MODEL 4
REMARK VINA RESULT:      -7.7      2.947     10.262
REMARK  Name = 
REMARK  11 active torsions:
REMARK  status: ('A' for Active; 'I' for Inactive)
REMARK    1  A    between atoms: C_1  and  C_2
REMARK    2  A    between atoms: C_2  and  O_3
REMARK    3  A    between atoms: O_3  and  C_4
REMARK    4  A    between atoms: C_7  and  C_8
REMARK    5  A    between atoms: C_8  and  C_9
REMARK    6  A    between atoms: C_9  and  N_10
REMARK    7  A    between atoms: C_11  and  C_13
REMARK    8  A    between atoms: C_13  and  C_14
REMARK    9  A    between atoms: C_14  and  C_15
REMARK   10  A    between atoms: C_15  and  N_16
REMARK   11  A    between atoms: C_18  and  C_19
REMARK                            x       y       z     vdW  Elec       q    Type
REMARK                         _______ _______ _______ _____ _____    ______ ____
ROOT
ATOM      1  C   UNL     1       1.130   8.195  21.492  0.00  0.00    +0.000 C 
ENDROOT
BRANCH   1   2
ATOM      2  C   UNL     1      -0.165   8.896  21.891  0.00  0.00    +0.000 C 
BRANCH   2   4
ATOM      3  N   UNL     1      -1.079  11.099  22.493  0.00  0.00    +0.000 N 
ATOM      4  C   UNL     1       0.030  10.394  22.073  0.00  0.00    +0.000 C 
ATOM      5  O   UNL     1       1.116  10.929  21.863  0.00  0.00    +0.000 OA
ATOM      6  H   UNL     1      -1.897  10.600  22.820  0.00  0.00    +0.000 HD
BRANCH   3   7
ATOM      7  C   UNL     1      -0.987  12.535  22.720  0.00  0.00    +0.000 C 
BRANCH   7   8
ATOM      8  C   UNL     1      -2.056  13.369  22.003  0.00  0.00    +0.000 C 
BRANCH   8  12
ATOM      9  C   UNL     1      -3.254  11.784  18.156  0.00  0.00    +0.000 A 
ATOM     10  C   UNL     1      -1.913  12.071  18.415  0.00  0.00    +0.000 A 
ATOM     11  C   UNL     1      -1.521  12.587  19.652  0.00  0.00    +0.000 A 
ATOM     12  C   UNL     1      -2.472  12.852  20.645  0.00  0.00    +0.000 A 
ATOM     13  C   UNL     1      -3.819  12.571  20.376  0.00  0.00    +0.000 A 
ATOM     14  C   UNL     1      -4.210  12.052  19.134  0.00  0.00    +0.000 A 
BRANCH   9  15
ATOM     15  O   UNL     1      -3.505  11.260  16.920  0.00  0.00    +0.000 OA
BRANCH  15  17
ATOM     16  C   UNL     1      -2.957   9.801  15.123  0.00  0.00    +0.000 C 
ATOM     17  C   UNL     1      -2.899  10.002  16.627  0.00  0.00    +0.000 C 
ENDBRANCH  15  17
ENDBRANCH   9  15
ENDBRANCH   8  12
ENDBRANCH   7   8
ENDBRANCH   3   7
ENDBRANCH   2   4
ENDBRANCH   1   2
BRANCH   1  18
ATOM     18  C   UNL     1       1.347   8.103  19.973  0.00  0.00    +0.000 C 
BRANCH  18  19
ATOM     19  N   UNL     1       2.262   6.998  19.650  0.00  0.00    +0.000 N 
ATOM     20  N   UNL     1       2.087   5.873  20.467  0.00  0.00    +0.000 NA
ATOM     21  C   UNL     1       2.647   4.750  20.121  0.00  0.00    +0.000 A 
ATOM     22  C   UNL     1       2.536   3.565  21.040  0.00  0.00    +0.000 C 
ATOM     23  C   UNL     1       3.383   4.664  18.893  0.00  0.00    +0.000 A 
ATOM     24  S   UNL     1       3.813   3.201  18.178  0.00  0.00    +0.000 S 
ATOM     25  C   UNL     1       4.559   4.000  16.860  0.00  0.00    +0.000 A 
ATOM     26  C   UNL     1       5.122   3.372  15.734  0.00  0.00    +0.000 A 
ATOM     27  C   UNL     1       5.834   4.143  14.820  0.00  0.00    +0.000 A 
ATOM     28  C   UNL     1       5.990   5.505  15.031  0.00  0.00    +0.000 A 
ATOM     29  C   UNL     1       5.349   6.141  16.108  0.00  0.00    +0.000 A 
ATOM     30  C   UNL     1       4.576   5.394  17.039  0.00  0.00    +0.000 A 
ATOM     31  C   UNL     1       3.712   5.768  18.145  0.00  0.00    +0.000 A 
ATOM     32  C   UNL     1       3.148   7.064  18.537  0.00  0.00    +0.000 A 
ATOM     33  O   UNL     1       3.361   8.089  17.900  0.00  0.00    +0.000 OA
ENDBRANCH  18  19
ENDBRANCH   1  18
TORSDOF 9
ENDMDL
MODEL 5
REMARK VINA RESULT:      -7.6      6.975      8.948
REMARK  Name = 
REMARK  11 active torsions:
REMARK  status: ('A' for Active; 'I' for Inactive)
REMARK    1  A    between atoms: C_1  and  C_2
REMARK    2  A    between atoms: C_2  and  O_3
REMARK    3  A    between atoms: O_3  and  C_4
REMARK    4  A    between atoms: C_7  and  C_8
REMARK    5  A    between atoms: C_8  and  C_9
REMARK    6  A    between atoms: C_9  and  N_10
REMARK    7  A    between atoms: C_11  and  C_13
REMARK    8  A    between atoms: C_13  and  C_14
REMARK    9  A    between atoms: C_14  and  C_15
REMARK   10  A    between atoms: C_15  and  N_16
REMARK   11  A    between atoms: C_18  and  C_19
REMARK                            x       y       z     vdW  Elec       q    Type
REMARK                         _______ _______ _______ _____ _____    ______ ____
ROOT
ATOM      1  C   UNL     1       8.376   9.453  18.160  0.00  0.00    +0.000 C 
ENDROOT
BRANCH   1   2
ATOM      2  C   UNL     1       8.625   8.106  18.832  0.00  0.00    +0.000 C 
BRANCH   2   4
ATOM      3  N   UNL     1       7.303   7.252  16.941  0.00  0.00    +0.000 N 
ATOM      4  C   UNL     1       7.798   6.995  18.203  0.00  0.00    +0.000 C 
ATOM      5  O   UNL     1       7.598   5.935  18.792  0.00  0.00    +0.000 OA
ATOM      6  H   UNL     1       7.634   8.058  16.428  0.00  0.00    +0.000 HD
BRANCH   3   7
ATOM      7  C   UNL     1       6.520   6.239  16.246  0.00  0.00    +0.000 C 
BRANCH   7   8
ATOM      8  C   UNL     1       5.003   6.458  16.290  0.00  0.00    +0.000 C 
BRANCH   8  12
ATOM      9  C   UNL     1       2.839   3.534  18.637  0.00  0.00    +0.000 A 
ATOM     10  C   UNL     1       3.854   3.131  17.770  0.00  0.00    +0.000 A 
ATOM     11  C   UNL     1       4.553   4.069  17.006  0.00  0.00    +0.000 A 
ATOM     12  C   UNL     1       4.226   5.429  17.077  0.00  0.00    +0.000 A 
ATOM     13  C   UNL     1       3.198   5.827  17.944  0.00  0.00    +0.000 A 
ATOM     14  C   UNL     1       2.500   4.884  18.711  0.00  0.00    +0.000 A 
BRANCH   9  15
ATOM     15  O   UNL     1       2.250   2.525  19.346  0.00  0.00    +0.000 OA
BRANCH  15  17
ATOM     16  C   UNL     1       1.513   2.733  21.599  0.00  0.00    +0.000 C 
ATOM     17  C   UNL     1       1.119   2.881  20.139  0.00  0.00    +0.000 C 
ENDBRANCH  15  17
ENDBRANCH   9  15
ENDBRANCH   8  12
ENDBRANCH   7   8
ENDBRANCH   3   7
ENDBRANCH   2   4
ENDBRANCH   1   2
BRANCH   1  18
ATOM     18  C   UNL     1       9.534  10.451  18.317  0.00  0.00    +0.000 C 
BRANCH  18  19
ATOM     19  N   UNL     1       9.112  11.607  19.123  0.00  0.00    +0.000 N 
ATOM     20  N   UNL     1       8.983  11.317  20.487  0.00  0.00    +0.000 NA
ATOM     21  C   UNL     1       8.869  12.301  21.333  0.00  0.00    +0.000 A 
ATOM     22  C   UNL     1       8.641  11.992  22.786  0.00  0.00    +0.000 C 
ATOM     23  C   UNL     1       8.934  13.656  20.869  0.00  0.00    +0.000 A 
ATOM     24  S   UNL     1       9.177  14.970  21.893  0.00  0.00    +0.000 S 
ATOM     25  C   UNL     1       9.151  16.070  20.581  0.00  0.00    +0.000 A 
ATOM     26  C   UNL     1       9.383  17.455  20.669  0.00  0.00    +0.000 A 
ATOM     27  C   UNL     1       9.171  18.245  19.543  0.00  0.00    +0.000 A 
ATOM     28  C   UNL     1       8.727  17.668  18.362  0.00  0.00    +0.000 A 
ATOM     29  C   UNL     1       8.586  16.274  18.255  0.00  0.00    +0.000 A 
ATOM     30  C   UNL     1       8.835  15.429  19.371  0.00  0.00    +0.000 A 
ATOM     31  C   UNL     1       8.901  13.987  19.535  0.00  0.00    +0.000 A 
ATOM     32  C   UNL     1       8.967  12.903  18.550  0.00  0.00    +0.000 A 
ATOM     33  O   UNL     1       8.982  13.116  17.343  0.00  0.00    +0.000 OA
ENDBRANCH  18  19
ENDBRANCH   1  18
TORSDOF 9
ENDMDL
MODEL 6
REMARK VINA RESULT:      -7.5      2.252      3.110
REMARK  Name = 
REMARK  11 active torsions:
REMARK  status: ('A' for Active; 'I' for Inactive)
REMARK    1  A    between atoms: C_1  and  C_2
REMARK    2  A    between atoms: C_2  and  O_3
REMARK    3  A    between atoms: O_3  and  C_4
REMARK    4  A    between atoms: C_7  and  C_8
REMARK    5  A    between atoms: C_8  and  C_9
REMARK    6  A    between atoms: C_9  and  N_10
REMARK    7  A    between atoms: C_11  and  C_13
REMARK    8  A    between atoms: C_13  and  C_14
REMARK    9  A    between atoms: C_14  and  C_15
REMARK   10  A    between atoms: C_15  and  N_16
REMARK   11  A    between atoms: C_18  and  C_19
REMARK                            x       y       z     vdW  Elec       q    Type
REMARK                         _______ _______ _______ _____ _____    ______ ____
ROOT
ATOM      1  C   UNL     1       1.931   6.359  20.282  0.00  0.00    +0.000 C 
ENDROOT
BRANCH   1   2
ATOM      2  C   UNL     1       2.232   4.907  20.641  0.00  0.00    +0.000 C 
BRANCH   2   4
ATOM      3  N   UNL     1       2.838   4.786  18.260  0.00  0.00    +0.000 N 
ATOM      4  C   UNL     1       2.577   4.077  19.414  0.00  0.00    +0.000 C 
ATOM      5  O   UNL     1       2.624   2.850  19.463  0.00  0.00    +0.000 OA
ATOM      6  H   UNL     1       2.958   5.790  18.305  0.00  0.00    +0.000 HD
BRANCH   3   7
ATOM      7  C   UNL     1       3.201   4.081  17.038  0.00  0.00    +0.000 C 
BRANCH   7   8
ATOM      8  C   UNL     1       4.699   3.789  16.886  0.00  0.00    +0.000 C 
BRANCH   8  12
ATOM      9  C   UNL     1       7.416   6.913  18.153  0.00  0.00    +0.000 A 
ATOM     10  C   UNL     1       7.308   5.732  18.887  0.00  0.00    +0.000 A 
ATOM     11  C   UNL     1       6.429   4.722  18.486  0.00  0.00    +0.000 A 
ATOM     12  C   UNL     1       5.621   4.890  17.355  0.00  0.00    +0.000 A 
ATOM     13  C   UNL     1       5.728   6.084  16.627  0.00  0.00    +0.000 A 
ATOM     14  C   UNL     1       6.611   7.095  17.030  0.00  0.00    +0.000 A 
BRANCH   9  15
ATOM     15  O   UNL     1       8.328   7.810  18.633  0.00  0.00    +0.000 OA
BRANCH  15  17
ATOM     16  C   UNL     1       9.124  10.033  18.922  0.00  0.00    +0.000 C 
ATOM     17  C   UNL     1       8.336   9.098  18.020  0.00  0.00    +0.000 C 
ENDBRANCH  15  17
ENDBRANCH   9  15
ENDBRANCH   8  12
ENDBRANCH   7   8
ENDBRANCH   3   7
ENDBRANCH   2   4
ENDBRANCH   1   2
BRANCH   1  18
ATOM     18  C   UNL     1       1.125   7.112  21.353  0.00  0.00    +0.000 C 
BRANCH  18  19
ATOM     19  N   UNL     1       0.991   8.532  20.993  0.00  0.00    +0.000 N 
ATOM     20  N   UNL     1       1.495   8.834  19.721  0.00  0.00    +0.000 NA
ATOM     21  C   UNL     1       1.207   9.985  19.186  0.00  0.00    +0.000 A 
ATOM     22  C   UNL     1       1.819  10.348  17.861  0.00  0.00    +0.000 C 
ATOM     23  C   UNL     1       0.340  10.898  19.872  0.00  0.00    +0.000 A 
ATOM     24  S   UNL     1      -0.389  12.217  19.121  0.00  0.00    +0.000 S 
ATOM     25  C   UNL     1      -1.193  12.666  20.565  0.00  0.00    +0.000 A 
ATOM     26  C   UNL     1      -2.117  13.720  20.694  0.00  0.00    +0.000 A 
ATOM     27  C   UNL     1      -2.569  14.066  21.964  0.00  0.00    +0.000 A 
ATOM     28  C   UNL     1      -2.101  13.385  23.079  0.00  0.00    +0.000 A 
ATOM     29  C   UNL     1      -1.250  12.276  22.935  0.00  0.00    +0.000 A 
ATOM     30  C   UNL     1      -0.801  11.864  21.650  0.00  0.00    +0.000 A 
ATOM     31  C   UNL     1      -0.047  10.715  21.178  0.00  0.00    +0.000 A 
ATOM     32  C   UNL     1       0.309   9.454  21.837  0.00  0.00    +0.000 A 
ATOM     33  O   UNL     1      -0.032   9.198  22.986  0.00  0.00    +0.000 OA
ENDBRANCH  18  19
ENDBRANCH   1  18
TORSDOF 9
ENDMDL
MODEL 7
REMARK VINA RESULT:      -7.5      3.277     11.326
REMARK  Name = 
REMARK  11 active torsions:
REMARK  status: ('A' for Active; 'I' for Inactive)
REMARK    1  A    between atoms: C_1  and  C_2
REMARK    2  A    between atoms: C_2  and  O_3
REMARK    3  A    between atoms: O_3  and  C_4
REMARK    4  A    between atoms: C_7  and  C_8
REMARK    5  A    between atoms: C_8  and  C_9
REMARK    6  A    between atoms: C_9  and  N_10
REMARK    7  A    between atoms: C_11  and  C_13
REMARK    8  A    between atoms: C_13  and  C_14
REMARK    9  A    between atoms: C_14  and  C_15
REMARK   10  A    between atoms: C_15  and  N_16
REMARK   11  A    between atoms: C_18  and  C_19
REMARK                            x       y       z     vdW  Elec       q    Type
REMARK                         _______ _______ _______ _____ _____    ______ ____
ROOT
ATOM      1  C   UNL     1       1.084   8.848  21.802  0.00  0.00    +0.000 C 
ENDROOT
BRANCH   1   2
ATOM      2  C   UNL     1      -0.109   9.425  22.559  0.00  0.00    +0.000 C 
BRANCH   2   4
ATOM      3  N   UNL     1      -1.144  11.561  23.202  0.00  0.00    +0.000 N 
ATOM      4  C   UNL     1      -0.200  10.936  22.413  0.00  0.00    +0.000 C 
ATOM      5  O   UNL     1       0.532  11.551  21.641  0.00  0.00    +0.000 OA
ATOM      6  H   UNL     1      -1.600  11.044  23.943  0.00  0.00    +0.000 HD
BRANCH   3   7
ATOM      7  C   UNL     1      -1.291  13.010  23.152  0.00  0.00    +0.000 C 
BRANCH   7   8
ATOM      8  C   UNL     1      -2.670  13.531  23.574  0.00  0.00    +0.000 C 
BRANCH   8  12
ATOM      9  C   UNL     1      -5.834  12.781  20.717  0.00  0.00    +0.000 A 
ATOM     10  C   UNL     1      -4.541  13.066  20.278  0.00  0.00    +0.000 A 
ATOM     11  C   UNL     1      -3.517  13.314  21.195  0.00  0.00    +0.000 A 
ATOM     12  C   UNL     1      -3.778  13.308  22.571  0.00  0.00    +0.000 A 
ATOM     13  C   UNL     1      -5.082  13.030  23.005  0.00  0.00    +0.000 A 
ATOM     14  C   UNL     1      -6.107  12.780  22.083  0.00  0.00    +0.000 A 
BRANCH   9  15
ATOM     15  O   UNL     1      -6.739  12.532  19.723  0.00  0.00    +0.000 OA
BRANCH  15  17
ATOM     16  C   UNL     1      -6.867  10.392  18.692  0.00  0.00    +0.000 C 
ATOM     17  C   UNL     1      -7.427  11.284  19.787  0.00  0.00    +0.000 C 
ENDBRANCH  15  17
ENDBRANCH   9  15
ENDBRANCH   8  12
ENDBRANCH   7   8
ENDBRANCH   3   7
ENDBRANCH   2   4
ENDBRANCH   1   2
BRANCH   1  18
ATOM     18  C   UNL     1       0.708   8.138  20.493  0.00  0.00    +0.000 C 
BRANCH  18  19
ATOM     19  N   UNL     1       1.709   7.113  20.157  0.00  0.00    +0.000 N 
ATOM     20  N   UNL     1       1.640   5.978  20.974  0.00  0.00    +0.000 NA
ATOM     21  C   UNL     1       2.289   4.906  20.621  0.00  0.00    +0.000 A 
ATOM     22  C   UNL     1       2.290   3.716  21.539  0.00  0.00    +0.000 C 
ATOM     23  C   UNL     1       3.014   4.883  19.383  0.00  0.00    +0.000 A 
ATOM     24  S   UNL     1       3.557   3.462  18.661  0.00  0.00    +0.000 S 
ATOM     25  C   UNL     1       4.216   4.321  17.335  0.00  0.00    +0.000 A 
ATOM     26  C   UNL     1       4.816   3.744  16.200  0.00  0.00    +0.000 A 
ATOM     27  C   UNL     1       5.449   4.571  15.279  0.00  0.00    +0.000 A 
ATOM     28  C   UNL     1       5.492   5.942  15.489  0.00  0.00    +0.000 A 
ATOM     29  C   UNL     1       4.812   6.521  16.575  0.00  0.00    +0.000 A 
ATOM     30  C   UNL     1       4.118   5.711  17.515  0.00  0.00    +0.000 A 
ATOM     31  C   UNL     1       3.239   6.011  18.633  0.00  0.00    +0.000 A 
ATOM     32  C   UNL     1       2.572   7.255  19.033  0.00  0.00    +0.000 A 
ATOM     33  O   UNL     1       2.690   8.294  18.394  0.00  0.00    +0.000 OA
ENDBRANCH  18  19
ENDBRANCH   1  18
TORSDOF 9
ENDMDL
MODEL 8
REMARK VINA RESULT:      -7.5      3.348     11.199
REMARK  Name = 
REMARK  11 active torsions:
REMARK  status: ('A' for Active; 'I' for Inactive)
REMARK    1  A    between atoms: C_1  and  C_2
REMARK    2  A    between atoms: C_2  and  O_3
REMARK    3  A    between atoms: O_3  and  C_4
REMARK    4  A    between atoms: C_7  and  C_8
REMARK    5  A    between atoms: C_8  and  C_9
REMARK    6  A    between atoms: C_9  and  N_10
REMARK    7  A    between atoms: C_11  and  C_13
REMARK    8  A    between atoms: C_13  and  C_14
REMARK    9  A    between atoms: C_14  and  C_15
REMARK   10  A    between atoms: C_15  and  N_16
REMARK   11  A    between atoms: C_18  and  C_19
REMARK                            x       y       z     vdW  Elec       q    Type
REMARK                         _______ _______ _______ _____ _____    ______ ____
ROOT
ATOM      1  C   UNL     1       1.233   8.421  21.788  0.00  0.00    +0.000 C 
ENDROOT
BRANCH   1   2
ATOM      2  C   UNL     1       0.786   9.826  21.394  0.00  0.00    +0.000 C 
BRANCH   2   4
ATOM      3  N   UNL     1      -0.672  11.660  22.143  0.00  0.00    +0.000 N 
ATOM      4  C   UNL     1      -0.010  10.502  22.499  0.00  0.00    +0.000 C 
ATOM      5  O   UNL     1      -0.059  10.033  23.633  0.00  0.00    +0.000 OA
ATOM      6  H   UNL     1      -0.747  11.914  21.166  0.00  0.00    +0.000 HD
BRANCH   3   7
ATOM      7  C   UNL     1      -1.482  12.368  23.126  0.00  0.00    +0.000 C 
BRANCH   7   8
ATOM      8  C   UNL     1      -2.353  13.491  22.551  0.00  0.00    +0.000 C 
BRANCH   8  12
ATOM      9  C   UNL     1      -5.761  12.284  20.170  0.00  0.00    +0.000 A 
ATOM     10  C   UNL     1      -5.904  12.518  21.538  0.00  0.00    +0.000 A 
ATOM     11  C   UNL     1      -4.807  12.903  22.313  0.00  0.00    +0.000 A 
ATOM     12  C   UNL     1      -3.538  13.033  21.734  0.00  0.00    +0.000 A 
ATOM     13  C   UNL     1      -3.400  12.787  20.360  0.00  0.00    +0.000 A 
ATOM     14  C   UNL     1      -4.502  12.403  19.585  0.00  0.00    +0.000 A 
BRANCH   9  15
ATOM     15  O   UNL     1      -6.912  11.939  19.521  0.00  0.00    +0.000 OA
BRANCH  15  17
ATOM     16  C   UNL     1      -7.130  12.764  17.300  0.00  0.00    +0.000 C 
ATOM     17  C   UNL     1      -6.780  11.556  18.153  0.00  0.00    +0.000 C 
ENDBRANCH  15  17
ENDBRANCH   9  15
ENDBRANCH   8  12
ENDBRANCH   7   8
ENDBRANCH   3   7
ENDBRANCH   2   4
ENDBRANCH   1   2
BRANCH   1  18
ATOM     18  C   UNL     1       0.656   7.311  20.896  0.00  0.00    +0.000 C 
BRANCH  18  19
ATOM     19  N   UNL     1       1.731   6.430  20.412  0.00  0.00    +0.000 N 
ATOM     20  N   UNL     1       1.785   5.199  21.079  0.00  0.00    +0.000 NA
ATOM     21  C   UNL     1       2.512   4.243  20.578  0.00  0.00    +0.000 A 
ATOM     22  C   UNL     1       2.644   2.951  21.337  0.00  0.00    +0.000 C 
ATOM     23  C   UNL     1       3.197   4.439  19.333  0.00  0.00    +0.000 A 
ATOM     24  S   UNL     1       3.837   3.174  18.425  0.00  0.00    +0.000 S 
ATOM     25  C   UNL     1       4.378   4.249  17.205  0.00  0.00    +0.000 A 
ATOM     26  C   UNL     1       4.989   3.873  15.995  0.00  0.00    +0.000 A 
ATOM     27  C   UNL     1       5.519   4.863  15.174  0.00  0.00    +0.000 A 
ATOM     28  C   UNL     1       5.451   6.195  15.557  0.00  0.00    +0.000 A 
ATOM     29  C   UNL     1       4.759   6.571  16.721  0.00  0.00    +0.000 A 
ATOM     30  C   UNL     1       4.166   5.591  17.564  0.00  0.00    +0.000 A 
ATOM     31  C   UNL     1       3.301   5.669  18.729  0.00  0.00    +0.000 A 
ATOM     32  C   UNL     1       2.542   6.787  19.298  0.00  0.00    +0.000 A 
ATOM     33  O   UNL     1       2.550   7.905  18.795  0.00  0.00    +0.000 OA
ENDBRANCH  18  19
ENDBRANCH   1  18
TORSDOF 9
ENDMDL
MODEL 9
REMARK VINA RESULT:      -7.4      2.724      3.727
REMARK  Name = 
REMARK  11 active torsions:
REMARK  status: ('A' for Active; 'I' for Inactive)
REMARK    1  A    between atoms: C_1  and  C_2
REMARK    2  A    between atoms: C_2  and  O_3
REMARK    3  A    between atoms: O_3  and  C_4
REMARK    4  A    between atoms: C_7  and  C_8
REMARK    5  A    between atoms: C_8  and  C_9
REMARK    6  A    between atoms: C_9  and  N_10
REMARK    7  A    between atoms: C_11  and  C_13
REMARK    8  A    between atoms: C_13  and  C_14
REMARK    9  A    between atoms: C_14  and  C_15
REMARK   10  A    between atoms: C_15  and  N_16
REMARK   11  A    between atoms: C_18  and  C_19
REMARK                            x       y       z     vdW  Elec       q    Type
REMARK                         _______ _______ _______ _____ _____    ______ ____
ROOT
ATOM      1  C   UNL     1       2.138   6.130  20.619  0.00  0.00    +0.000 C 
ENDROOT
BRANCH   1   2
ATOM      2  C   UNL     1       0.844   5.346  20.420  0.00  0.00    +0.000 C 
BRANCH   2   4
ATOM      3  N   UNL     1       1.405   3.560  18.825  0.00  0.00    +0.000 N 
ATOM      4  C   UNL     1       1.106   3.875  20.135  0.00  0.00    +0.000 C 
ATOM      5  O   UNL     1       1.058   3.031  21.026  0.00  0.00    +0.000 OA
ATOM      6  H   UNL     1       1.603   4.300  18.164  0.00  0.00    +0.000 HD
BRANCH   3   7
ATOM      7  C   UNL     1       1.695   2.181  18.456  0.00  0.00    +0.000 C 
BRANCH   7   8
ATOM      8  C   UNL     1       3.103   1.949  17.895  0.00  0.00    +0.000 C 
BRANCH   8  12
ATOM      9  C   UNL     1       5.861   5.278  18.120  0.00  0.00    +0.000 A 
ATOM     10  C   UNL     1       5.513   4.571  19.271  0.00  0.00    +0.000 A 
ATOM     11  C   UNL     1       4.619   3.499  19.206  0.00  0.00    +0.000 A 
ATOM     12  C   UNL     1       4.036   3.133  17.987  0.00  0.00    +0.000 A 
ATOM     13  C   UNL     1       4.383   3.853  16.835  0.00  0.00    +0.000 A 
ATOM     14  C   UNL     1       5.281   4.927  16.902  0.00  0.00    +0.000 A 
BRANCH   9  15
ATOM     15  O   UNL     1       6.762   6.286  18.312  0.00  0.00    +0.000 OA
BRANCH  15  17
ATOM     16  C   UNL     1       7.902   8.280  17.691  0.00  0.00    +0.000 C 
ATOM     17  C   UNL     1       6.897   7.230  17.251  0.00  0.00    +0.000 C 
ENDBRANCH  15  17
ENDBRANCH   9  15
ENDBRANCH   8  12
ENDBRANCH   7   8
ENDBRANCH   3   7
ENDBRANCH   2   4
ENDBRANCH   1   2
BRANCH   1  18
ATOM     18  C   UNL     1       2.283   7.341  19.683  0.00  0.00    +0.000 C 
BRANCH  18  19
ATOM     19  N   UNL     1       1.391   8.430  20.110  0.00  0.00    +0.000 N 
ATOM     20  N   UNL     1       0.973   8.319  21.442  0.00  0.00    +0.000 NA
ATOM     21  C   UNL     1       0.400   9.340  22.011  0.00  0.00    +0.000 A 
ATOM     22  C   UNL     1      -0.129   9.196  23.411  0.00  0.00    +0.000 C 
ATOM     23  C   UNL     1       0.256  10.573  21.292  0.00  0.00    +0.000 A 
ATOM     24  S   UNL     1      -0.113  12.036  22.039  0.00  0.00    +0.000 S 
ATOM     25  C   UNL     1      -0.052  12.877  20.547  0.00  0.00    +0.000 A 
ATOM     26  C   UNL     1      -0.196  14.267  20.384  0.00  0.00    +0.000 A 
ATOM     27  C   UNL     1      -0.282  14.788  19.097  0.00  0.00    +0.000 A 
ATOM     28  C   UNL     1      -0.237  13.940  17.999  0.00  0.00    +0.000 A 
ATOM     29  C   UNL     1      -0.001  12.565  18.166  0.00  0.00    +0.000 A 
ATOM     30  C   UNL     1       0.136  12.002  19.465  0.00  0.00    +0.000 A 
ATOM     31  C   UNL     1       0.504  10.681  19.945  0.00  0.00    +0.000 A 
ATOM     32  C   UNL     1       1.095   9.529  19.255  0.00  0.00    +0.000 A 
ATOM     33  O   UNL     1       1.382   9.559  18.063  0.00  0.00    +0.000 OA
ENDBRANCH  18  19
ENDBRANCH   1  18
TORSDOF 9
ENDMDL
