MODEL 1
REMARK VINA RESULT:      -6.3      0.000      0.000
REMARK  Name = 
REMARK  4 active torsions:
REMARK  status: ('A' for Active; 'I' for Inactive)
REMARK    1  A    between atoms: CA_4  and  C_5
REMARK    2  A    between atoms: C_5  and  OXT_7
REMARK    3  A    between atoms: C_14  and  C_15
REMARK    4  A    between atoms: C_15  and  S_16
REMARK                            x       y       z     vdW  Elec       q    Type
REMARK                         _______ _______ _______ _____ _____    ______ ____
ROOT
ATOM      1  O   UNL     1       6.511   5.023  19.671  0.00  0.00    +0.000 OA
ATOM      2  C   UNL     1       5.911   4.588  18.690  0.00  0.00    +0.000 C 
ATOM      3  N   UNL     1       5.166   3.442  18.770  0.00  0.00    +0.000 N 
ATOM      4  CA  UNL     1       4.571   3.023  20.046  0.00  0.00    +0.000 C 
ATOM      5  C   UNL     1       3.053   3.269  20.041  0.00  0.00    +0.000 C 
ATOM      6  C   UNL     1       2.682   4.748  19.837  0.00  0.00    +0.000 C 
ATOM      7  C   UNL     1       2.508   5.115  18.359  0.00  0.00    +0.000 C 
ATOM      8  C   UNL     1       2.655   6.611  18.086  0.00  0.00    +0.000 C 
ATOM      9  C   UNL     1       3.805   7.013  17.149  0.00  0.00    +0.000 C 
ATOM     10  C   UNL     1       5.240   6.746  17.636  0.00  0.00    +0.000 C 
ATOM     11  C   UNL     1       5.905   5.362  17.368  0.00  0.00    +0.000 C 
ATOM     12  H   UNL     1       4.813   3.011  17.924  0.00  0.00    +0.000 HD
ENDROOT
BRANCH   4  13
ATOM     13  C   UNL     1       4.917   1.558  20.336  0.00  0.00    +0.000 C 
ATOM     14  O   UNL     1       5.414   1.148  21.372  0.00  0.00    +0.000 OA
BRANCH  13  15
ATOM     15  OXT UNL     1       4.708   0.748  19.267  0.00  0.00    +0.000 OA
ATOM     16  HXT UNL     1       5.390   0.919  18.584  0.00  0.00    +0.000 HD
ENDBRANCH  13  15
ENDBRANCH   4  13
BRANCH  11  17
ATOM     17  C   UNL     1       5.404   4.669  16.094  0.00  0.00    +0.000 C 
BRANCH  17  18
ATOM     18  S   UNL     1       6.556   4.754  14.689  0.00  0.00    +0.000 S 
ATOM     19  H   UNL     1       7.450   3.873  15.159  0.00  0.00    +0.000 HD
ENDBRANCH  17  18
ENDBRANCH  11  17
TORSDOF 4
ENDMDL
MODEL 2
REMARK VINA RESULT:      -6.1      1.606      1.774
REMARK  Name = 
REMARK  4 active torsions:
REMARK  status: ('A' for Active; 'I' for Inactive)
REMARK    1  A    between atoms: CA_4  and  C_5
REMARK    2  A    between atoms: C_5  and  OXT_7
REMARK    3  A    between atoms: C_14  and  C_15
REMARK    4  A    between atoms: C_15  and  S_16
REMARK                            x       y       z     vdW  Elec       q    Type
REMARK                         _______ _______ _______ _____ _____    ______ ____
ROOT
ATOM      1  O   UNL     1       5.814   4.605  19.917  0.00  0.00    +0.000 OA
ATOM      2  C   UNL     1       5.100   4.359  18.949  0.00  0.00    +0.000 C 
ATOM      3  N   UNL     1       3.840   3.848  19.113  0.00  0.00    +0.000 N 
ATOM      4  CA  UNL     1       3.079   4.112  20.341  0.00  0.00    +0.000 C 
ATOM      5  C   UNL     1       1.959   5.130  20.075  0.00  0.00    +0.000 C 
ATOM      6  C   UNL     1       2.483   6.486  19.572  0.00  0.00    +0.000 C 
ATOM      7  C   UNL     1       2.581   6.551  18.044  0.00  0.00    +0.000 C 
ATOM      8  C   UNL     1       3.546   7.627  17.545  0.00  0.00    +0.000 C 
ATOM      9  C   UNL     1       4.748   7.125  16.730  0.00  0.00    +0.000 C 
ATOM     10  C   UNL     1       5.776   6.240  17.457  0.00  0.00    +0.000 C 
ATOM     11  C   UNL     1       5.561   4.698  17.527  0.00  0.00    +0.000 C 
ATOM     12  H   UNL     1       3.328   3.502  18.309  0.00  0.00    +0.000 HD
ENDROOT
BRANCH   4  13
ATOM     13  C   UNL     1       2.540   2.800  20.922  0.00  0.00    +0.000 C 
ATOM     14  O   UNL     1       2.808   2.362  22.029  0.00  0.00    +0.000 OA
BRANCH  13  15
ATOM     15  OXT UNL     1       1.797   2.097  20.030  0.00  0.00    +0.000 OA
ATOM     16  HXT UNL     1       0.860   2.375  20.089  0.00  0.00    +0.000 HD
ENDBRANCH  13  15
ENDBRANCH   4  13
BRANCH  11  17
ATOM     17  C   UNL     1       4.792   4.124  16.330  0.00  0.00    +0.000 C 
BRANCH  17  18
ATOM     18  S   UNL     1       5.745   4.063  14.783  0.00  0.00    +0.000 S 
ATOM     19  H   UNL     1       5.477   5.312  14.377  0.00  0.00    +0.000 HD
ENDBRANCH  17  18
ENDBRANCH  11  17
TORSDOF 4
ENDMDL
MODEL 3
REMARK VINA RESULT:      -6.0      2.870      4.421
REMARK  Name = 
REMARK  4 active torsions:
REMARK  status: ('A' for Active; 'I' for Inactive)
REMARK    1  A    between atoms: CA_4  and  C_5
REMARK    2  A    between atoms: C_5  and  OXT_7
REMARK    3  A    between atoms: C_14  and  C_15
REMARK    4  A    between atoms: C_15  and  S_16
REMARK                            x       y       z     vdW  Elec       q    Type
REMARK                         _______ _______ _______ _____ _____    ______ ____
ROOT
ATOM      1  O   UNL     1       5.297   5.444  19.692  0.00  0.00    +0.000 OA
ATOM      2  C   UNL     1       4.391   5.726  18.911  0.00  0.00    +0.000 C 
ATOM      3  N   UNL     1       4.536   5.532  17.563  0.00  0.00    +0.000 N 
ATOM      4  CA  UNL     1       5.444   4.499  17.048  0.00  0.00    +0.000 C 
ATOM      5  C   UNL     1       4.648   3.302  16.505  0.00  0.00    +0.000 C 
ATOM      6  C   UNL     1       3.764   2.631  17.571  0.00  0.00    +0.000 C 
ATOM      7  C   UNL     1       2.357   3.235  17.636  0.00  0.00    +0.000 C 
ATOM      8  C   UNL     1       1.650   2.979  18.967  0.00  0.00    +0.000 C 
ATOM      9  C   UNL     1       1.277   4.228  19.780  0.00  0.00    +0.000 C 
ATOM     10  C   UNL     1       2.431   5.093  20.318  0.00  0.00    +0.000 C 
ATOM     11  C   UNL     1       3.036   6.221  19.427  0.00  0.00    +0.000 C 
ATOM     12  H   UNL     1       3.851   5.916  16.923  0.00  0.00    +0.000 HD
ENDROOT
BRANCH   4  13
ATOM     13  C   UNL     1       6.380   5.096  15.992  0.00  0.00    +0.000 C 
ATOM     14  O   UNL     1       7.547   4.776  15.828  0.00  0.00    +0.000 OA
BRANCH  13  15
ATOM     15  OXT UNL     1       5.810   6.115  15.301  0.00  0.00    +0.000 OA
ATOM     16  HXT UNL     1       5.684   5.852  14.366  0.00  0.00    +0.000 HD
ENDBRANCH  13  15
ENDBRANCH   4  13
BRANCH  11  17
ATOM     17  C   UNL     1       2.034   6.835  18.440  0.00  0.00    +0.000 C 
BRANCH  17  18
ATOM     18  S   UNL     1       2.376   8.568  18.004  0.00  0.00    +0.000 S 
ATOM     19  H   UNL     1       2.376   8.403  16.674  0.00  0.00    +0.000 HD
ENDBRANCH  17  18
ENDBRANCH  11  17
TORSDOF 4
ENDMDL
MODEL 4
REMARK VINA RESULT:      -6.0      3.212      4.816
REMARK  Name = 
REMARK  4 active torsions:
REMARK  status: ('A' for Active; 'I' for Inactive)
REMARK    1  A    between atoms: CA_4  and  C_5
REMARK    2  A    between atoms: C_5  and  OXT_7
REMARK    3  A    between atoms: C_14  and  C_15
REMARK    4  A    between atoms: C_15  and  S_16
REMARK                            x       y       z     vdW  Elec       q    Type
REMARK                         _______ _______ _______ _____ _____    ______ ____
ROOT
ATOM      1  O   UNL     1       5.318   5.021  19.852  0.00  0.00    +0.000 OA
ATOM      2  C   UNL     1       4.385   5.614  19.315  0.00  0.00    +0.000 C 
ATOM      3  N   UNL     1       4.391   5.869  17.970  0.00  0.00    +0.000 N 
ATOM      4  CA  UNL     1       5.132   5.001  17.046  0.00  0.00    +0.000 C 
ATOM      5  C   UNL     1       4.166   4.116  16.243  0.00  0.00    +0.000 C 
ATOM      6  C   UNL     1       3.309   3.198  17.132  0.00  0.00    +0.000 C 
ATOM      7  C   UNL     1       1.987   3.850  17.553  0.00  0.00    +0.000 C 
ATOM      8  C   UNL     1       1.374   3.220  18.803  0.00  0.00    +0.000 C 
ATOM      9  C   UNL     1       1.212   4.151  20.014  0.00  0.00    +0.000 C 
ATOM     10  C   UNL     1       2.496   4.699  20.663  0.00  0.00    +0.000 C 
ATOM     11  C   UNL     1       3.142   6.009  20.119  0.00  0.00    +0.000 C 
ATOM     12  H   UNL     1       3.699   6.495  17.573  0.00  0.00    +0.000 HD
ENDROOT
BRANCH   4  13
ATOM     13  C   UNL     1       6.034   5.843  16.137  0.00  0.00    +0.000 C 
ATOM     14  O   UNL     1       7.253   5.796  16.122  0.00  0.00    +0.000 OA
BRANCH  13  15
ATOM     15  OXT UNL     1       5.339   6.746  15.399  0.00  0.00    +0.000 OA
ATOM     16  HXT UNL     1       5.820   7.598  15.380  0.00  0.00    +0.000 HD
ENDBRANCH  13  15
ENDBRANCH   4  13
BRANCH  11  17
ATOM     17  C   UNL     1       2.133   6.991  19.509  0.00  0.00    +0.000 C 
BRANCH  17  18
ATOM     18  S   UNL     1       1.396   8.150  20.701  0.00  0.00    +0.000 S 
ATOM     19  H   UNL     1       1.636   9.271  20.007  0.00  0.00    +0.000 HD
ENDBRANCH  17  18
ENDBRANCH  11  17
TORSDOF 4
ENDMDL
MODEL 5
REMARK VINA RESULT:      -6.0      3.456      5.087
REMARK  Name = 
REMARK  4 active torsions:
REMARK  status: ('A' for Active; 'I' for Inactive)
REMARK    1  A    between atoms: CA_4  and  C_5
REMARK    2  A    between atoms: C_5  and  OXT_7
REMARK    3  A    between atoms: C_14  and  C_15
REMARK    4  A    between atoms: C_15  and  S_16
REMARK                            x       y       z     vdW  Elec       q    Type
REMARK                         _______ _______ _______ _____ _____    ______ ____
ROOT
ATOM      1  O   UNL     1       8.269   4.184  17.179  0.00  0.00    +0.000 OA
ATOM      2  C   UNL     1       7.646   5.229  17.007  0.00  0.00    +0.000 C 
ATOM      3  N   UNL     1       7.146   5.559  15.775  0.00  0.00    +0.000 N 
ATOM      4  CA  UNL     1       6.802   4.513  14.803  0.00  0.00    +0.000 C 
ATOM      5  C   UNL     1       5.277   4.359  14.692  0.00  0.00    +0.000 C 
ATOM      6  C   UNL     1       4.611   3.970  16.023  0.00  0.00    +0.000 C 
ATOM      7  C   UNL     1       4.190   5.189  16.851  0.00  0.00    +0.000 C 
ATOM      8  C   UNL     1       4.017   4.880  18.338  0.00  0.00    +0.000 C 
ATOM      9  C   UNL     1       4.946   5.642  19.295  0.00  0.00    +0.000 C 
ATOM     10  C   UNL     1       6.455   5.356  19.195  0.00  0.00    +0.000 C 
ATOM     11  C   UNL     1       7.331   6.158  18.184  0.00  0.00    +0.000 C 
ATOM     12  H   UNL     1       6.779   6.489  15.613  0.00  0.00    +0.000 HD
ENDROOT
BRANCH   4  13
ATOM     13  C   UNL     1       7.451   4.816  13.448  0.00  0.00    +0.000 C 
ATOM     14  O   UNL     1       8.286   5.683  13.250  0.00  0.00    +0.000 OA
BRANCH  13  15
ATOM     15  OXT UNL     1       6.924   4.080  12.437  0.00  0.00    +0.000 OA
ATOM     16  HXT UNL     1       6.581   3.232  12.789  0.00  0.00    +0.000 HD
ENDBRANCH  13  15
ENDBRANCH   4  13
BRANCH  11  17
ATOM     17  C   UNL     1       6.816   7.577  17.907  0.00  0.00    +0.000 C 
BRANCH  17  18
ATOM     18  S   UNL     1       8.109   8.856  17.896  0.00  0.00    +0.000 S 
ATOM     19  H   UNL     1       7.685   9.523  18.979  0.00  0.00    +0.000 HD
ENDBRANCH  17  18
ENDBRANCH  11  17
TORSDOF 4
ENDMDL
MODEL 6
REMARK VINA RESULT:      -6.0      2.482      3.105
REMARK  Name = 
REMARK  4 active torsions:
REMARK  status: ('A' for Active; 'I' for Inactive)
REMARK    1  A    between atoms: CA_4  and  C_5
REMARK    2  A    between atoms: C_5  and  OXT_7
REMARK    3  A    between atoms: C_14  and  C_15
REMARK    4  A    between atoms: C_15  and  S_16
REMARK                            x       y       z     vdW  Elec       q    Type
REMARK                         _______ _______ _______ _____ _____    ______ ____
ROOT
ATOM      1  O   UNL     1       2.692   6.296  19.400  0.00  0.00    +0.000 OA
ATOM      2  C   UNL     1       3.687   5.576  19.445  0.00  0.00    +0.000 C 
ATOM      3  N   UNL     1       3.607   4.290  19.910  0.00  0.00    +0.000 N 
ATOM      4  CA  UNL     1       2.350   3.536  19.814  0.00  0.00    +0.000 C 
ATOM      5  C   UNL     1       2.442   2.471  18.709  0.00  0.00    +0.000 C 
ATOM      6  C   UNL     1       2.714   3.067  17.317  0.00  0.00    +0.000 C 
ATOM      7  C   UNL     1       4.211   3.179  17.005  0.00  0.00    +0.000 C 
ATOM      8  C   UNL     1       4.526   4.201  15.913  0.00  0.00    +0.000 C 
ATOM      9  C   UNL     1       5.415   5.381  16.335  0.00  0.00    +0.000 C 
ATOM     10  C   UNL     1       4.847   6.358  17.380  0.00  0.00    +0.000 C 
ATOM     11  C   UNL     1       5.033   6.063  18.900  0.00  0.00    +0.000 C 
ATOM     12  H   UNL     1       4.455   3.767  20.091  0.00  0.00    +0.000 HD
ENDROOT
BRANCH   4  13
ATOM     13  C   UNL     1       1.993   2.927  21.174  0.00  0.00    +0.000 C 
ATOM     14  O   UNL     1       2.802   2.535  22.000  0.00  0.00    +0.000 OA
BRANCH  13  15
ATOM     15  OXT UNL     1       0.657   2.764  21.342  0.00  0.00    +0.000 OA
ATOM     16  HXT UNL     1       0.456   1.818  21.503  0.00  0.00    +0.000 HD
ENDBRANCH  13  15
ENDBRANCH   4  13
BRANCH  11  17
ATOM     17  C   UNL     1       6.307   5.273  19.227  0.00  0.00    +0.000 C 
BRANCH  17  18
ATOM     18  S   UNL     1       7.854   6.168  18.891  0.00  0.00    +0.000 S 
ATOM     19  H   UNL     1       8.571   5.634  19.889  0.00  0.00    +0.000 HD
ENDBRANCH  17  18
ENDBRANCH  11  17
TORSDOF 4
ENDMDL
MODEL 7
REMARK VINA RESULT:      -5.9      2.860      4.237
REMARK  Name = 
REMARK  4 active torsions:
REMARK  status: ('A' for Active; 'I' for Inactive)
REMARK    1  A    between atoms: CA_4  and  C_5
REMARK    2  A    between atoms: C_5  and  OXT_7
REMARK    3  A    between atoms: C_14  and  C_15
REMARK    4  A    between atoms: C_15  and  S_16
REMARK                            x       y       z     vdW  Elec       q    Type
REMARK                         _______ _______ _______ _____ _____    ______ ____
ROOT
ATOM      1  O   UNL     1       5.130   5.212  19.694  0.00  0.00    +0.000 OA
ATOM      2  C   UNL     1       4.162   5.506  18.995  0.00  0.00    +0.000 C 
ATOM      3  N   UNL     1       4.097   5.122  17.683  0.00  0.00    +0.000 N 
ATOM      4  CA  UNL     1       4.804   3.921  17.218  0.00  0.00    +0.000 C 
ATOM      5  C   UNL     1       3.811   2.777  16.956  0.00  0.00    +0.000 C 
ATOM      6  C   UNL     1       3.013   2.372  18.207  0.00  0.00    +0.000 C 
ATOM      7  C   UNL     1       1.705   3.157  18.353  0.00  0.00    +0.000 C 
ATOM      8  C   UNL     1       1.164   3.171  19.782  0.00  0.00    +0.000 C 
ATOM      9  C   UNL     1       1.050   4.553  20.444  0.00  0.00    +0.000 C 
ATOM     10  C   UNL     1       2.356   5.322  20.706  0.00  0.00    +0.000 C 
ATOM     11  C   UNL     1       2.956   6.236  19.594  0.00  0.00    +0.000 C 
ATOM     12  H   UNL     1       3.378   5.505  17.081  0.00  0.00    +0.000 HD
ENDROOT
BRANCH   4  13
ATOM     13  C   UNL     1       5.647   4.248  15.981  0.00  0.00    +0.000 C 
ATOM     14  O   UNL     1       5.693   5.338  15.433  0.00  0.00    +0.000 OA
BRANCH  13  15
ATOM     15  OXT UNL     1       6.277   3.159  15.472  0.00  0.00    +0.000 OA
ATOM     16  HXT UNL     1       6.414   3.276  14.509  0.00  0.00    +0.000 HD
ENDBRANCH  13  15
ENDBRANCH   4  13
BRANCH  11  17
ATOM     17  C   UNL     1       1.903   6.843  18.656  0.00  0.00    +0.000 C 
BRANCH  17  18
ATOM     18  S   UNL     1       2.339   8.481  17.996  0.00  0.00    +0.000 S 
ATOM     19  H   UNL     1       3.473   8.639  18.692  0.00  0.00    +0.000 HD
ENDBRANCH  17  18
ENDBRANCH  11  17
TORSDOF 4
ENDMDL
MODEL 8
REMARK VINA RESULT:      -5.8      1.395      1.638
REMARK  Name = 
REMARK  4 active torsions:
REMARK  status: ('A' for Active; 'I' for Inactive)
REMARK    1  A    between atoms: CA_4  and  C_5
REMARK    2  A    between atoms: C_5  and  OXT_7
REMARK    3  A    between atoms: C_14  and  C_15
REMARK    4  A    between atoms: C_15  and  S_16
REMARK                            x       y       z     vdW  Elec       q    Type
REMARK                         _______ _______ _______ _____ _____    ______ ____
ROOT
ATOM      1  O   UNL     1       5.982   4.179  19.019  0.00  0.00    +0.000 OA
ATOM      2  C   UNL     1       5.374   4.265  17.954  0.00  0.00    +0.000 C 
ATOM      3  N   UNL     1       4.224   3.555  17.739  0.00  0.00    +0.000 N 
ATOM      4  CA  UNL     1       3.367   3.157  18.864  0.00  0.00    +0.000 C 
ATOM      5  C   UNL     1       2.093   4.015  18.902  0.00  0.00    +0.000 C 
ATOM      6  C   UNL     1       2.381   5.518  19.067  0.00  0.00    +0.000 C 
ATOM      7  C   UNL     1       2.542   6.239  17.725  0.00  0.00    +0.000 C 
ATOM      8  C   UNL     1       3.315   7.553  17.833  0.00  0.00    +0.000 C 
ATOM      9  C   UNL     1       4.628   7.627  17.039  0.00  0.00    +0.000 C 
ATOM     10  C   UNL     1       5.765   6.679  17.460  0.00  0.00    +0.000 C 
ATOM     11  C   UNL     1       5.835   5.239  16.865  0.00  0.00    +0.000 C 
ATOM     12  H   UNL     1       3.826   3.511  16.808  0.00  0.00    +0.000 HD
ENDROOT
BRANCH   4  13
ATOM     13  C   UNL     1       3.052   1.659  18.785  0.00  0.00    +0.000 C 
ATOM     14  O   UNL     1       3.875   0.780  18.589  0.00  0.00    +0.000 OA
BRANCH  13  15
ATOM     15  OXT UNL     1       1.722   1.399  18.855  0.00  0.00    +0.000 OA
ATOM     16  HXT UNL     1       1.234   2.222  19.061  0.00  0.00    +0.000 HD
ENDBRANCH  13  15
ENDBRANCH   4  13
BRANCH  11  17
ATOM     17  C   UNL     1       5.245   5.122  15.453  0.00  0.00    +0.000 C 
BRANCH  17  18
ATOM     18  S   UNL     1       6.214   4.085  14.317  0.00  0.00    +0.000 S 
ATOM     19  H   UNL     1       6.827   3.347  15.253  0.00  0.00    +0.000 HD
ENDBRANCH  17  18
ENDBRANCH  11  17
TORSDOF 4
ENDMDL
MODEL 9
REMARK VINA RESULT:      -5.8      2.791      4.577
REMARK  Name = 
REMARK  4 active torsions:
REMARK  status: ('A' for Active; 'I' for Inactive)
REMARK    1  A    between atoms: CA_4  and  C_5
REMARK    2  A    between atoms: C_5  and  OXT_7
REMARK    3  A    between atoms: C_14  and  C_15
REMARK    4  A    between atoms: C_15  and  S_16
REMARK                            x       y       z     vdW  Elec       q    Type
REMARK                         _______ _______ _______ _____ _____    ______ ____
ROOT
ATOM      1  O   UNL     1       2.352   2.712  17.080  0.00  0.00    +0.000 OA
ATOM      2  C   UNL     1       3.060   2.932  18.060  0.00  0.00    +0.000 C 
ATOM      3  N   UNL     1       4.276   3.547  17.928  0.00  0.00    +0.000 N 
ATOM      4  CA  UNL     1       4.534   4.464  16.810  0.00  0.00    +0.000 C 
ATOM      5  C   UNL     1       4.548   5.921  17.299  0.00  0.00    +0.000 C 
ATOM      6  C   UNL     1       3.217   6.356  17.938  0.00  0.00    +0.000 C 
ATOM      7  C   UNL     1       3.175   6.098  19.448  0.00  0.00    +0.000 C 
ATOM      8  C   UNL     1       1.756   6.023  20.010  0.00  0.00    +0.000 C 
ATOM      9  C   UNL     1       1.358   4.685  20.652  0.00  0.00    +0.000 C 
ATOM     10  C   UNL     1       1.286   3.453  19.734  0.00  0.00    +0.000 C 
ATOM     11  C   UNL     1       2.567   2.604  19.473  0.00  0.00    +0.000 C 
ATOM     12  H   UNL     1       4.915   3.575  18.715  0.00  0.00    +0.000 HD
ENDROOT
BRANCH   4  13
ATOM     13  C   UNL     1       5.838   4.082  16.102  0.00  0.00    +0.000 C 
ATOM     14  O   UNL     1       5.923   3.713  14.942  0.00  0.00    +0.000 OA
BRANCH  13  15
ATOM     15  OXT UNL     1       6.910   4.093  16.934  0.00  0.00    +0.000 OA
ATOM     16  HXT UNL     1       7.414   4.924  16.814  0.00  0.00    +0.000 HD
ENDBRANCH  13  15
ENDBRANCH   4  13
BRANCH  11  17
ATOM     17  C   UNL     1       3.565   2.613  20.639  0.00  0.00    +0.000 C 
BRANCH  17  18
ATOM     18  S   UNL     1       4.845   1.324  20.543  0.00  0.00    +0.000 S 
ATOM     19  H   UNL     1       5.277   1.432  21.807  0.00  0.00    +0.000 HD
ENDBRANCH  17  18
ENDBRANCH  11  17
TORSDOF 4
ENDMDL
