MODEL 1
REMARK VINA RESULT:      -7.6      0.000      0.000
REMARK  Name = 
REMARK  10 active torsions:
REMARK  status: ('A' for Active; 'I' for Inactive)
REMARK    1  A    between atoms: C_1  and  O_2
REMARK    2  A    between atoms: O_2  and  C_3
REMARK    3  A    between atoms: C_6  and  C_7
REMARK    4  A    between atoms: C_12  and  O_13
REMARK    5  A    between atoms: O_13  and  C_14
REMARK    6  A    between atoms: N_19  and  C_20
REMARK    7  A    between atoms: C_23  and  O_24
REMARK    8  A    between atoms: O_24  and  C_25
REMARK    9  A    between atoms: C_25  and  C_26
REMARK   10  A    between atoms: C_26  and  N_27
REMARK                            x       y       z     vdW  Elec       q    Type
REMARK                         _______ _______ _______ _____ _____    ______ ____
ROOT
ATOM      1  C   UNL     1      -1.663  11.593  19.463  0.00  0.00    +0.000 A 
ATOM      2  C   UNL     1      -2.549  12.369  20.110  0.00  0.00    +0.000 A 
ATOM      3  C   UNL     1      -2.142  13.072  21.323  0.00  0.00    +0.000 A 
ATOM      4  C   UNL     1      -3.078  13.678  22.158  0.00  0.00    +0.000 A 
ATOM      5  C   UNL     1      -2.659  14.305  23.336  0.00  0.00    +0.000 A 
ATOM      6  C   UNL     1      -1.302  14.363  23.673  0.00  0.00    +0.000 A 
ATOM      7  C   UNL     1      -0.365  13.794  22.822  0.00  0.00    +0.000 A 
ATOM      8  C   UNL     1      -0.789  13.132  21.660  0.00  0.00    +0.000 A 
ATOM      9  C   UNL     1       0.198  12.375  20.847  0.00  0.00    +0.000 A 
ATOM     10  O   UNL     1       1.392  12.497  21.117  0.00  0.00    +0.000 OA
ATOM     11  N   UNL     1      -0.329  11.510  19.867  0.00  0.00    +0.000 N 
ENDROOT
BRANCH   1  15
ATOM     12  C   UNL     1      -3.262  10.172  15.742  0.00  0.00    +0.000 A 
ATOM     13  C   UNL     1      -2.619  11.406  15.825  0.00  0.00    +0.000 A 
ATOM     14  C   UNL     1      -2.039  11.823  17.026  0.00  0.00    +0.000 A 
ATOM     15  C   UNL     1      -2.108  11.016  18.172  0.00  0.00    +0.000 A 
ATOM     16  C   UNL     1      -2.734   9.767  18.076  0.00  0.00    +0.000 A 
ATOM     17  C   UNL     1      -3.303   9.345  16.864  0.00  0.00    +0.000 A 
BRANCH  12  19
ATOM     18  C   UNL     1      -2.989   9.663  13.435  0.00  0.00    +0.000 C 
ATOM     19  O   UNL     1      -3.854   9.927  14.531  0.00  0.00    +0.000 OA
ENDBRANCH  12  19
ENDBRANCH   1  15
BRANCH  11  20
ATOM     20  C   UNL     1       0.506  10.423  19.485  0.00  0.00    +0.000 A 
ATOM     21  C   UNL     1       0.681   9.363  20.383  0.00  0.00    +0.000 A 
ATOM     22  C   UNL     1       1.534   8.309  20.061  0.00  0.00    +0.000 A 
ATOM     23  C   UNL     1       2.159   8.266  18.811  0.00  0.00    +0.000 A 
ATOM     24  C   UNL     1       2.042   9.358  17.950  0.00  0.00    +0.000 A 
ATOM     25  C   UNL     1       1.232  10.446  18.294  0.00  0.00    +0.000 A 
BRANCH  23  26
ATOM     26  O   UNL     1       2.880   7.192  18.342  0.00  0.00    +0.000 OA
BRANCH  26  27
ATOM     27  C   UNL     1       2.393   5.927  18.814  0.00  0.00    +0.000 C 
BRANCH  27  28
ATOM     28  C   UNL     1       2.866   4.766  17.924  0.00  0.00    +0.000 C 
BRANCH  28  29
ATOM     29  N   UNL     1       2.938   3.495  18.678  0.00  0.00    +0.000 NA
ATOM     30  C   UNL     1       2.061   2.460  18.114  0.00  0.00    +0.000 C 
ATOM     31  C   UNL     1       0.823   2.455  18.989  0.00  0.00    +0.000 C 
ATOM     32  C   UNL     1       1.386   2.726  20.365  0.00  0.00    +0.000 C 
ATOM     33  C   UNL     1       2.564   3.648  20.099  0.00  0.00    +0.000 C 
ENDBRANCH  28  29
ENDBRANCH  27  28
ENDBRANCH  26  27
ENDBRANCH  23  26
ENDBRANCH  11  20
BRANCH   6  34
ATOM     34  O   UNL     1      -1.038  14.968  24.872  0.00  0.00    +0.000 OA
ATOM     35  C   UNL     1      -0.535  16.299  24.829  0.00  0.00    +0.000 C 
ENDBRANCH   6  34
TORSDOF 8
ENDMDL
MODEL 2
REMARK VINA RESULT:      -7.5      0.706      1.227
REMARK  Name = 
REMARK  10 active torsions:
REMARK  status: ('A' for Active; 'I' for Inactive)
REMARK    1  A    between atoms: C_1  and  O_2
REMARK    2  A    between atoms: O_2  and  C_3
REMARK    3  A    between atoms: C_6  and  C_7
REMARK    4  A    between atoms: C_12  and  O_13
REMARK    5  A    between atoms: O_13  and  C_14
REMARK    6  A    between atoms: N_19  and  C_20
REMARK    7  A    between atoms: C_23  and  O_24
REMARK    8  A    between atoms: O_24  and  C_25
REMARK    9  A    between atoms: C_25  and  C_26
REMARK   10  A    between atoms: C_26  and  N_27
REMARK                            x       y       z     vdW  Elec       q    Type
REMARK                         _______ _______ _______ _____ _____    ______ ____
ROOT
ATOM      1  C   UNL     1      -1.839  11.658  19.633  0.00  0.00    +0.000 A 
ATOM      2  C   UNL     1      -2.748  12.432  20.250  0.00  0.00    +0.000 A 
ATOM      3  C   UNL     1      -2.377  13.146  21.469  0.00  0.00    +0.000 A 
ATOM      4  C   UNL     1      -3.338  13.752  22.274  0.00  0.00    +0.000 A 
ATOM      5  C   UNL     1      -2.955  14.390  23.459  0.00  0.00    +0.000 A 
ATOM      6  C   UNL     1      -1.608  14.458  23.832  0.00  0.00    +0.000 A 
ATOM      7  C   UNL     1      -0.645  13.889  23.010  0.00  0.00    +0.000 A 
ATOM      8  C   UNL     1      -1.034  13.217  21.841  0.00  0.00    +0.000 A 
ATOM      9  C   UNL     1      -0.021  12.460  21.060  0.00  0.00    +0.000 A 
ATOM     10  O   UNL     1       1.165  12.592  21.361  0.00  0.00    +0.000 OA
ATOM     11  N   UNL     1      -0.516  11.586  20.073  0.00  0.00    +0.000 N 
ENDROOT
BRANCH   1  15
ATOM     12  C   UNL     1      -3.326  10.205  15.877  0.00  0.00    +0.000 A 
ATOM     13  C   UNL     1      -2.676  11.434  15.968  0.00  0.00    +0.000 A 
ATOM     14  C   UNL     1      -2.132  11.862  17.182  0.00  0.00    +0.000 A 
ATOM     15  C   UNL     1      -2.247  11.068  18.335  0.00  0.00    +0.000 A 
ATOM     16  C   UNL     1      -2.880   9.824  18.233  0.00  0.00    +0.000 A 
ATOM     17  C   UNL     1      -3.411   9.392  17.007  0.00  0.00    +0.000 A 
BRANCH  12  19
ATOM     18  C   UNL     1      -2.980   9.757  13.567  0.00  0.00    +0.000 C 
ATOM     19  O   UNL     1      -3.879   9.951  14.650  0.00  0.00    +0.000 OA
ENDBRANCH  12  19
ENDBRANCH   1  15
BRANCH  11  20
ATOM     20  C   UNL     1       0.336  10.502  19.721  0.00  0.00    +0.000 A 
ATOM     21  C   UNL     1       0.973  10.526  18.475  0.00  0.00    +0.000 A 
ATOM     22  C   UNL     1       1.773   9.454  18.079  0.00  0.00    +0.000 A 
ATOM     23  C   UNL     1       2.003   8.387  18.953  0.00  0.00    +0.000 A 
ATOM     24  C   UNL     1       1.308   8.330  20.162  0.00  0.00    +0.000 A 
ATOM     25  C   UNL     1       0.459   9.377  20.538  0.00  0.00    +0.000 A 
BRANCH  23  26
ATOM     26  O   UNL     1       2.903   7.374  18.717  0.00  0.00    +0.000 OA
BRANCH  26  27
ATOM     27  C   UNL     1       2.725   6.240  19.579  0.00  0.00    +0.000 C 
BRANCH  27  28
ATOM     28  C   UNL     1       3.665   5.084  19.202  0.00  0.00    +0.000 C 
BRANCH  28  29
ATOM     29  N   UNL     1       3.148   4.314  18.050  0.00  0.00    +0.000 NA
ATOM     30  C   UNL     1       1.754   3.887  18.242  0.00  0.00    +0.000 C 
ATOM     31  C   UNL     1       1.828   2.438  18.678  0.00  0.00    +0.000 C 
ATOM     32  C   UNL     1       2.993   1.907  17.873  0.00  0.00    +0.000 C 
ATOM     33  C   UNL     1       3.935   3.095  17.773  0.00  0.00    +0.000 C 
ENDBRANCH  28  29
ENDBRANCH  27  28
ENDBRANCH  26  27
ENDBRANCH  23  26
ENDBRANCH  11  20
BRANCH   6  34
ATOM     34  O   UNL     1      -1.380  15.073  25.033  0.00  0.00    +0.000 OA
ATOM     35  C   UNL     1      -2.096  16.275  25.292  0.00  0.00    +0.000 C 
ENDBRANCH   6  34
TORSDOF 8
ENDMDL
MODEL 3
REMARK VINA RESULT:      -7.4      3.082      3.950
REMARK  Name = 
REMARK  10 active torsions:
REMARK  status: ('A' for Active; 'I' for Inactive)
REMARK    1  A    between atoms: C_1  and  O_2
REMARK    2  A    between atoms: O_2  and  C_3
REMARK    3  A    between atoms: C_6  and  C_7
REMARK    4  A    between atoms: C_12  and  O_13
REMARK    5  A    between atoms: O_13  and  C_14
REMARK    6  A    between atoms: N_19  and  C_20
REMARK    7  A    between atoms: C_23  and  O_24
REMARK    8  A    between atoms: O_24  and  C_25
REMARK    9  A    between atoms: C_25  and  C_26
REMARK   10  A    between atoms: C_26  and  N_27
REMARK                            x       y       z     vdW  Elec       q    Type
REMARK                         _______ _______ _______ _____ _____    ______ ____
ROOT
ATOM      1  C   UNL     1      -0.268  13.106  18.863  0.00  0.00    +0.000 A 
ATOM      2  C   UNL     1      -0.297  14.445  18.753  0.00  0.00    +0.000 A 
ATOM      3  C   UNL     1       0.957  15.190  18.678  0.00  0.00    +0.000 A 
ATOM      4  C   UNL     1       0.986  16.575  18.815  0.00  0.00    +0.000 A 
ATOM      5  C   UNL     1       2.209  17.254  18.783  0.00  0.00    +0.000 A 
ATOM      6  C   UNL     1       3.408  16.561  18.580  0.00  0.00    +0.000 A 
ATOM      7  C   UNL     1       3.376  15.184  18.404  0.00  0.00    +0.000 A 
ATOM      8  C   UNL     1       2.153  14.500  18.474  0.00  0.00    +0.000 A 
ATOM      9  C   UNL     1       2.144  13.014  18.461  0.00  0.00    +0.000 A 
ATOM     10  O   UNL     1       3.195  12.426  18.209  0.00  0.00    +0.000 OA
ATOM     11  N   UNL     1       0.930  12.392  18.816  0.00  0.00    +0.000 N 
ENDROOT
BRANCH   1  15
ATOM     12  C   UNL     1      -4.157  11.349  18.404  0.00  0.00    +0.000 A 
ATOM     13  C   UNL     1      -3.154  11.133  17.461  0.00  0.00    +0.000 A 
ATOM     14  C   UNL     1      -1.871  11.650  17.660  0.00  0.00    +0.000 A 
ATOM     15  C   UNL     1      -1.576  12.411  18.803  0.00  0.00    +0.000 A 
ATOM     16  C   UNL     1      -2.582  12.603  19.759  0.00  0.00    +0.000 A 
ATOM     17  C   UNL     1      -3.865  12.069  19.562  0.00  0.00    +0.000 A 
BRANCH  12  19
ATOM     18  C   UNL     1      -6.459  11.781  17.989  0.00  0.00    +0.000 C 
ATOM     19  O   UNL     1      -5.383  10.854  18.043  0.00  0.00    +0.000 OA
ENDBRANCH  12  19
ENDBRANCH   1  15
BRANCH  11  20
ATOM     20  C   UNL     1       1.039  11.070  19.330  0.00  0.00    +0.000 A 
ATOM     21  C   UNL     1       0.890  10.870  20.707  0.00  0.00    +0.000 A 
ATOM     22  C   UNL     1       1.042   9.595  21.249  0.00  0.00    +0.000 A 
ATOM     23  C   UNL     1       1.268   8.497  20.412  0.00  0.00    +0.000 A 
ATOM     24  C   UNL     1       1.490   8.709  19.050  0.00  0.00    +0.000 A 
ATOM     25  C   UNL     1       1.395   9.997  18.511  0.00  0.00    +0.000 A 
BRANCH  23  26
ATOM     26  O   UNL     1       1.266   7.188  20.835  0.00  0.00    +0.000 OA
BRANCH  26  27
ATOM     27  C   UNL     1       2.112   6.334  20.052  0.00  0.00    +0.000 C 
BRANCH  27  28
ATOM     28  C   UNL     1       1.902   4.851  20.397  0.00  0.00    +0.000 C 
BRANCH  28  29
ATOM     29  N   UNL     1       1.301   4.108  19.268  0.00  0.00    +0.000 NA
ATOM     30  C   UNL     1       1.456   2.653  19.409  0.00  0.00    +0.000 C 
ATOM     31  C   UNL     1       2.626   2.281  18.520  0.00  0.00    +0.000 C 
ATOM     32  C   UNL     1       2.460   3.215  17.344  0.00  0.00    +0.000 C 
ATOM     33  C   UNL     1       1.882   4.477  17.962  0.00  0.00    +0.000 C 
ENDBRANCH  28  29
ENDBRANCH  27  28
ENDBRANCH  26  27
ENDBRANCH  23  26
ENDBRANCH  11  20
BRANCH   6  34
ATOM     34  O   UNL     1       4.531  17.342  18.614  0.00  0.00    +0.000 OA
ATOM     35  C   UNL     1       5.341  17.262  19.780  0.00  0.00    +0.000 C 
ENDBRANCH   6  34
TORSDOF 8
ENDMDL
MODEL 4
REMARK VINA RESULT:      -7.3      3.071      3.975
REMARK  Name = 
REMARK  10 active torsions:
REMARK  status: ('A' for Active; 'I' for Inactive)
REMARK    1  A    between atoms: C_1  and  O_2
REMARK    2  A    between atoms: O_2  and  C_3
REMARK    3  A    between atoms: C_6  and  C_7
REMARK    4  A    between atoms: C_12  and  O_13
REMARK    5  A    between atoms: O_13  and  C_14
REMARK    6  A    between atoms: N_19  and  C_20
REMARK    7  A    between atoms: C_23  and  O_24
REMARK    8  A    between atoms: O_24  and  C_25
REMARK    9  A    between atoms: C_25  and  C_26
REMARK   10  A    between atoms: C_26  and  N_27
REMARK                            x       y       z     vdW  Elec       q    Type
REMARK                         _______ _______ _______ _____ _____    ______ ____
ROOT
ATOM      1  C   UNL     1      -0.199  13.137  18.859  0.00  0.00    +0.000 A 
ATOM      2  C   UNL     1      -0.234  14.479  18.805  0.00  0.00    +0.000 A 
ATOM      3  C   UNL     1       1.015  15.230  18.730  0.00  0.00    +0.000 A 
ATOM      4  C   UNL     1       1.045  16.609  18.923  0.00  0.00    +0.000 A 
ATOM      5  C   UNL     1       2.264  17.293  18.890  0.00  0.00    +0.000 A 
ATOM      6  C   UNL     1       3.460  16.614  18.630  0.00  0.00    +0.000 A 
ATOM      7  C   UNL     1       3.427  15.245  18.398  0.00  0.00    +0.000 A 
ATOM      8  C   UNL     1       2.208  14.554  18.470  0.00  0.00    +0.000 A 
ATOM      9  C   UNL     1       2.203  13.070  18.396  0.00  0.00    +0.000 A 
ATOM     10  O   UNL     1       3.249  12.497  18.095  0.00  0.00    +0.000 OA
ATOM     11  N   UNL     1       1.000  12.429  18.754  0.00  0.00    +0.000 N 
ENDROOT
BRANCH   1  15
ATOM     12  C   UNL     1      -4.093  11.384  18.420  0.00  0.00    +0.000 A 
ATOM     13  C   UNL     1      -3.109  11.205  17.450  0.00  0.00    +0.000 A 
ATOM     14  C   UNL     1      -1.823  11.719  17.639  0.00  0.00    +0.000 A 
ATOM     15  C   UNL     1      -1.506  12.439  18.802  0.00  0.00    +0.000 A 
ATOM     16  C   UNL     1      -2.491  12.594  19.785  0.00  0.00    +0.000 A 
ATOM     17  C   UNL     1      -3.777  12.063  19.597  0.00  0.00    +0.000 A 
BRANCH  12  19
ATOM     18  C   UNL     1      -6.305  11.852  17.682  0.00  0.00    +0.000 C 
ATOM     19  O   UNL     1      -5.325  10.899  18.069  0.00  0.00    +0.000 OA
ENDBRANCH  12  19
ENDBRANCH   1  15
BRANCH  11  20
ATOM     20  C   UNL     1       1.124  11.087  19.211  0.00  0.00    +0.000 A 
ATOM     21  C   UNL     1       1.469  10.093  18.287  0.00  0.00    +0.000 A 
ATOM     22  C   UNL     1       1.547   8.761  18.692  0.00  0.00    +0.000 A 
ATOM     23  C   UNL     1       1.357   8.421  20.035  0.00  0.00    +0.000 A 
ATOM     24  C   UNL     1       0.941   9.402  20.937  0.00  0.00    +0.000 A 
ATOM     25  C   UNL     1       0.805  10.731  20.521  0.00  0.00    +0.000 A 
BRANCH  23  26
ATOM     26  O   UNL     1       1.577   7.166  20.555  0.00  0.00    +0.000 OA
BRANCH  26  27
ATOM     27  C   UNL     1       2.362   6.324  19.699  0.00  0.00    +0.000 C 
BRANCH  27  28
ATOM     28  C   UNL     1       2.279   4.848  20.121  0.00  0.00    +0.000 C 
BRANCH  28  29
ATOM     29  N   UNL     1       3.299   4.026  19.432  0.00  0.00    +0.000 NA
ATOM     30  C   UNL     1       3.428   4.370  18.009  0.00  0.00    +0.000 C 
ATOM     31  C   UNL     1       2.638   3.314  17.262  0.00  0.00    +0.000 C 
ATOM     32  C   UNL     1       2.899   2.066  18.074  0.00  0.00    +0.000 C 
ATOM     33  C   UNL     1       3.012   2.579  19.500  0.00  0.00    +0.000 C 
ENDBRANCH  28  29
ENDBRANCH  27  28
ENDBRANCH  26  27
ENDBRANCH  23  26
ENDBRANCH  11  20
BRANCH   6  34
ATOM     34  O   UNL     1       4.581  17.397  18.668  0.00  0.00    +0.000 OA
ATOM     35  C   UNL     1       5.324  17.405  19.882  0.00  0.00    +0.000 C 
ENDBRANCH   6  34
TORSDOF 8
ENDMDL
MODEL 5
REMARK VINA RESULT:      -7.2      1.860      2.366
REMARK  Name = 
REMARK  10 active torsions:
REMARK  status: ('A' for Active; 'I' for Inactive)
REMARK    1  A    between atoms: C_1  and  O_2
REMARK    2  A    between atoms: O_2  and  C_3
REMARK    3  A    between atoms: C_6  and  C_7
REMARK    4  A    between atoms: C_12  and  O_13
REMARK    5  A    between atoms: O_13  and  C_14
REMARK    6  A    between atoms: N_19  and  C_20
REMARK    7  A    between atoms: C_23  and  O_24
REMARK    8  A    between atoms: O_24  and  C_25
REMARK    9  A    between atoms: C_25  and  C_26
REMARK   10  A    between atoms: C_26  and  N_27
REMARK                            x       y       z     vdW  Elec       q    Type
REMARK                         _______ _______ _______ _____ _____    ______ ____
ROOT
ATOM      1  C   UNL     1      -1.674  11.575  19.485  0.00  0.00    +0.000 A 
ATOM      2  C   UNL     1      -2.522  12.406  20.116  0.00  0.00    +0.000 A 
ATOM      3  C   UNL     1      -2.077  13.119  21.310  0.00  0.00    +0.000 A 
ATOM      4  C   UNL     1      -2.980  13.787  22.133  0.00  0.00    +0.000 A 
ATOM      5  C   UNL     1      -2.528  14.422  23.294  0.00  0.00    +0.000 A 
ATOM      6  C   UNL     1      -1.169  14.426  23.626  0.00  0.00    +0.000 A 
ATOM      7  C   UNL     1      -0.262  13.794  22.785  0.00  0.00    +0.000 A 
ATOM      8  C   UNL     1      -0.721  13.124  21.641  0.00  0.00    +0.000 A 
ATOM      9  C   UNL     1       0.227  12.303  20.843  0.00  0.00    +0.000 A 
ATOM     10  O   UNL     1       1.426  12.377  21.106  0.00  0.00    +0.000 OA
ATOM     11  N   UNL     1      -0.344  11.441  19.886  0.00  0.00    +0.000 N 
ENDROOT
BRANCH   1  15
ATOM     12  C   UNL     1      -3.357  10.137  15.807  0.00  0.00    +0.000 A 
ATOM     13  C   UNL     1      -2.673  11.350  15.861  0.00  0.00    +0.000 A 
ATOM     14  C   UNL     1      -2.067  11.771  17.047  0.00  0.00    +0.000 A 
ATOM     15  C   UNL     1      -2.152  10.988  18.210  0.00  0.00    +0.000 A 
ATOM     16  C   UNL     1      -2.819   9.759  18.144  0.00  0.00    +0.000 A 
ATOM     17  C   UNL     1      -3.413   9.333  16.946  0.00  0.00    +0.000 A 
BRANCH  12  19
ATOM     18  C   UNL     1      -3.131   9.817  13.461  0.00  0.00    +0.000 C 
ATOM     19  O   UNL     1      -3.968   9.888  14.607  0.00  0.00    +0.000 OA
ENDBRANCH  12  19
ENDBRANCH   1  15
BRANCH  11  20
ATOM     20  C   UNL     1       0.439  10.308  19.528  0.00  0.00    +0.000 A 
ATOM     21  C   UNL     1       0.667   9.318  20.492  0.00  0.00    +0.000 A 
ATOM     22  C   UNL     1       1.473   8.221  20.188  0.00  0.00    +0.000 A 
ATOM     23  C   UNL     1       1.994   8.065  18.900  0.00  0.00    +0.000 A 
ATOM     24  C   UNL     1       1.827   9.089  17.966  0.00  0.00    +0.000 A 
ATOM     25  C   UNL     1       1.066  10.219  18.286  0.00  0.00    +0.000 A 
BRANCH  23  26
ATOM     26  O   UNL     1       2.656   6.941  18.464  0.00  0.00    +0.000 OA
BRANCH  26  27
ATOM     27  C   UNL     1       4.021   7.190  18.096  0.00  0.00    +0.000 C 
BRANCH  27  28
ATOM     28  C   UNL     1       4.762   5.890  17.744  0.00  0.00    +0.000 C 
BRANCH  28  29
ATOM     29  N   UNL     1       5.812   6.119  16.727  0.00  0.00    +0.000 NA
ATOM     30  C   UNL     1       5.290   6.037  15.355  0.00  0.00    +0.000 C 
ATOM     31  C   UNL     1       5.661   4.654  14.860  0.00  0.00    +0.000 C 
ATOM     32  C   UNL     1       7.017   4.428  15.488  0.00  0.00    +0.000 C 
ATOM     33  C   UNL     1       6.924   5.151  16.821  0.00  0.00    +0.000 C 
ENDBRANCH  28  29
ENDBRANCH  27  28
ENDBRANCH  26  27
ENDBRANCH  23  26
ENDBRANCH  11  20
BRANCH   6  34
ATOM     34  O   UNL     1      -0.871  15.047  24.809  0.00  0.00    +0.000 OA
ATOM     35  C   UNL     1      -0.695  16.458  24.773  0.00  0.00    +0.000 C 
ENDBRANCH   6  34
TORSDOF 8
ENDMDL
MODEL 6
REMARK VINA RESULT:      -7.1      2.976      3.726
REMARK  Name = 
REMARK  10 active torsions:
REMARK  status: ('A' for Active; 'I' for Inactive)
REMARK    1  A    between atoms: C_1  and  O_2
REMARK    2  A    between atoms: O_2  and  C_3
REMARK    3  A    between atoms: C_6  and  C_7
REMARK    4  A    between atoms: C_12  and  O_13
REMARK    5  A    between atoms: O_13  and  C_14
REMARK    6  A    between atoms: N_19  and  C_20
REMARK    7  A    between atoms: C_23  and  O_24
REMARK    8  A    between atoms: O_24  and  C_25
REMARK    9  A    between atoms: C_25  and  C_26
REMARK   10  A    between atoms: C_26  and  N_27
REMARK                            x       y       z     vdW  Elec       q    Type
REMARK                         _______ _______ _______ _____ _____    ______ ____
ROOT
ATOM      1  C   UNL     1      -0.346  13.380  19.120  0.00  0.00    +0.000 A 
ATOM      2  C   UNL     1      -0.478  14.714  19.214  0.00  0.00    +0.000 A 
ATOM      3  C   UNL     1       0.714  15.553  19.295  0.00  0.00    +0.000 A 
ATOM      4  C   UNL     1       0.631  16.899  19.642  0.00  0.00    +0.000 A 
ATOM      5  C   UNL     1       1.797  17.664  19.754  0.00  0.00    +0.000 A 
ATOM      6  C   UNL     1       3.050  17.103  19.488  0.00  0.00    +0.000 A 
ATOM      7  C   UNL     1       3.131  15.771  19.102  0.00  0.00    +0.000 A 
ATOM      8  C   UNL     1       1.965  14.995  19.028  0.00  0.00    +0.000 A 
ATOM      9  C   UNL     1       2.074  13.532  18.788  0.00  0.00    +0.000 A 
ATOM     10  O   UNL     1       3.173  13.071  18.484  0.00  0.00    +0.000 OA
ATOM     11  N   UNL     1       0.906  12.773  19.004  0.00  0.00    +0.000 N 
ENDROOT
BRANCH   1  15
ATOM     12  C   UNL     1      -4.060  11.413  18.250  0.00  0.00    +0.000 A 
ATOM     13  C   UNL     1      -2.988  11.352  17.362  0.00  0.00    +0.000 A 
ATOM     14  C   UNL     1      -1.761  11.934  17.691  0.00  0.00    +0.000 A 
ATOM     15  C   UNL     1      -1.593  12.606  18.912  0.00  0.00    +0.000 A 
ATOM     16  C   UNL     1      -2.667  12.643  19.811  0.00  0.00    +0.000 A 
ATOM     17  C   UNL     1      -3.893  12.043  19.482  0.00  0.00    +0.000 A 
BRANCH  12  19
ATOM     18  C   UNL     1      -6.273  10.664  18.699  0.00  0.00    +0.000 C 
ATOM     19  O   UNL     1      -5.222  10.872  17.766  0.00  0.00    +0.000 OA
ENDBRANCH  12  19
ENDBRANCH   1  15
BRANCH  11  20
ATOM     20  C   UNL     1       1.108  11.399  19.314  0.00  0.00    +0.000 A 
ATOM     21  C   UNL     1       1.479  10.527  18.284  0.00  0.00    +0.000 A 
ATOM     22  C   UNL     1       1.634   9.166  18.544  0.00  0.00    +0.000 A 
ATOM     23  C   UNL     1       1.493   8.678  19.847  0.00  0.00    +0.000 A 
ATOM     24  C   UNL     1       1.050   9.536  20.855  0.00  0.00    +0.000 A 
ATOM     25  C   UNL     1       0.838  10.892  20.585  0.00  0.00    +0.000 A 
BRANCH  23  26
ATOM     26  O   UNL     1       1.788   7.388  20.227  0.00  0.00    +0.000 OA
BRANCH  26  27
ATOM     27  C   UNL     1       2.672   6.714  19.320  0.00  0.00    +0.000 C 
BRANCH  27  28
ATOM     28  C   UNL     1       2.925   5.259  19.746  0.00  0.00    +0.000 C 
BRANCH  28  29
ATOM     29  N   UNL     1       1.879   4.349  19.229  0.00  0.00    +0.000 NA
ATOM     30  C   UNL     1       0.901   3.977  20.262  0.00  0.00    +0.000 C 
ATOM     31  C   UNL     1       1.315   2.599  20.736  0.00  0.00    +0.000 C 
ATOM     32  C   UNL     1       1.810   1.945  19.466  0.00  0.00    +0.000 C 
ATOM     33  C   UNL     1       2.429   3.091  18.686  0.00  0.00    +0.000 C 
ENDBRANCH  28  29
ENDBRANCH  27  28
ENDBRANCH  26  27
ENDBRANCH  23  26
ENDBRANCH  11  20
BRANCH   6  34
ATOM     34  O   UNL     1       4.107  17.951  19.677  0.00  0.00    +0.000 OA
ATOM     35  C   UNL     1       5.138  17.517  20.557  0.00  0.00    +0.000 C 
ENDBRANCH   6  34
TORSDOF 8
ENDMDL
MODEL 7
REMARK VINA RESULT:      -7.1      1.169      1.453
REMARK  Name = 
REMARK  10 active torsions:
REMARK  status: ('A' for Active; 'I' for Inactive)
REMARK    1  A    between atoms: C_1  and  O_2
REMARK    2  A    between atoms: O_2  and  C_3
REMARK    3  A    between atoms: C_6  and  C_7
REMARK    4  A    between atoms: C_12  and  O_13
REMARK    5  A    between atoms: O_13  and  C_14
REMARK    6  A    between atoms: N_19  and  C_20
REMARK    7  A    between atoms: C_23  and  O_24
REMARK    8  A    between atoms: O_24  and  C_25
REMARK    9  A    between atoms: C_25  and  C_26
REMARK   10  A    between atoms: C_26  and  N_27
REMARK                            x       y       z     vdW  Elec       q    Type
REMARK                         _______ _______ _______ _____ _____    ______ ____
ROOT
ATOM      1  C   UNL     1      -1.214  12.037  19.596  0.00  0.00    +0.000 A 
ATOM      2  C   UNL     1      -1.922  13.093  20.032  0.00  0.00    +0.000 A 
ATOM      3  C   UNL     1      -1.355  13.967  21.055  0.00  0.00    +0.000 A 
ATOM      4  C   UNL     1      -2.137  14.914  21.712  0.00  0.00    +0.000 A 
ATOM      5  C   UNL     1      -1.574  15.705  22.719  0.00  0.00    +0.000 A 
ATOM      6  C   UNL     1      -0.222  15.583  23.055  0.00  0.00    +0.000 A 
ATOM      7  C   UNL     1       0.568  14.667  22.373  0.00  0.00    +0.000 A 
ATOM      8  C   UNL     1      -0.006  13.847  21.389  0.00  0.00    +0.000 A 
ATOM      9  C   UNL     1       0.799  12.751  20.789  0.00  0.00    +0.000 A 
ATOM     10  O   UNL     1       2.002  12.706  21.041  0.00  0.00    +0.000 OA
ATOM     11  N   UNL     1       0.092  11.799  20.028  0.00  0.00    +0.000 N 
ENDROOT
BRANCH   1  15
ATOM     12  C   UNL     1      -3.188  10.100  16.313  0.00  0.00    +0.000 A 
ATOM     13  C   UNL     1      -2.442  11.261  16.121  0.00  0.00    +0.000 A 
ATOM     14  C   UNL     1      -1.745  11.841  17.184  0.00  0.00    +0.000 A 
ATOM     15  C   UNL     1      -1.797  11.272  18.467  0.00  0.00    +0.000 A 
ATOM     16  C   UNL     1      -2.528  10.091  18.649  0.00  0.00    +0.000 A 
ATOM     17  C   UNL     1      -3.214   9.504  17.574  0.00  0.00    +0.000 A 
BRANCH  12  19
ATOM     18  C   UNL     1      -3.376  10.093  13.942  0.00  0.00    +0.000 C 
ATOM     19  O   UNL     1      -3.883   9.688  15.206  0.00  0.00    +0.000 OA
ENDBRANCH  12  19
ENDBRANCH   1  15
BRANCH  11  20
ATOM     20  C   UNL     1       0.698  10.517  19.921  0.00  0.00    +0.000 A 
ATOM     21  C   UNL     1       1.256  10.138  18.695  0.00  0.00    +0.000 A 
ATOM     22  C   UNL     1       1.811   8.868  18.542  0.00  0.00    +0.000 A 
ATOM     23  C   UNL     1       1.882   7.995  19.633  0.00  0.00    +0.000 A 
ATOM     24  C   UNL     1       1.259   8.346  20.831  0.00  0.00    +0.000 A 
ATOM     25  C   UNL     1       0.650   9.599  20.971  0.00  0.00    +0.000 A 
BRANCH  23  26
ATOM     26  O   UNL     1       2.556   6.796  19.622  0.00  0.00    +0.000 OA
BRANCH  26  27
ATOM     27  C   UNL     1       3.009   6.407  18.317  0.00  0.00    +0.000 C 
BRANCH  27  28
ATOM     28  C   UNL     1       2.573   4.976  17.965  0.00  0.00    +0.000 C 
BRANCH  28  29
ATOM     29  N   UNL     1       3.718   4.039  17.974  0.00  0.00    +0.000 NA
ATOM     30  C   UNL     1       3.345   2.696  17.507  0.00  0.00    +0.000 C 
ATOM     31  C   UNL     1       3.160   1.866  18.762  0.00  0.00    +0.000 C 
ATOM     32  C   UNL     1       4.234   2.404  19.679  0.00  0.00    +0.000 C 
ATOM     33  C   UNL     1       4.317   3.877  19.314  0.00  0.00    +0.000 C 
ENDBRANCH  28  29
ENDBRANCH  27  28
ENDBRANCH  26  27
ENDBRANCH  23  26
ENDBRANCH  11  20
BRANCH   6  34
ATOM     34  O   UNL     1       0.186  16.387  24.085  0.00  0.00    +0.000 OA
ATOM     35  C   UNL     1      -0.635  16.417  25.247  0.00  0.00    +0.000 C 
ENDBRANCH   6  34
TORSDOF 8
ENDMDL
MODEL 8
REMARK VINA RESULT:      -7.1      3.106      4.092
REMARK  Name = 
REMARK  10 active torsions:
REMARK  status: ('A' for Active; 'I' for Inactive)
REMARK    1  A    between atoms: C_1  and  O_2
REMARK    2  A    between atoms: O_2  and  C_3
REMARK    3  A    between atoms: C_6  and  C_7
REMARK    4  A    between atoms: C_12  and  O_13
REMARK    5  A    between atoms: O_13  and  C_14
REMARK    6  A    between atoms: N_19  and  C_20
REMARK    7  A    between atoms: C_23  and  O_24
REMARK    8  A    between atoms: O_24  and  C_25
REMARK    9  A    between atoms: C_25  and  C_26
REMARK   10  A    between atoms: C_26  and  N_27
REMARK                            x       y       z     vdW  Elec       q    Type
REMARK                         _______ _______ _______ _____ _____    ______ ____
ROOT
ATOM      1  C   UNL     1      -0.242  13.149  18.837  0.00  0.00    +0.000 A 
ATOM      2  C   UNL     1      -0.308  14.491  18.828  0.00  0.00    +0.000 A 
ATOM      3  C   UNL     1       0.925  15.273  18.811  0.00  0.00    +0.000 A 
ATOM      4  C   UNL     1       0.917  16.645  19.052  0.00  0.00    +0.000 A 
ATOM      5  C   UNL     1       2.121  17.356  19.073  0.00  0.00    +0.000 A 
ATOM      6  C   UNL     1       3.338  16.714  18.820  0.00  0.00    +0.000 A 
ATOM      7  C   UNL     1       3.343  15.354  18.540  0.00  0.00    +0.000 A 
ATOM      8  C   UNL     1       2.139  14.633  18.558  0.00  0.00    +0.000 A 
ATOM      9  C   UNL     1       2.171  13.153  18.433  0.00  0.00    +0.000 A 
ATOM     10  O   UNL     1       3.238  12.615  18.139  0.00  0.00    +0.000 OA
ATOM     11  N   UNL     1       0.975  12.473  18.738  0.00  0.00    +0.000 N 
ENDROOT
BRANCH   1  15
ATOM     12  C   UNL     1      -4.084  11.327  18.245  0.00  0.00    +0.000 A 
ATOM     13  C   UNL     1      -3.079  11.218  17.286  0.00  0.00    +0.000 A 
ATOM     14  C   UNL     1      -1.810  11.753  17.523  0.00  0.00    +0.000 A 
ATOM     15  C   UNL     1      -1.531  12.424  18.724  0.00  0.00    +0.000 A 
ATOM     16  C   UNL     1      -2.537  12.510  19.695  0.00  0.00    +0.000 A 
ATOM     17  C   UNL     1      -3.806  11.958  19.458  0.00  0.00    +0.000 A 
BRANCH  12  19
ATOM     18  C   UNL     1      -6.406  11.718  17.907  0.00  0.00    +0.000 C 
ATOM     19  O   UNL     1      -5.297  10.830  17.848  0.00  0.00    +0.000 OA
ENDBRANCH  12  19
ENDBRANCH   1  15
BRANCH  11  20
ATOM     20  C   UNL     1       1.120  11.119  19.151  0.00  0.00    +0.000 A 
ATOM     21  C   UNL     1       1.470  10.159  18.195  0.00  0.00    +0.000 A 
ATOM     22  C   UNL     1       1.568   8.816  18.556  0.00  0.00    +0.000 A 
ATOM     23  C   UNL     1       1.393   8.432  19.889  0.00  0.00    +0.000 A 
ATOM     24  C   UNL     1       0.971   9.378  20.825  0.00  0.00    +0.000 A 
ATOM     25  C   UNL     1       0.815  10.718  20.453  0.00  0.00    +0.000 A 
BRANCH  23  26
ATOM     26  O   UNL     1       1.633   7.164  20.368  0.00  0.00    +0.000 OA
BRANCH  26  27
ATOM     27  C   UNL     1       2.699   6.488  19.685  0.00  0.00    +0.000 C 
BRANCH  27  28
ATOM     28  C   UNL     1       2.228   5.165  19.061  0.00  0.00    +0.000 C 
BRANCH  28  29
ATOM     29  N   UNL     1       3.035   4.803  17.875  0.00  0.00    +0.000 NA
ATOM     30  C   UNL     1       3.859   3.607  18.103  0.00  0.00    +0.000 C 
ATOM     31  C   UNL     1       5.251   4.123  18.407  0.00  0.00    +0.000 C 
ATOM     32  C   UNL     1       5.365   5.326  17.499  0.00  0.00    +0.000 C 
ATOM     33  C   UNL     1       3.952   5.881  17.453  0.00  0.00    +0.000 C 
ENDBRANCH  28  29
ENDBRANCH  27  28
ENDBRANCH  26  27
ENDBRANCH  23  26
ENDBRANCH  11  20
BRANCH   6  34
ATOM     34  O   UNL     1       4.439  17.521  18.914  0.00  0.00    +0.000 OA
ATOM     35  C   UNL     1       5.553  17.015  19.640  0.00  0.00    +0.000 C 
ENDBRANCH   6  34
TORSDOF 8
ENDMDL
MODEL 9
REMARK VINA RESULT:      -7.1      1.021      1.690
REMARK  Name = 
REMARK  10 active torsions:
REMARK  status: ('A' for Active; 'I' for Inactive)
REMARK    1  A    between atoms: C_1  and  O_2
REMARK    2  A    between atoms: O_2  and  C_3
REMARK    3  A    between atoms: C_6  and  C_7
REMARK    4  A    between atoms: C_12  and  O_13
REMARK    5  A    between atoms: O_13  and  C_14
REMARK    6  A    between atoms: N_19  and  C_20
REMARK    7  A    between atoms: C_23  and  O_24
REMARK    8  A    between atoms: O_24  and  C_25
REMARK    9  A    between atoms: C_25  and  C_26
REMARK   10  A    between atoms: C_26  and  N_27
REMARK                            x       y       z     vdW  Elec       q    Type
REMARK                         _______ _______ _______ _____ _____    ______ ____
ROOT
ATOM      1  C   UNL     1      -2.243  11.953  20.018  0.00  0.00    +0.000 A 
ATOM      2  C   UNL     1      -3.190  12.711  20.597  0.00  0.00    +0.000 A 
ATOM      3  C   UNL     1      -2.911  13.364  21.872  0.00  0.00    +0.000 A 
ATOM      4  C   UNL     1      -3.927  13.946  22.627  0.00  0.00    +0.000 A 
ATOM      5  C   UNL     1      -3.632  14.524  23.865  0.00  0.00    +0.000 A 
ATOM      6  C   UNL     1      -2.318  14.558  24.346  0.00  0.00    +0.000 A 
ATOM      7  C   UNL     1      -1.299  14.014  23.577  0.00  0.00    +0.000 A 
ATOM      8  C   UNL     1      -1.600  13.400  22.352  0.00  0.00    +0.000 A 
ATOM      9  C   UNL     1      -0.536  12.666  21.619  0.00  0.00    +0.000 A 
ATOM     10  O   UNL     1       0.623  12.769  22.017  0.00  0.00    +0.000 OA
ATOM     11  N   UNL     1      -0.960  11.844  20.556  0.00  0.00    +0.000 N 
ENDROOT
BRANCH   1  15
ATOM     12  C   UNL     1      -2.868  10.152  16.172  0.00  0.00    +0.000 A 
ATOM     13  C   UNL     1      -3.365   9.562  17.333  0.00  0.00    +0.000 A 
ATOM     14  C   UNL     1      -3.218  10.196  18.569  0.00  0.00    +0.000 A 
ATOM     15  C   UNL     1      -2.553  11.429  18.666  0.00  0.00    +0.000 A 
ATOM     16  C   UNL     1      -2.077  12.028  17.493  0.00  0.00    +0.000 A 
ATOM     17  C   UNL     1      -2.241  11.395  16.250  0.00  0.00    +0.000 A 
BRANCH  12  19
ATOM     18  C   UNL     1      -3.560  10.020  13.900  0.00  0.00    +0.000 C 
ATOM     19  O   UNL     1      -3.011   9.384  15.046  0.00  0.00    +0.000 OA
ENDBRANCH  12  19
ENDBRANCH   1  15
BRANCH  11  20
ATOM     20  C   UNL     1      -0.094  10.765  20.223  0.00  0.00    +0.000 A 
ATOM     21  C   UNL     1       0.644  10.839  19.035  0.00  0.00    +0.000 A 
ATOM     22  C   UNL     1       1.461   9.776  18.655  0.00  0.00    +0.000 A 
ATOM     23  C   UNL     1       1.609   8.666  19.492  0.00  0.00    +0.000 A 
ATOM     24  C   UNL     1       0.816   8.562  20.636  0.00  0.00    +0.000 A 
ATOM     25  C   UNL     1      -0.050   9.602  20.992  0.00  0.00    +0.000 A 
BRANCH  23  26
ATOM     26  O   UNL     1       2.514   7.652  19.281  0.00  0.00    +0.000 OA
BRANCH  26  27
ATOM     27  C   UNL     1       2.165   6.428  19.943  0.00  0.00    +0.000 C 
BRANCH  27  28
ATOM     28  C   UNL     1       3.184   5.313  19.657  0.00  0.00    +0.000 C 
BRANCH  28  29
ATOM     29  N   UNL     1       2.992   4.730  18.311  0.00  0.00    +0.000 NA
ATOM     30  C   UNL     1       1.601   4.317  18.074  0.00  0.00    +0.000 C 
ATOM     31  C   UNL     1       1.578   2.819  18.298  0.00  0.00    +0.000 C 
ATOM     32  C   UNL     1       2.917   2.379  17.753  0.00  0.00    +0.000 C 
ATOM     33  C   UNL     1       3.839   3.544  18.073  0.00  0.00    +0.000 C 
ENDBRANCH  28  29
ENDBRANCH  27  28
ENDBRANCH  26  27
ENDBRANCH  23  26
ENDBRANCH  11  20
BRANCH   6  34
ATOM     34  O   UNL     1      -2.179  15.115  25.588  0.00  0.00    +0.000 OA
ATOM     35  C   UNL     1      -0.950  15.775  25.869  0.00  0.00    +0.000 C 
ENDBRANCH   6  34
TORSDOF 8
ENDMDL
