MODEL 1
REMARK VINA RESULT:      -9.0      0.000      0.000
REMARK  Name = 
REMARK  6 active torsions:
REMARK  status: ('A' for Active; 'I' for Inactive)
REMARK    1  A    between atoms: C_1  and  C_2
REMARK    2  A    between atoms: C_2  and  O_3
REMARK    3  A    between atoms: O_3  and  C_4
REMARK    4  A    between atoms: C_7  and  C_8
REMARK    5  A    between atoms: N_10  and  C_11
REMARK    6  A    between atoms: C_14  and  C_15
REMARK                            x       y       z     vdW  Elec       q    Type
REMARK                         _______ _______ _______ _____ _____    ______ ____
ROOT
ATOM      1  C   UNL     1       0.790   9.527  20.087  0.00  0.00    +0.000 A 
ATOM      2  C   UNL     1       1.255   8.404  20.772  0.00  0.00    +0.000 A 
ATOM      3  C   UNL     1       2.027   7.435  20.123  0.00  0.00    +0.000 A 
ATOM      4  C   UNL     1       2.336   7.540  18.759  0.00  0.00    +0.000 A 
ATOM      5  C   UNL     1       1.876   8.678  18.082  0.00  0.00    +0.000 A 
ATOM      6  C   UNL     1       1.113   9.659  18.735  0.00  0.00    +0.000 A 
ENDROOT
BRANCH   4   7
ATOM      7  C   UNL     1       3.137   6.474  18.097  0.00  0.00    +0.000 A 
ATOM      8  C   UNL     1       4.329   6.793  17.559  0.00  0.00    +0.000 A 
ATOM      9  C   UNL     1       5.126   5.812  16.845  0.00  0.00    +0.000 A 
ATOM     10  C   UNL     1       6.412   6.089  16.378  0.00  0.00    +0.000 A 
ATOM     11  C   UNL     1       7.115   5.122  15.653  0.00  0.00    +0.000 A 
ATOM     12  C   UNL     1       6.527   3.886  15.374  0.00  0.00    +0.000 A 
ATOM     13  C   UNL     1       5.244   3.605  15.841  0.00  0.00    +0.000 A 
ATOM     14  C   UNL     1       4.570   4.566  16.587  0.00  0.00    +0.000 A 
ATOM     15  O   UNL     1       3.320   4.219  17.121  0.00  0.00    +0.000 OA
ATOM     16  C   UNL     1       2.666   5.054  18.025  0.00  0.00    +0.000 A 
ATOM     17  O   UNL     1       1.732   4.625  18.695  0.00  0.00    +0.000 OA
ENDBRANCH   4   7
BRANCH   1  20
ATOM     18  C   UNL     1      -0.093  10.756  22.055  0.00  0.00    +0.000 C 
ATOM     19  O   UNL     1       0.530  10.165  22.936  0.00  0.00    +0.000 OA
ATOM     20  N   UNL     1       0.003  10.534  20.695  0.00  0.00    +0.000 N 
ATOM     21  H   UNL     1      -0.433  11.202  20.075  0.00  0.00    +0.000 HD
BRANCH  18  25
ATOM     22  C   UNL     1      -2.426  14.115  23.367  0.00  0.00    +0.000 A 
ATOM     23  C   UNL     1      -1.226  14.268  22.665  0.00  0.00    +0.000 A 
ATOM     24  C   UNL     1      -0.507  13.159  22.235  0.00  0.00    +0.000 A 
ATOM     25  C   UNL     1      -0.968  11.867  22.494  0.00  0.00    +0.000 A 
ATOM     26  C   UNL     1      -2.157  11.684  23.203  0.00  0.00    +0.000 A 
ATOM     27  C   UNL     1      -2.880  12.808  23.633  0.00  0.00    +0.000 A 
ATOM     28 BR   UNL     1      -4.484  12.502  24.608  0.00  0.00    +0.000 Br
BRANCH  22  29
ATOM     29  O   UNL     1      -3.177  15.177  23.811  0.00  0.00    +0.000 OA
BRANCH  29  31
ATOM     30  C   UNL     1      -1.930  15.548  25.852  0.00  0.00    +0.000 C 
ATOM     31  C   UNL     1      -2.470  16.159  24.575  0.00  0.00    +0.000 C 
ENDBRANCH  29  31
ENDBRANCH  22  29
ENDBRANCH  18  25
ENDBRANCH   1  20
TORSDOF 5
ENDMDL
MODEL 2
REMARK VINA RESULT:      -8.6      0.926      1.364
REMARK  Name = 
REMARK  6 active torsions:
REMARK  status: ('A' for Active; 'I' for Inactive)
REMARK    1  A    between atoms: C_1  and  C_2
REMARK    2  A    between atoms: C_2  and  O_3
REMARK    3  A    between atoms: O_3  and  C_4
REMARK    4  A    between atoms: C_7  and  C_8
REMARK    5  A    between atoms: N_10  and  C_11
REMARK    6  A    between atoms: C_14  and  C_15
REMARK                            x       y       z     vdW  Elec       q    Type
REMARK                         _______ _______ _______ _____ _____    ______ ____
ROOT
ATOM      1  C   UNL     1       0.683   9.548  20.388  0.00  0.00    +0.000 A 
ATOM      2  C   UNL     1       1.004   9.660  19.035  0.00  0.00    +0.000 A 
ATOM      3  C   UNL     1       1.738   8.663  18.385  0.00  0.00    +0.000 A 
ATOM      4  C   UNL     1       2.204   7.533  19.073  0.00  0.00    +0.000 A 
ATOM      5  C   UNL     1       1.866   7.422  20.430  0.00  0.00    +0.000 A 
ATOM      6  C   UNL     1       1.116   8.415  21.080  0.00  0.00    +0.000 A 
ENDROOT
BRANCH   4   7
ATOM      7  C   UNL     1       3.006   6.506  18.354  0.00  0.00    +0.000 A 
ATOM      8  C   UNL     1       4.168   6.871  17.779  0.00  0.00    +0.000 A 
ATOM      9  C   UNL     1       4.962   5.929  17.011  0.00  0.00    +0.000 A 
ATOM     10  C   UNL     1       6.221   6.253  16.501  0.00  0.00    +0.000 A 
ATOM     11  C   UNL     1       6.920   5.323  15.725  0.00  0.00    +0.000 A 
ATOM     12  C   UNL     1       6.355   4.078  15.438  0.00  0.00    +0.000 A 
ATOM     13  C   UNL     1       5.099   3.751  15.947  0.00  0.00    +0.000 A 
ATOM     14  C   UNL     1       4.429   4.675  16.743  0.00  0.00    +0.000 A 
ATOM     15  O   UNL     1       3.211   4.282  17.315  0.00  0.00    +0.000 OA
ATOM     16  C   UNL     1       2.570   5.076  18.264  0.00  0.00    +0.000 A 
ATOM     17  O   UNL     1       1.675   4.605  18.959  0.00  0.00    +0.000 OA
ENDBRANCH   4   7
BRANCH   1  20
ATOM     18  C   UNL     1       0.399  11.799  21.395  0.00  0.00    +0.000 C 
ATOM     19  O   UNL     1       1.471  12.293  21.047  0.00  0.00    +0.000 OA
ATOM     20  N   UNL     1      -0.053  10.529  21.094  0.00  0.00    +0.000 N 
ATOM     21  H   UNL     1      -1.019  10.311  21.294  0.00  0.00    +0.000 HD
BRANCH  18  25
ATOM     22  C   UNL     1      -2.092  14.488  23.635  0.00  0.00    +0.000 A 
ATOM     23  C   UNL     1      -0.892  14.898  23.046  0.00  0.00    +0.000 A 
ATOM     24  C   UNL     1      -0.120  14.008  22.308  0.00  0.00    +0.000 A 
ATOM     25  C   UNL     1      -0.528  12.683  22.138  0.00  0.00    +0.000 A 
ATOM     26  C   UNL     1      -1.717  12.243  22.723  0.00  0.00    +0.000 A 
ATOM     27  C   UNL     1      -2.493  13.148  23.466  0.00  0.00    +0.000 A 
ATOM     28 BR   UNL     1      -4.094  12.493  24.256  0.00  0.00    +0.000 Br
BRANCH  22  29
ATOM     29  O   UNL     1      -2.893  15.329  24.370  0.00  0.00    +0.000 OA
BRANCH  29  31
ATOM     30  C   UNL     1      -5.102  16.293  24.144  0.00  0.00    +0.000 C 
ATOM     31  C   UNL     1      -3.685  16.249  23.611  0.00  0.00    +0.000 C 
ENDBRANCH  29  31
ENDBRANCH  22  29
ENDBRANCH  18  25
ENDBRANCH   1  20
TORSDOF 5
ENDMDL
MODEL 3
REMARK VINA RESULT:      -8.6      1.282      1.728
REMARK  Name = 
REMARK  6 active torsions:
REMARK  status: ('A' for Active; 'I' for Inactive)
REMARK    1  A    between atoms: C_1  and  C_2
REMARK    2  A    between atoms: C_2  and  O_3
REMARK    3  A    between atoms: O_3  and  C_4
REMARK    4  A    between atoms: C_7  and  C_8
REMARK    5  A    between atoms: N_10  and  C_11
REMARK    6  A    between atoms: C_14  and  C_15
REMARK                            x       y       z     vdW  Elec       q    Type
REMARK                         _______ _______ _______ _____ _____    ______ ____
ROOT
ATOM      1  C   UNL     1       0.705   9.621  20.275  0.00  0.00    +0.000 A 
ATOM      2  C   UNL     1       1.114   8.463  20.935  0.00  0.00    +0.000 A 
ATOM      3  C   UNL     1       1.884   7.496  20.282  0.00  0.00    +0.000 A 
ATOM      4  C   UNL     1       2.247   7.639  18.935  0.00  0.00    +0.000 A 
ATOM      5  C   UNL     1       1.844   8.812  18.282  0.00  0.00    +0.000 A 
ATOM      6  C   UNL     1       1.083   9.791  18.941  0.00  0.00    +0.000 A 
ENDROOT
BRANCH   4   7
ATOM      7  C   UNL     1       3.044   6.575  18.266  0.00  0.00    +0.000 A 
ATOM      8  C   UNL     1       4.218   6.902  17.692  0.00  0.00    +0.000 A 
ATOM      9  C   UNL     1       5.009   5.922  16.970  0.00  0.00    +0.000 A 
ATOM     10  C   UNL     1       6.278   6.210  16.465  0.00  0.00    +0.000 A 
ATOM     11  C   UNL     1       6.974   5.242  15.734  0.00  0.00    +0.000 A 
ATOM     12  C   UNL     1       6.396   3.994  15.487  0.00  0.00    +0.000 A 
ATOM     13  C   UNL     1       5.129   3.703  15.992  0.00  0.00    +0.000 A 
ATOM     14  C   UNL     1       4.463   4.666  16.743  0.00  0.00    +0.000 A 
ATOM     15  O   UNL     1       3.232   4.310  17.315  0.00  0.00    +0.000 OA
ATOM     16  C   UNL     1       2.591   5.148  18.225  0.00  0.00    +0.000 A 
ATOM     17  O   UNL     1       1.681   4.716  18.926  0.00  0.00    +0.000 OA
ENDBRANCH   4   7
BRANCH   1  20
ATOM     18  C   UNL     1      -0.215  10.809  22.250  0.00  0.00    +0.000 C 
ATOM     19  O   UNL     1       0.362  10.174  23.132  0.00  0.00    +0.000 OA
ATOM     20  N   UNL     1      -0.077  10.628  20.888  0.00  0.00    +0.000 N 
ATOM     21  H   UNL     1      -0.475  11.327  20.276  0.00  0.00    +0.000 HD
BRANCH  18  25
ATOM     22  C   UNL     1      -2.913  13.914  23.485  0.00  0.00    +0.000 A 
ATOM     23  C   UNL     1      -3.213  12.557  23.647  0.00  0.00    +0.000 A 
ATOM     24  C   UNL     1      -2.307  11.577  23.257  0.00  0.00    +0.000 A 
ATOM     25  C   UNL     1      -1.077  11.927  22.696  0.00  0.00    +0.000 A 
ATOM     26  C   UNL     1      -0.756  13.274  22.513  0.00  0.00    +0.000 A 
ATOM     27  C   UNL     1      -1.675  14.259  22.910  0.00  0.00    +0.000 A 
ATOM     28 BR   UNL     1      -1.195  16.076  22.623  0.00  0.00    +0.000 Br
BRANCH  22  29
ATOM     29  O   UNL     1      -3.771  14.921  23.858  0.00  0.00    +0.000 OA
BRANCH  29  31
ATOM     30  C   UNL     1      -5.381  15.214  22.075  0.00  0.00    +0.000 C 
ATOM     31  C   UNL     1      -5.142  14.734  23.491  0.00  0.00    +0.000 C 
ENDBRANCH  29  31
ENDBRANCH  22  29
ENDBRANCH  18  25
ENDBRANCH   1  20
TORSDOF 5
ENDMDL
MODEL 4
REMARK VINA RESULT:      -8.6      1.609      2.123
REMARK  Name = 
REMARK  6 active torsions:
REMARK  status: ('A' for Active; 'I' for Inactive)
REMARK    1  A    between atoms: C_1  and  C_2
REMARK    2  A    between atoms: C_2  and  O_3
REMARK    3  A    between atoms: O_3  and  C_4
REMARK    4  A    between atoms: C_7  and  C_8
REMARK    5  A    between atoms: N_10  and  C_11
REMARK    6  A    between atoms: C_14  and  C_15
REMARK                            x       y       z     vdW  Elec       q    Type
REMARK                         _______ _______ _______ _____ _____    ______ ____
ROOT
ATOM      1  C   UNL     1       0.314   9.985  20.616  0.00  0.00    +0.000 A 
ATOM      2  C   UNL     1       0.670  10.024  19.267  0.00  0.00    +0.000 A 
ATOM      3  C   UNL     1       1.429   8.999  18.694  0.00  0.00    +0.000 A 
ATOM      4  C   UNL     1       1.886   7.914  19.456  0.00  0.00    +0.000 A 
ATOM      5  C   UNL     1       1.514   7.876  20.808  0.00  0.00    +0.000 A 
ATOM      6  C   UNL     1       0.739   8.897  21.381  0.00  0.00    +0.000 A 
ENDROOT
BRANCH   4   7
ATOM      7  C   UNL     1       2.716   6.857  18.817  0.00  0.00    +0.000 A 
ATOM      8  C   UNL     1       3.485   7.180  17.760  0.00  0.00    +0.000 A 
ATOM      9  C   UNL     1       4.266   6.179  17.056  0.00  0.00    +0.000 A 
ATOM     10  C   UNL     1       5.154   6.509  16.030  0.00  0.00    +0.000 A 
ATOM     11  C   UNL     1       5.844   5.499  15.353  0.00  0.00    +0.000 A 
ATOM     12  C   UNL     1       5.632   4.158  15.682  0.00  0.00    +0.000 A 
ATOM     13  C   UNL     1       4.747   3.825  16.708  0.00  0.00    +0.000 A 
ATOM     14  C   UNL     1       4.092   4.844  17.392  0.00  0.00    +0.000 A 
ATOM     15  O   UNL     1       3.280   4.483  18.478  0.00  0.00    +0.000 OA
ATOM     16  C   UNL     1       2.736   5.447  19.324  0.00  0.00    +0.000 A 
ATOM     17  O   UNL     1       2.277   5.123  20.414  0.00  0.00    +0.000 OA
ENDBRANCH   4   7
BRANCH   1  20
ATOM     18  C   UNL     1      -0.665  11.099  22.606  0.00  0.00    +0.000 C 
ATOM     19  O   UNL     1      -0.183  10.376  23.478  0.00  0.00    +0.000 OA
ATOM     20  N   UNL     1      -0.449  10.996  21.245  0.00  0.00    +0.000 N 
ATOM     21  H   UNL     1      -0.766  11.755  20.658  0.00  0.00    +0.000 HD
BRANCH  18  25
ATOM     22  C   UNL     1      -3.258  14.287  23.857  0.00  0.00    +0.000 A 
ATOM     23  C   UNL     1      -3.680  12.954  23.816  0.00  0.00    +0.000 A 
ATOM     24  C   UNL     1      -2.808  11.943  23.428  0.00  0.00    +0.000 A 
ATOM     25  C   UNL     1      -1.490  12.237  23.071  0.00  0.00    +0.000 A 
ATOM     26  C   UNL     1      -1.045  13.560  23.092  0.00  0.00    +0.000 A 
ATOM     27  C   UNL     1      -1.930  14.577  23.487  0.00  0.00    +0.000 A 
ATOM     28 BR   UNL     1      -1.276  16.362  23.482  0.00  0.00    +0.000 Br
BRANCH  22  29
ATOM     29  O   UNL     1      -4.078  15.323  24.237  0.00  0.00    +0.000 OA
BRANCH  29  31
ATOM     30  C   UNL     1      -6.451  15.322  23.765  0.00  0.00    +0.000 C 
ATOM     31  C   UNL     1      -5.070  15.709  23.280  0.00  0.00    +0.000 C 
ENDBRANCH  29  31
ENDBRANCH  22  29
ENDBRANCH  18  25
ENDBRANCH   1  20
TORSDOF 5
ENDMDL
MODEL 5
REMARK VINA RESULT:      -8.6      1.282      1.804
REMARK  Name = 
REMARK  6 active torsions:
REMARK  status: ('A' for Active; 'I' for Inactive)
REMARK    1  A    between atoms: C_1  and  C_2
REMARK    2  A    between atoms: C_2  and  O_3
REMARK    3  A    between atoms: O_3  and  C_4
REMARK    4  A    between atoms: C_7  and  C_8
REMARK    5  A    between atoms: N_10  and  C_11
REMARK    6  A    between atoms: C_14  and  C_15
REMARK                            x       y       z     vdW  Elec       q    Type
REMARK                         _______ _______ _______ _____ _____    ______ ____
ROOT
ATOM      1  C   UNL     1       0.653   9.587  20.017  0.00  0.00    +0.000 A 
ATOM      2  C   UNL     1       0.958   9.622  18.656  0.00  0.00    +0.000 A 
ATOM      3  C   UNL     1       1.736   8.621  18.067  0.00  0.00    +0.000 A 
ATOM      4  C   UNL     1       2.262   7.564  18.824  0.00  0.00    +0.000 A 
ATOM      5  C   UNL     1       1.939   7.528  20.188  0.00  0.00    +0.000 A 
ATOM      6  C   UNL     1       1.146   8.525  20.778  0.00  0.00    +0.000 A 
ENDROOT
BRANCH   4   7
ATOM      7  C   UNL     1       3.109   6.531  18.167  0.00  0.00    +0.000 A 
ATOM      8  C   UNL     1       4.312   6.888  17.679  0.00  0.00    +0.000 A 
ATOM      9  C   UNL     1       5.156   5.941  16.972  0.00  0.00    +0.000 A 
ATOM     10  C   UNL     1       6.450   6.257  16.556  0.00  0.00    +0.000 A 
ATOM     11  C   UNL     1       7.200   5.321  15.836  0.00  0.00    +0.000 A 
ATOM     12  C   UNL     1       6.649   4.080  15.509  0.00  0.00    +0.000 A 
ATOM     13  C   UNL     1       5.357   3.760  15.924  0.00  0.00    +0.000 A 
ATOM     14  C   UNL     1       4.637   4.690  16.667  0.00  0.00    +0.000 A 
ATOM     15  O   UNL     1       3.377   4.304  17.149  0.00  0.00    +0.000 OA
ATOM     16  C   UNL     1       2.673   5.103  18.047  0.00  0.00    +0.000 A 
ATOM     17  O   UNL     1       1.726   4.639  18.674  0.00  0.00    +0.000 OA
ENDBRANCH   4   7
BRANCH   1  20
ATOM     18  C   UNL     1       0.372  11.720  21.254  0.00  0.00    +0.000 C 
ATOM     19  O   UNL     1       1.547  12.086  21.258  0.00  0.00    +0.000 OA
ATOM     20  N   UNL     1      -0.126  10.575  20.662  0.00  0.00    +0.000 N 
ATOM     21  H   UNL     1      -1.130  10.481  20.586  0.00  0.00    +0.000 HD
BRANCH  18  25
ATOM     22  C   UNL     1      -2.637  14.191  23.068  0.00  0.00    +0.000 A 
ATOM     23  C   UNL     1      -2.488  12.838  23.391  0.00  0.00    +0.000 A 
ATOM     24  C   UNL     1      -1.488  12.072  22.802  0.00  0.00    +0.000 A 
ATOM     25  C   UNL     1      -0.611  12.637  21.875  0.00  0.00    +0.000 A 
ATOM     26  C   UNL     1      -0.743  13.983  21.526  0.00  0.00    +0.000 A 
ATOM     27  C   UNL     1      -1.753  14.753  22.126  0.00  0.00    +0.000 A 
ATOM     28 BR   UNL     1      -1.899  16.574  21.602  0.00  0.00    +0.000 Br
BRANCH  22  29
ATOM     29  O   UNL     1      -3.605  14.993  23.625  0.00  0.00    +0.000 OA
BRANCH  29  31
ATOM     30  C   UNL     1      -3.705  16.926  25.078  0.00  0.00    +0.000 C 
ATOM     31  C   UNL     1      -3.331  15.464  24.948  0.00  0.00    +0.000 C 
ENDBRANCH  29  31
ENDBRANCH  22  29
ENDBRANCH  18  25
ENDBRANCH   1  20
TORSDOF 5
ENDMDL
MODEL 6
REMARK VINA RESULT:      -8.6      1.140      1.551
REMARK  Name = 
REMARK  6 active torsions:
REMARK  status: ('A' for Active; 'I' for Inactive)
REMARK    1  A    between atoms: C_1  and  C_2
REMARK    2  A    between atoms: C_2  and  O_3
REMARK    3  A    between atoms: O_3  and  C_4
REMARK    4  A    between atoms: C_7  and  C_8
REMARK    5  A    between atoms: N_10  and  C_11
REMARK    6  A    between atoms: C_14  and  C_15
REMARK                            x       y       z     vdW  Elec       q    Type
REMARK                         _______ _______ _______ _____ _____    ______ ____
ROOT
ATOM      1  C   UNL     1       0.296   9.865  20.593  0.00  0.00    +0.000 A 
ATOM      2  C   UNL     1       0.727   9.938  19.268  0.00  0.00    +0.000 A 
ATOM      3  C   UNL     1       1.513   8.924  18.711  0.00  0.00    +0.000 A 
ATOM      4  C   UNL     1       1.921   7.817  19.469  0.00  0.00    +0.000 A 
ATOM      5  C   UNL     1       1.473   7.745  20.796  0.00  0.00    +0.000 A 
ATOM      6  C   UNL     1       0.671   8.755  21.352  0.00  0.00    +0.000 A 
ENDROOT
BRANCH   4   7
ATOM      7  C   UNL     1       2.781   6.771  18.850  0.00  0.00    +0.000 A 
ATOM      8  C   UNL     1       3.506   7.084  17.759  0.00  0.00    +0.000 A 
ATOM      9  C   UNL     1       4.313   6.091  17.074  0.00  0.00    +0.000 A 
ATOM     10  C   UNL     1       5.157   6.417  16.011  0.00  0.00    +0.000 A 
ATOM     11  C   UNL     1       5.875   5.411  15.355  0.00  0.00    +0.000 A 
ATOM     12  C   UNL     1       5.732   4.077  15.745  0.00  0.00    +0.000 A 
ATOM     13  C   UNL     1       4.891   3.748  16.807  0.00  0.00    +0.000 A 
ATOM     14  C   UNL     1       4.209   4.764  17.469  0.00  0.00    +0.000 A 
ATOM     15  O   UNL     1       3.444   4.413  18.591  0.00  0.00    +0.000 OA
ATOM     16  C   UNL     1       2.879   5.386  19.412  0.00  0.00    +0.000 A 
ATOM     17  O   UNL     1       2.465   5.087  20.527  0.00  0.00    +0.000 OA
ENDBRANCH   4   7
BRANCH   1  20
ATOM     18  C   UNL     1      -0.671  11.018  22.567  0.00  0.00    +0.000 C 
ATOM     19  O   UNL     1      -0.122  10.362  23.451  0.00  0.00    +0.000 OA
ATOM     20  N   UNL     1      -0.497  10.864  21.205  0.00  0.00    +0.000 N 
ATOM     21  H   UNL     1      -0.874  11.578  20.597  0.00  0.00    +0.000 HD
BRANCH  18  25
ATOM     22  C   UNL     1      -2.993  14.344  23.980  0.00  0.00    +0.000 A 
ATOM     23  C   UNL     1      -1.631  14.457  23.683  0.00  0.00    +0.000 A 
ATOM     24  C   UNL     1      -0.914  13.366  23.205  0.00  0.00    +0.000 A 
ATOM     25  C   UNL     1      -1.539  12.133  23.012  0.00  0.00    +0.000 A 
ATOM     26  C   UNL     1      -2.895  11.988  23.311  0.00  0.00    +0.000 A 
ATOM     27  C   UNL     1      -3.615  13.095  23.791  0.00  0.00    +0.000 A 
ATOM     28 BR   UNL     1      -5.454  12.838  24.198  0.00  0.00    +0.000 Br
BRANCH  22  29
ATOM     29  O   UNL     1      -3.749  15.392  24.450  0.00  0.00    +0.000 OA
BRANCH  29  31
ATOM     30  C   UNL     1      -4.900  17.493  24.108  0.00  0.00    +0.000 C 
ATOM     31  C   UNL     1      -3.922  16.485  23.542  0.00  0.00    +0.000 C 
ENDBRANCH  29  31
ENDBRANCH  22  29
ENDBRANCH  18  25
ENDBRANCH   1  20
TORSDOF 5
ENDMDL
MODEL 7
REMARK VINA RESULT:      -8.4      3.060     11.532
REMARK  Name = 
REMARK  6 active torsions:
REMARK  status: ('A' for Active; 'I' for Inactive)
REMARK    1  A    between atoms: C_1  and  C_2
REMARK    2  A    between atoms: C_2  and  O_3
REMARK    3  A    between atoms: O_3  and  C_4
REMARK    4  A    between atoms: C_7  and  C_8
REMARK    5  A    between atoms: N_10  and  C_11
REMARK    6  A    between atoms: C_14  and  C_15
REMARK                            x       y       z     vdW  Elec       q    Type
REMARK                         _______ _______ _______ _____ _____    ______ ____
ROOT
ATOM      1  C   UNL     1       0.812   9.340  20.286  0.00  0.00    +0.000 A 
ATOM      2  C   UNL     1       0.165  10.321  19.534  0.00  0.00    +0.000 A 
ATOM      3  C   UNL     1      -0.558  11.344  20.155  0.00  0.00    +0.000 A 
ATOM      4  C   UNL     1      -0.685  11.405  21.550  0.00  0.00    +0.000 A 
ATOM      5  C   UNL     1      -0.021  10.423  22.300  0.00  0.00    +0.000 A 
ATOM      6  C   UNL     1       0.717   9.403  21.678  0.00  0.00    +0.000 A 
ENDROOT
BRANCH   4   7
ATOM      7  C   UNL     1      -1.485  12.494  22.174  0.00  0.00    +0.000 A 
ATOM      8  C   UNL     1      -2.792  12.283  22.422  0.00  0.00    +0.000 A 
ATOM      9  C   UNL     1      -3.638  13.327  22.970  0.00  0.00    +0.000 A 
ATOM     10  C   UNL     1      -4.965  13.099  23.339  0.00  0.00    +0.000 A 
ATOM     11  C   UNL     1      -5.749  14.155  23.815  0.00  0.00    +0.000 A 
ATOM     12  C   UNL     1      -5.217  15.443  23.903  0.00  0.00    +0.000 A 
ATOM     13  C   UNL     1      -3.891  15.674  23.538  0.00  0.00    +0.000 A 
ATOM     14  C   UNL     1      -3.116  14.607  23.095  0.00  0.00    +0.000 A 
ATOM     15  O   UNL     1      -1.762  14.854  22.824  0.00  0.00    +0.000 OA
ATOM     16  C   UNL     1      -0.879  13.810  22.552  0.00  0.00    +0.000 A 
ATOM     17  O   UNL     1       0.332  13.999  22.600  0.00  0.00    +0.000 OA
ENDBRANCH   4   7
BRANCH   1  20
ATOM     18  C   UNL     1       2.128   8.309  18.452  0.00  0.00    +0.000 C 
ATOM     19  O   UNL     1       2.144   9.264  17.676  0.00  0.00    +0.000 OA
ATOM     20  N   UNL     1       1.552   8.282  19.707  0.00  0.00    +0.000 N 
ATOM     21  H   UNL     1       1.760   7.495  20.306  0.00  0.00    +0.000 HD
BRANCH  18  25
ATOM     22  C   UNL     1       4.378   4.935  17.036  0.00  0.00    +0.000 A 
ATOM     23  C   UNL     1       4.857   6.245  16.939  0.00  0.00    +0.000 A 
ATOM     24  C   UNL     1       4.113   7.313  17.428  0.00  0.00    +0.000 A 
ATOM     25  C   UNL     1       2.871   7.099  18.028  0.00  0.00    +0.000 A 
ATOM     26  C   UNL     1       2.362   5.803  18.129  0.00  0.00    +0.000 A 
ATOM     27  C   UNL     1       3.120   4.727  17.635  0.00  0.00    +0.000 A 
ATOM     28 BR   UNL     1       2.374   2.985  17.783  0.00  0.00    +0.000 Br
BRANCH  22  29
ATOM     29  O   UNL     1       5.075   3.844  16.573  0.00  0.00    +0.000 OA
BRANCH  29  31
ATOM     30  C   UNL     1       6.198   3.881  14.429  0.00  0.00    +0.000 C 
ATOM     31  C   UNL     1       6.314   4.134  15.918  0.00  0.00    +0.000 C 
ENDBRANCH  29  31
ENDBRANCH  22  29
ENDBRANCH  18  25
ENDBRANCH   1  20
TORSDOF 5
ENDMDL
MODEL 8
REMARK VINA RESULT:      -8.4      3.043     11.434
REMARK  Name = 
REMARK  6 active torsions:
REMARK  status: ('A' for Active; 'I' for Inactive)
REMARK    1  A    between atoms: C_1  and  C_2
REMARK    2  A    between atoms: C_2  and  O_3
REMARK    3  A    between atoms: O_3  and  C_4
REMARK    4  A    between atoms: C_7  and  C_8
REMARK    5  A    between atoms: N_10  and  C_11
REMARK    6  A    between atoms: C_14  and  C_15
REMARK                            x       y       z     vdW  Elec       q    Type
REMARK                         _______ _______ _______ _____ _____    ______ ____
ROOT
ATOM      1  C   UNL     1       0.877   9.301  20.204  0.00  0.00    +0.000 A 
ATOM      2  C   UNL     1       0.619  10.499  19.537  0.00  0.00    +0.000 A 
ATOM      3  C   UNL     1      -0.151  11.503  20.133  0.00  0.00    +0.000 A 
ATOM      4  C   UNL     1      -0.717  11.331  21.405  0.00  0.00    +0.000 A 
ATOM      5  C   UNL     1      -0.442  10.129  22.074  0.00  0.00    +0.000 A 
ATOM      6  C   UNL     1       0.344   9.127  21.483  0.00  0.00    +0.000 A 
ENDROOT
BRANCH   4   7
ATOM      7  C   UNL     1      -1.555  12.410  21.995  0.00  0.00    +0.000 A 
ATOM      8  C   UNL     1      -1.082  13.099  23.051  0.00  0.00    +0.000 A 
ATOM      9  C   UNL     1      -1.879  14.119  23.709  0.00  0.00    +0.000 A 
ATOM     10  C   UNL     1      -1.370  14.922  24.732  0.00  0.00    +0.000 A 
ATOM     11  C   UNL     1      -2.197  15.855  25.364  0.00  0.00    +0.000 A 
ATOM     12  C   UNL     1      -3.539  15.973  24.993  0.00  0.00    +0.000 A 
ATOM     13  C   UNL     1      -4.050  15.174  23.970  0.00  0.00    +0.000 A 
ATOM     14  C   UNL     1      -3.205  14.272  23.330  0.00  0.00    +0.000 A 
ATOM     15  O   UNL     1      -3.724  13.550  22.246  0.00  0.00    +0.000 OA
ATOM     16  C   UNL     1      -2.900  12.766  21.441  0.00  0.00    +0.000 A 
ATOM     17  O   UNL     1      -3.296  12.376  20.347  0.00  0.00    +0.000 OA
ENDBRANCH   4   7
BRANCH   1  20
ATOM     18  C   UNL     1       2.131   8.226  18.351  0.00  0.00    +0.000 C 
ATOM     19  O   UNL     1       2.026   9.121  17.514  0.00  0.00    +0.000 OA
ATOM     20  N   UNL     1       1.647   8.254  19.645  0.00  0.00    +0.000 N 
ATOM     21  H   UNL     1       1.949   7.527  20.279  0.00  0.00    +0.000 HD
BRANCH  18  25
ATOM     22  C   UNL     1       4.525   4.918  17.021  0.00  0.00    +0.000 A 
ATOM     23  C   UNL     1       4.960   6.243  16.916  0.00  0.00    +0.000 A 
ATOM     24  C   UNL     1       4.169   7.289  17.378  0.00  0.00    +0.000 A 
ATOM     25  C   UNL     1       2.924   7.039  17.957  0.00  0.00    +0.000 A 
ATOM     26  C   UNL     1       2.460   5.726  18.065  0.00  0.00    +0.000 A 
ATOM     27  C   UNL     1       3.264   4.673  17.598  0.00  0.00    +0.000 A 
ATOM     28 BR   UNL     1       2.578   2.907  17.754  0.00  0.00    +0.000 Br
BRANCH  22  29
ATOM     29  O   UNL     1       5.270   3.847  16.585  0.00  0.00    +0.000 OA
BRANCH  29  31
ATOM     30  C   UNL     1       6.048   3.948  14.295  0.00  0.00    +0.000 C 
ATOM     31  C   UNL     1       6.390   4.170  15.754  0.00  0.00    +0.000 C 
ENDBRANCH  29  31
ENDBRANCH  22  29
ENDBRANCH  18  25
ENDBRANCH   1  20
TORSDOF 5
ENDMDL
MODEL 9
REMARK VINA RESULT:      -8.4      1.450      1.699
REMARK  Name = 
REMARK  6 active torsions:
REMARK  status: ('A' for Active; 'I' for Inactive)
REMARK    1  A    between atoms: C_1  and  C_2
REMARK    2  A    between atoms: C_2  and  O_3
REMARK    3  A    between atoms: O_3  and  C_4
REMARK    4  A    between atoms: C_7  and  C_8
REMARK    5  A    between atoms: N_10  and  C_11
REMARK    6  A    between atoms: C_14  and  C_15
REMARK                            x       y       z     vdW  Elec       q    Type
REMARK                         _______ _______ _______ _____ _____    ______ ____
ROOT
ATOM      1  C   UNL     1       0.557   9.627  20.076  0.00  0.00    +0.000 A 
ATOM      2  C   UNL     1       1.093   8.559  20.796  0.00  0.00    +0.000 A 
ATOM      3  C   UNL     1       1.911   7.611  20.174  0.00  0.00    +0.000 A 
ATOM      4  C   UNL     1       2.198   7.680  18.803  0.00  0.00    +0.000 A 
ATOM      5  C   UNL     1       1.666   8.764  18.089  0.00  0.00    +0.000 A 
ATOM      6  C   UNL     1       0.856   9.725  18.715  0.00  0.00    +0.000 A 
ENDROOT
BRANCH   4   7
ATOM      7  C   UNL     1       3.050   6.637  18.171  0.00  0.00    +0.000 A 
ATOM      8  C   UNL     1       4.251   6.988  17.674  0.00  0.00    +0.000 A 
ATOM      9  C   UNL     1       5.100   6.029  16.990  0.00  0.00    +0.000 A 
ATOM     10  C   UNL     1       6.392   6.342  16.566  0.00  0.00    +0.000 A 
ATOM     11  C   UNL     1       7.147   5.394  15.867  0.00  0.00    +0.000 A 
ATOM     12  C   UNL     1       6.604   4.141  15.571  0.00  0.00    +0.000 A 
ATOM     13  C   UNL     1       5.313   3.825  15.995  0.00  0.00    +0.000 A 
ATOM     14  C   UNL     1       4.588   4.768  16.715  0.00  0.00    +0.000 A 
ATOM     15  O   UNL     1       3.330   4.387  17.206  0.00  0.00    +0.000 OA
ATOM     16  C   UNL     1       2.622   5.204  18.086  0.00  0.00    +0.000 A 
ATOM     17  O   UNL     1       1.678   4.750  18.724  0.00  0.00    +0.000 OA
ENDBRANCH   4   7
BRANCH   1  20
ATOM     18  C   UNL     1       0.156  11.803  21.201  0.00  0.00    +0.000 C 
ATOM     19  O   UNL     1       1.314  12.221  21.212  0.00  0.00    +0.000 OA
ATOM     20  N   UNL     1      -0.279  10.611  20.655  0.00  0.00    +0.000 N 
ATOM     21  H   UNL     1      -1.275  10.469  20.562  0.00  0.00    +0.000 HD
BRANCH  18  25
ATOM     22  C   UNL     1      -2.911  14.477  22.575  0.00  0.00    +0.000 A 
ATOM     23  C   UNL     1      -3.047  13.725  21.404  0.00  0.00    +0.000 A 
ATOM     24  C   UNL     1      -2.044  12.851  21.000  0.00  0.00    +0.000 A 
ATOM     25  C   UNL     1      -0.879  12.705  21.755  0.00  0.00    +0.000 A 
ATOM     26  C   UNL     1      -0.711  13.453  22.922  0.00  0.00    +0.000 A 
ATOM     27  C   UNL     1      -1.729  14.332  23.327  0.00  0.00    +0.000 A 
ATOM     28 BR   UNL     1      -1.443  15.337  24.915  0.00  0.00    +0.000 Br
BRANCH  22  29
ATOM     29  O   UNL     1      -3.874  15.352  23.021  0.00  0.00    +0.000 OA
BRANCH  29  31
ATOM     30  C   UNL     1      -6.259  14.954  22.916  0.00  0.00    +0.000 C 
ATOM     31  C   UNL     1      -4.981  14.756  23.704  0.00  0.00    +0.000 C 
ENDBRANCH  29  31
ENDBRANCH  22  29
ENDBRANCH  18  25
ENDBRANCH   1  20
TORSDOF 5
ENDMDL
