MODEL 1
REMARK VINA RESULT:      -7.8      0.000      0.000
REMARK  Name = 
REMARK  7 active torsions:
REMARK  status: ('A' for Active; 'I' for Inactive)
REMARK    1  A    between atoms: C_1  and  C_2
REMARK    2  A    between atoms: C_4  and  C_5
REMARK    3  A    between atoms: C_11  and  N_12
REMARK    4  A    between atoms: N_12  and  C_13
REMARK    5  A    between atoms: C_13  and  C_14
REMARK    6  A    between atoms: C_14  and  C_15
REMARK    7  A    between atoms: C_17  and  C_18
REMARK                            x       y       z     vdW  Elec       q    Type
REMARK                         _______ _______ _______ _____ _____    ______ ____
ROOT
ATOM      1  C   UNL     1       0.286   9.147  21.720  0.00  0.00    +0.000 C 
ATOM      2  C   UNL     1       1.105   8.350  20.774  0.00  0.00    +0.000 A 
ATOM      3  C   UNL     1       1.669   8.766  19.555  0.00  0.00    +0.000 A 
ATOM      4  C   UNL     1       2.329   7.661  19.059  0.00  0.00    +0.000 A 
ATOM      5  C   UNL     1       3.063   7.506  17.777  0.00  0.00    +0.000 C 
ATOM      6  N   UNL     1       2.162   6.651  20.000  0.00  0.00    +0.000 N 
ATOM      7  C   UNL     1       2.695   5.328  19.983  0.00  0.00    +0.000 A 
ATOM      8  C   UNL     1       2.293   4.431  20.965  0.00  0.00    +0.000 A 
ATOM      9  N   UNL     1       2.718   3.144  20.995  0.00  0.00    +0.000 NA
ATOM     10  C   UNL     1       3.578   2.805  20.007  0.00  0.00    +0.000 A 
ATOM     11  C   UNL     1       4.057   3.702  19.048  0.00  0.00    +0.000 A 
ATOM     12  N   UNL     1       3.590   4.969  19.017  0.00  0.00    +0.000 NA
ATOM     13  N   UNL     1       1.380   7.071  21.036  0.00  0.00    +0.000 NA
ENDROOT
BRANCH  11  14
ATOM     14  N   UNL     1       4.993   3.276  18.091  0.00  0.00    +0.000 N 
ATOM     15  H   UNL     1       5.937   3.495  18.422  0.00  0.00    +0.000 HD
BRANCH  14  16
ATOM     16  C   UNL     1       4.807   3.870  16.757  0.00  0.00    +0.000 C 
BRANCH  16  17
ATOM     17  C   UNL     1       6.122   4.351  16.121  0.00  0.00    +0.000 C 
BRANCH  17  18
ATOM     18  C   UNL     1       6.754   5.447  16.898  0.00  0.00    +0.000 A 
ATOM     19  N   UNL     1       6.924   6.714  16.581  0.00  0.00    +0.000 NA
ATOM     20  C   UNL     1       7.586   7.196  17.682  0.00  0.00    +0.000 A 
ATOM     21  C   UNL     1       7.995   8.607  17.810  0.00  0.00    +0.000 C 
ATOM     22  N   UNL     1       7.822   6.290  18.640  0.00  0.00    +0.000 NA
ATOM     23  O   UNL     1       7.274   5.118  18.115  0.00  0.00    +0.000 OA
ENDBRANCH  17  18
ENDBRANCH  16  17
ENDBRANCH  14  16
ENDBRANCH  11  14
TORSDOF 4
ENDMDL
MODEL 2
REMARK VINA RESULT:      -7.4      1.592      2.531
REMARK  Name = 
REMARK  7 active torsions:
REMARK  status: ('A' for Active; 'I' for Inactive)
REMARK    1  A    between atoms: C_1  and  C_2
REMARK    2  A    between atoms: C_4  and  C_5
REMARK    3  A    between atoms: C_11  and  N_12
REMARK    4  A    between atoms: N_12  and  C_13
REMARK    5  A    between atoms: C_13  and  C_14
REMARK    6  A    between atoms: C_14  and  C_15
REMARK    7  A    between atoms: C_17  and  C_18
REMARK                            x       y       z     vdW  Elec       q    Type
REMARK                         _______ _______ _______ _____ _____    ______ ____
ROOT
ATOM      1  C   UNL     1      -0.109   8.307  21.656  0.00  0.00    +0.000 C 
ATOM      2  C   UNL     1       0.929   7.772  20.742  0.00  0.00    +0.000 A 
ATOM      3  C   UNL     1       1.551   8.423  19.663  0.00  0.00    +0.000 A 
ATOM      4  C   UNL     1       2.433   7.502  19.136  0.00  0.00    +0.000 A 
ATOM      5  C   UNL     1       3.321   7.627  17.953  0.00  0.00    +0.000 C 
ATOM      6  N   UNL     1       2.328   6.364  19.927  0.00  0.00    +0.000 N 
ATOM      7  C   UNL     1       3.067   5.148  19.832  0.00  0.00    +0.000 A 
ATOM      8  C   UNL     1       2.710   4.080  20.646  0.00  0.00    +0.000 A 
ATOM      9  N   UNL     1       3.332   2.877  20.587  0.00  0.00    +0.000 NA
ATOM     10  C   UNL     1       4.341   2.801  19.688  0.00  0.00    +0.000 A 
ATOM     11  C   UNL     1       4.771   3.878  18.907  0.00  0.00    +0.000 A 
ATOM     12  N   UNL     1       4.111   5.054  18.957  0.00  0.00    +0.000 NA
ATOM     13  N   UNL     1       1.377   6.524  20.893  0.00  0.00    +0.000 NA
ENDROOT
BRANCH  11  14
ATOM     14  N   UNL     1       5.865   3.723  18.039  0.00  0.00    +0.000 N 
ATOM     15  H   UNL     1       6.293   2.807  18.197  0.00  0.00    +0.000 HD
BRANCH  14  16
ATOM     16  C   UNL     1       6.900   4.761  18.180  0.00  0.00    +0.000 C 
BRANCH  16  17
ATOM     17  C   UNL     1       6.788   5.874  17.126  0.00  0.00    +0.000 C 
BRANCH  17  18
ATOM     18  C   UNL     1       6.760   5.337  15.742  0.00  0.00    +0.000 A 
ATOM     19  N   UNL     1       5.904   4.512  15.175  0.00  0.00    +0.000 NA
ATOM     20  C   UNL     1       6.429   4.380  13.915  0.00  0.00    +0.000 A 
ATOM     21  C   UNL     1       5.802   3.544  12.875  0.00  0.00    +0.000 C 
ATOM     22  N   UNL     1       7.551   5.078  13.694  0.00  0.00    +0.000 NA
ATOM     23  O   UNL     1       7.779   5.713  14.916  0.00  0.00    +0.000 OA
ENDBRANCH  17  18
ENDBRANCH  16  17
ENDBRANCH  14  16
ENDBRANCH  11  14
TORSDOF 4
ENDMDL
MODEL 3
REMARK VINA RESULT:      -7.3      1.365      1.764
REMARK  Name = 
REMARK  7 active torsions:
REMARK  status: ('A' for Active; 'I' for Inactive)
REMARK    1  A    between atoms: C_1  and  C_2
REMARK    2  A    between atoms: C_4  and  C_5
REMARK    3  A    between atoms: C_11  and  N_12
REMARK    4  A    between atoms: N_12  and  C_13
REMARK    5  A    between atoms: C_13  and  C_14
REMARK    6  A    between atoms: C_14  and  C_15
REMARK    7  A    between atoms: C_17  and  C_18
REMARK                            x       y       z     vdW  Elec       q    Type
REMARK                         _______ _______ _______ _____ _____    ______ ____
ROOT
ATOM      1  C   UNL     1      -0.410   9.645  23.013  0.00  0.00    +0.000 C 
ATOM      2  C   UNL     1       0.281   9.330  21.739  0.00  0.00    +0.000 A 
ATOM      3  C   UNL     1       0.441  10.158  20.614  0.00  0.00    +0.000 A 
ATOM      4  C   UNL     1       1.147   9.403  19.699  0.00  0.00    +0.000 A 
ATOM      5  C   UNL     1       1.557   9.753  18.316  0.00  0.00    +0.000 C 
ATOM      6  N   UNL     1       1.405   8.184  20.315  0.00  0.00    +0.000 N 
ATOM      7  C   UNL     1       2.148   7.076  19.810  0.00  0.00    +0.000 A 
ATOM      8  C   UNL     1       2.172   5.895  20.541  0.00  0.00    +0.000 A 
ATOM      9  N   UNL     1       2.818   4.783  20.111  0.00  0.00    +0.000 NA
ATOM     10  C   UNL     1       3.454   4.918  18.924  0.00  0.00    +0.000 A 
ATOM     11  C   UNL     1       3.509   6.112  18.200  0.00  0.00    +0.000 A 
ATOM     12  N   UNL     1       2.826   7.195  18.631  0.00  0.00    +0.000 NA
ATOM     13  N   UNL     1       0.840   8.132  21.556  0.00  0.00    +0.000 NA
ENDROOT
BRANCH  11  14
ATOM     14  N   UNL     1       4.241   6.176  17.003  0.00  0.00    +0.000 N 
ATOM     15  H   UNL     1       3.635   6.527  16.256  0.00  0.00    +0.000 HD
BRANCH  14  16
ATOM     16  C   UNL     1       4.820   4.890  16.579  0.00  0.00    +0.000 C 
BRANCH  16  17
ATOM     17  C   UNL     1       6.328   4.971  16.291  0.00  0.00    +0.000 C 
BRANCH  17  18
ATOM     18  C   UNL     1       6.991   6.053  17.062  0.00  0.00    +0.000 A 
ATOM     19  N   UNL     1       7.113   7.334  16.781  0.00  0.00    +0.000 NA
ATOM     20  C   UNL     1       7.839   7.792  17.851  0.00  0.00    +0.000 A 
ATOM     21  C   UNL     1       8.229   9.206  18.002  0.00  0.00    +0.000 C 
ATOM     22  N   UNL     1       8.158   6.859  18.757  0.00  0.00    +0.000 NA
ATOM     23  O   UNL     1       7.599   5.694  18.228  0.00  0.00    +0.000 OA
ENDBRANCH  17  18
ENDBRANCH  16  17
ENDBRANCH  14  16
ENDBRANCH  11  14
TORSDOF 4
ENDMDL
MODEL 4
REMARK VINA RESULT:      -7.1      1.943      2.506
REMARK  Name = 
REMARK  7 active torsions:
REMARK  status: ('A' for Active; 'I' for Inactive)
REMARK    1  A    between atoms: C_1  and  C_2
REMARK    2  A    between atoms: C_4  and  C_5
REMARK    3  A    between atoms: C_11  and  N_12
REMARK    4  A    between atoms: N_12  and  C_13
REMARK    5  A    between atoms: C_13  and  C_14
REMARK    6  A    between atoms: C_14  and  C_15
REMARK    7  A    between atoms: C_17  and  C_18
REMARK                            x       y       z     vdW  Elec       q    Type
REMARK                         _______ _______ _______ _____ _____    ______ ____
ROOT
ATOM      1  C   UNL     1       0.653  10.230  20.558  0.00  0.00    +0.000 C 
ATOM      2  C   UNL     1       1.371   9.148  19.841  0.00  0.00    +0.000 A 
ATOM      3  C   UNL     1       2.008   9.213  18.589  0.00  0.00    +0.000 A 
ATOM      4  C   UNL     1       2.519   7.950  18.371  0.00  0.00    +0.000 A 
ATOM      5  C   UNL     1       3.246   7.428  17.186  0.00  0.00    +0.000 C 
ATOM      6  N   UNL     1       2.200   7.199  19.496  0.00  0.00    +0.000 N 
ATOM      7  C   UNL     1       2.547   5.846  19.786  0.00  0.00    +0.000 A 
ATOM      8  C   UNL     1       2.011   5.243  20.917  0.00  0.00    +0.000 A 
ATOM      9  N   UNL     1       2.255   3.949  21.239  0.00  0.00    +0.000 NA
ATOM     10  C   UNL     1       3.078   3.295  20.386  0.00  0.00    +0.000 A 
ATOM     11  C   UNL     1       3.690   3.894  19.282  0.00  0.00    +0.000 A 
ATOM     12  N   UNL     1       3.401   5.173  18.960  0.00  0.00    +0.000 NA
ATOM     13  N   UNL     1       1.465   7.932  20.382  0.00  0.00    +0.000 NA
ENDROOT
BRANCH  11  14
ATOM     14  N   UNL     1       4.576   3.152  18.481  0.00  0.00    +0.000 N 
ATOM     15  H   UNL     1       5.468   3.048  18.974  0.00  0.00    +0.000 HD
BRANCH  14  16
ATOM     16  C   UNL     1       4.830   3.741  17.156  0.00  0.00    +0.000 C 
BRANCH  16  17
ATOM     17  C   UNL     1       6.247   4.319  17.013  0.00  0.00    +0.000 C 
BRANCH  17  18
ATOM     18  C   UNL     1       6.638   4.504  15.592  0.00  0.00    +0.000 A 
ATOM     19  N   UNL     1       6.264   3.835  14.522  0.00  0.00    +0.000 NA
ATOM     20  C   UNL     1       6.982   4.457  13.532  0.00  0.00    +0.000 A 
ATOM     21  C   UNL     1       6.891   4.062  12.115  0.00  0.00    +0.000 C 
ATOM     22  N   UNL     1       7.765   5.461  13.949  0.00  0.00    +0.000 NA
ATOM     23  O   UNL     1       7.543   5.490  15.327  0.00  0.00    +0.000 OA
ENDBRANCH  17  18
ENDBRANCH  16  17
ENDBRANCH  14  16
ENDBRANCH  11  14
TORSDOF 4
ENDMDL
MODEL 5
REMARK VINA RESULT:      -7.1      1.765      2.304
REMARK  Name = 
REMARK  7 active torsions:
REMARK  status: ('A' for Active; 'I' for Inactive)
REMARK    1  A    between atoms: C_1  and  C_2
REMARK    2  A    between atoms: C_4  and  C_5
REMARK    3  A    between atoms: C_11  and  N_12
REMARK    4  A    between atoms: N_12  and  C_13
REMARK    5  A    between atoms: C_13  and  C_14
REMARK    6  A    between atoms: C_14  and  C_15
REMARK    7  A    between atoms: C_17  and  C_18
REMARK                            x       y       z     vdW  Elec       q    Type
REMARK                         _______ _______ _______ _____ _____    ______ ____
ROOT
ATOM      1  C   UNL     1       0.188   9.102  21.830  0.00  0.00    +0.000 C 
ATOM      2  C   UNL     1       1.005   8.252  20.930  0.00  0.00    +0.000 A 
ATOM      3  C   UNL     1       1.611   8.611  19.713  0.00  0.00    +0.000 A 
ATOM      4  C   UNL     1       2.249   7.471  19.270  0.00  0.00    +0.000 A 
ATOM      5  C   UNL     1       3.008   7.253  18.013  0.00  0.00    +0.000 C 
ATOM      6  N   UNL     1       2.030   6.498  20.238  0.00  0.00    +0.000 N 
ATOM      7  C   UNL     1       2.524   5.161  20.278  0.00  0.00    +0.000 A 
ATOM      8  C   UNL     1       2.073   4.308  21.279  0.00  0.00    +0.000 A 
ATOM      9  N   UNL     1       2.459   3.011  21.361  0.00  0.00    +0.000 NA
ATOM     10  C   UNL     1       3.332   2.615  20.406  0.00  0.00    +0.000 A 
ATOM     11  C   UNL     1       3.859   3.466  19.431  0.00  0.00    +0.000 A 
ATOM     12  N   UNL     1       3.430   4.744  19.346  0.00  0.00    +0.000 NA
ATOM     13  N   UNL     1       1.236   6.975  21.241  0.00  0.00    +0.000 NA
ENDROOT
BRANCH  11  14
ATOM     14  N   UNL     1       4.805   2.981  18.511  0.00  0.00    +0.000 N 
ATOM     15  H   UNL     1       5.739   3.040  18.927  0.00  0.00    +0.000 HD
BRANCH  14  16
ATOM     16  C   UNL     1       4.813   3.691  17.221  0.00  0.00    +0.000 C 
BRANCH  16  17
ATOM     17  C   UNL     1       6.066   4.557  17.016  0.00  0.00    +0.000 C 
BRANCH  17  18
ATOM     18  C   UNL     1       6.496   4.597  15.595  0.00  0.00    +0.000 A 
ATOM     19  N   UNL     1       7.394   5.360  15.008  0.00  0.00    +0.000 NA
ATOM     20  C   UNL     1       7.311   4.945  13.703  0.00  0.00    +0.000 A 
ATOM     21  C   UNL     1       8.153   5.510  12.633  0.00  0.00    +0.000 C 
ATOM     22  N   UNL     1       6.414   3.977  13.475  0.00  0.00    +0.000 NA
ATOM     23  O   UNL     1       5.861   3.748  14.737  0.00  0.00    +0.000 OA
ENDBRANCH  17  18
ENDBRANCH  16  17
ENDBRANCH  14  16
ENDBRANCH  11  14
TORSDOF 4
ENDMDL
MODEL 6
REMARK VINA RESULT:      -7.0      2.145      3.976
REMARK  Name = 
REMARK  7 active torsions:
REMARK  status: ('A' for Active; 'I' for Inactive)
REMARK    1  A    between atoms: C_1  and  C_2
REMARK    2  A    between atoms: C_4  and  C_5
REMARK    3  A    between atoms: C_11  and  N_12
REMARK    4  A    between atoms: N_12  and  C_13
REMARK    5  A    between atoms: C_13  and  C_14
REMARK    6  A    between atoms: C_14  and  C_15
REMARK    7  A    between atoms: C_17  and  C_18
REMARK                            x       y       z     vdW  Elec       q    Type
REMARK                         _______ _______ _______ _____ _____    ______ ____
ROOT
ATOM      1  C   UNL     1      -2.002  12.711  20.562  0.00  0.00    +0.000 C 
ATOM      2  C   UNL     1      -1.069  11.588  20.825  0.00  0.00    +0.000 A 
ATOM      3  C   UNL     1      -0.765  10.986  22.059  0.00  0.00    +0.000 A 
ATOM      4  C   UNL     1       0.153   9.997  21.769  0.00  0.00    +0.000 A 
ATOM      5  C   UNL     1       0.858   9.076  22.695  0.00  0.00    +0.000 C 
ATOM      6  N   UNL     1       0.335  10.024  20.392  0.00  0.00    +0.000 N 
ATOM      7  C   UNL     1       1.144   9.167  19.588  0.00  0.00    +0.000 A 
ATOM      8  C   UNL     1       1.288   9.454  18.236  0.00  0.00    +0.000 A 
ATOM      9  N   UNL     1       2.072   8.715  17.413  0.00  0.00    +0.000 NA
ATOM     10  C   UNL     1       2.690   7.667  18.005  0.00  0.00    +0.000 A 
ATOM     11  C   UNL     1       2.509   7.310  19.344  0.00  0.00    +0.000 A 
ATOM     12  N   UNL     1       1.752   8.083  20.152  0.00  0.00    +0.000 NA
ATOM     13  N   UNL     1      -0.393  11.027  19.820  0.00  0.00    +0.000 NA
ENDROOT
BRANCH  11  14
ATOM     14  N   UNL     1       3.148   6.170  19.860  0.00  0.00    +0.000 N 
ATOM     15  H   UNL     1       4.162   6.290  19.786  0.00  0.00    +0.000 HD
BRANCH  14  16
ATOM     16  C   UNL     1       2.768   4.911  19.197  0.00  0.00    +0.000 C 
BRANCH  16  17
ATOM     17  C   UNL     1       3.932   4.251  18.441  0.00  0.00    +0.000 C 
BRANCH  17  18
ATOM     18  C   UNL     1       5.220   4.955  18.666  0.00  0.00    +0.000 A 
ATOM     19  N   UNL     1       5.830   5.854  17.921  0.00  0.00    +0.000 NA
ATOM     20  C   UNL     1       6.973   6.092  18.642  0.00  0.00    +0.000 A 
ATOM     21  C   UNL     1       7.998   7.060  18.212  0.00  0.00    +0.000 C 
ATOM     22  N   UNL     1       7.082   5.388  19.776  0.00  0.00    +0.000 NA
ATOM     23  O   UNL     1       5.915   4.621  19.791  0.00  0.00    +0.000 OA
ENDBRANCH  17  18
ENDBRANCH  16  17
ENDBRANCH  14  16
ENDBRANCH  11  14
TORSDOF 4
ENDMDL
MODEL 7
REMARK VINA RESULT:      -6.8      2.065      2.996
REMARK  Name = 
REMARK  7 active torsions:
REMARK  status: ('A' for Active; 'I' for Inactive)
REMARK    1  A    between atoms: C_1  and  C_2
REMARK    2  A    between atoms: C_4  and  C_5
REMARK    3  A    between atoms: C_11  and  N_12
REMARK    4  A    between atoms: N_12  and  C_13
REMARK    5  A    between atoms: C_13  and  C_14
REMARK    6  A    between atoms: C_14  and  C_15
REMARK    7  A    between atoms: C_17  and  C_18
REMARK                            x       y       z     vdW  Elec       q    Type
REMARK                         _______ _______ _______ _____ _____    ______ ____
ROOT
ATOM      1  C   UNL     1      -0.487  10.104  22.636  0.00  0.00    +0.000 C 
ATOM      2  C   UNL     1       0.264   9.682  21.428  0.00  0.00    +0.000 A 
ATOM      3  C   UNL     1       0.516  10.425  20.262  0.00  0.00    +0.000 A 
ATOM      4  C   UNL     1       1.247   9.588  19.443  0.00  0.00    +0.000 A 
ATOM      5  C   UNL     1       1.747   9.829  18.066  0.00  0.00    +0.000 C 
ATOM      6  N   UNL     1       1.428   8.407  20.153  0.00  0.00    +0.000 N 
ATOM      7  C   UNL     1       2.161   7.245  19.769  0.00  0.00    +0.000 A 
ATOM      8  C   UNL     1       2.103   6.117  20.578  0.00  0.00    +0.000 A 
ATOM      9  N   UNL     1       2.734   4.959  20.262  0.00  0.00    +0.000 NA
ATOM     10  C   UNL     1       3.440   4.993  19.108  0.00  0.00    +0.000 A 
ATOM     11  C   UNL     1       3.577   6.132  18.310  0.00  0.00    +0.000 A 
ATOM     12  N   UNL     1       2.908   7.262  18.627  0.00  0.00    +0.000 NA
ATOM     13  N   UNL     1       0.792   8.458  21.360  0.00  0.00    +0.000 NA
ENDROOT
BRANCH  11  14
ATOM     14  N   UNL     1       4.378   6.091  17.157  0.00  0.00    +0.000 N 
ATOM     15  H   UNL     1       4.300   5.165  16.726  0.00  0.00    +0.000 HD
BRANCH  14  16
ATOM     16  C   UNL     1       5.801   6.384  17.397  0.00  0.00    +0.000 C 
BRANCH  16  17
ATOM     17  C   UNL     1       6.721   5.185  17.117  0.00  0.00    +0.000 C 
BRANCH  17  18
ATOM     18  C   UNL     1       6.740   4.815  15.679  0.00  0.00    +0.000 A 
ATOM     19  N   UNL     1       7.483   5.284  14.698  0.00  0.00    +0.000 NA
ATOM     20  C   UNL     1       7.016   4.572  13.622  0.00  0.00    +0.000 A 
ATOM     21  C   UNL     1       7.559   4.739  12.262  0.00  0.00    +0.000 C 
ATOM     22  N   UNL     1       6.037   3.703  13.903  0.00  0.00    +0.000 NA
ATOM     23  O   UNL     1       5.845   3.868  15.276  0.00  0.00    +0.000 OA
ENDBRANCH  17  18
ENDBRANCH  16  17
ENDBRANCH  14  16
ENDBRANCH  11  14
TORSDOF 4
ENDMDL
MODEL 8
REMARK VINA RESULT:      -6.7      2.117      4.464
REMARK  Name = 
REMARK  7 active torsions:
REMARK  status: ('A' for Active; 'I' for Inactive)
REMARK    1  A    between atoms: C_1  and  C_2
REMARK    2  A    between atoms: C_4  and  C_5
REMARK    3  A    between atoms: C_11  and  N_12
REMARK    4  A    between atoms: N_12  and  C_13
REMARK    5  A    between atoms: C_13  and  C_14
REMARK    6  A    between atoms: C_14  and  C_15
REMARK    7  A    between atoms: C_17  and  C_18
REMARK                            x       y       z     vdW  Elec       q    Type
REMARK                         _______ _______ _______ _____ _____    ______ ____
ROOT
ATOM      1  C   UNL     1       1.064   2.477  22.296  0.00  0.00    +0.000 C 
ATOM      2  C   UNL     1       2.050   3.005  21.322  0.00  0.00    +0.000 A 
ATOM      3  C   UNL     1       3.202   2.369  20.826  0.00  0.00    +0.000 A 
ATOM      4  C   UNL     1       3.776   3.274  19.957  0.00  0.00    +0.000 A 
ATOM      5  C   UNL     1       5.039   3.157  19.184  0.00  0.00    +0.000 C 
ATOM      6  N   UNL     1       2.943   4.386  19.943  0.00  0.00    +0.000 N 
ATOM      7  C   UNL     1       3.065   5.576  19.166  0.00  0.00    +0.000 A 
ATOM      8  C   UNL     1       2.188   6.627  19.405  0.00  0.00    +0.000 A 
ATOM      9  N   UNL     1       2.265   7.806  18.741  0.00  0.00    +0.000 NA
ATOM     10  C   UNL     1       3.249   7.875  17.814  0.00  0.00    +0.000 A 
ATOM     11  C   UNL     1       4.099   6.812  17.500  0.00  0.00    +0.000 A 
ATOM     12  N   UNL     1       4.027   5.660  18.202  0.00  0.00    +0.000 NA
ATOM     13  N   UNL     1       1.901   4.228  20.811  0.00  0.00    +0.000 NA
ENDROOT
BRANCH  11  14
ATOM     14  N   UNL     1       5.057   6.955  16.482  0.00  0.00    +0.000 N 
ATOM     15  H   UNL     1       4.926   6.212  15.790  0.00  0.00    +0.000 HD
BRANCH  14  16
ATOM     16  C   UNL     1       6.451   6.923  16.955  0.00  0.00    +0.000 C 
BRANCH  16  17
ATOM     17  C   UNL     1       7.142   5.571  16.711  0.00  0.00    +0.000 C 
BRANCH  17  18
ATOM     18  C   UNL     1       6.984   5.104  15.311  0.00  0.00    +0.000 A 
ATOM     19  N   UNL     1       6.138   4.230  14.805  0.00  0.00    +0.000 NA
ATOM     20  C   UNL     1       6.506   4.211  13.483  0.00  0.00    +0.000 A 
ATOM     21  C   UNL     1       5.826   3.372  12.480  0.00  0.00    +0.000 C 
ATOM     22  N   UNL     1       7.523   5.024  13.169  0.00  0.00    +0.000 NA
ATOM     23  O   UNL     1       7.850   5.616  14.390  0.00  0.00    +0.000 OA
ENDBRANCH  17  18
ENDBRANCH  16  17
ENDBRANCH  14  16
ENDBRANCH  11  14
TORSDOF 4
ENDMDL
MODEL 9
REMARK VINA RESULT:      -6.7      2.270      3.189
REMARK  Name = 
REMARK  7 active torsions:
REMARK  status: ('A' for Active; 'I' for Inactive)
REMARK    1  A    between atoms: C_1  and  C_2
REMARK    2  A    between atoms: C_4  and  C_5
REMARK    3  A    between atoms: C_11  and  N_12
REMARK    4  A    between atoms: N_12  and  C_13
REMARK    5  A    between atoms: C_13  and  C_14
REMARK    6  A    between atoms: C_14  and  C_15
REMARK    7  A    between atoms: C_17  and  C_18
REMARK                            x       y       z     vdW  Elec       q    Type
REMARK                         _______ _______ _______ _____ _____    ______ ____
ROOT
ATOM      1  C   UNL     1       0.468   8.226  21.628  0.00  0.00    +0.000 C 
ATOM      2  C   UNL     1       1.370   7.692  20.578  0.00  0.00    +0.000 A 
ATOM      3  C   UNL     1       1.953   8.386  19.503  0.00  0.00    +0.000 A 
ATOM      4  C   UNL     1       2.698   7.447  18.820  0.00  0.00    +0.000 A 
ATOM      5  C   UNL     1       3.487   7.606  17.572  0.00  0.00    +0.000 C 
ATOM      6  N   UNL     1       2.559   6.254  19.519  0.00  0.00    +0.000 N 
ATOM      7  C   UNL     1       3.173   4.994  19.253  0.00  0.00    +0.000 A 
ATOM      8  C   UNL     1       2.792   3.889  20.004  0.00  0.00    +0.000 A 
ATOM      9  N   UNL     1       3.294   2.649  19.785  0.00  0.00    +0.000 NA
ATOM     10  C   UNL     1       4.210   2.573  18.792  0.00  0.00    +0.000 A 
ATOM     11  C   UNL     1       4.668   3.677  18.067  0.00  0.00    +0.000 A 
ATOM     12  N   UNL     1       4.124   4.895  18.278  0.00  0.00    +0.000 NA
ATOM     13  N   UNL     1       1.714   6.403  20.580  0.00  0.00    +0.000 NA
ENDROOT
BRANCH  11  14
ATOM     14  N   UNL     1       5.663   3.513  17.090  0.00  0.00    +0.000 N 
ATOM     15  H   UNL     1       6.267   2.728  17.353  0.00  0.00    +0.000 HD
BRANCH  14  16
ATOM     16  C   UNL     1       6.501   4.705  16.874  0.00  0.00    +0.000 C 
BRANCH  16  17
ATOM     17  C   UNL     1       6.049   5.552  15.673  0.00  0.00    +0.000 C 
BRANCH  17  18
ATOM     18  C   UNL     1       6.204   4.829  14.385  0.00  0.00    +0.000 A 
ATOM     19  N   UNL     1       5.450   3.893  13.848  0.00  0.00    +0.000 NA
ATOM     20  C   UNL     1       6.125   3.615  12.686  0.00  0.00    +0.000 A 
ATOM     21  C   UNL     1       5.654   2.615  11.712  0.00  0.00    +0.000 C 
ATOM     22  N   UNL     1       7.241   4.332  12.497  0.00  0.00    +0.000 NA
ATOM     23  O   UNL     1       7.301   5.139  13.635  0.00  0.00    +0.000 OA
ENDBRANCH  17  18
ENDBRANCH  16  17
ENDBRANCH  14  16
ENDBRANCH  11  14
TORSDOF 4
ENDMDL
