MODEL 1
REMARK VINA RESULT:      -7.4      0.000      0.000
REMARK  Name = 
REMARK  6 active torsions:
REMARK  status: ('A' for Active; 'I' for Inactive)
REMARK    1  A    between atoms: C_1  and  C_2
REMARK    2  A    between atoms: C_2  and  O_3
REMARK    3  A    between atoms: O_3  and  C_4
REMARK    4  A    between atoms: C_7  and  S_8
REMARK    5  A    between atoms: S_8  and  N_11
REMARK    6  A    between atoms: N_11  and  C_12
REMARK                            x       y       z     vdW  Elec       q    Type
REMARK                         _______ _______ _______ _____ _____    ______ ____
ROOT
ATOM      1  C   UNL     1       3.057   3.945  18.712  0.00  0.00    +0.000 A 
ATOM      2  C   UNL     1       4.147   3.081  18.592  0.00  0.00    +0.000 A 
ATOM      3  C   UNL     1       5.365   3.549  18.113  0.00  0.00    +0.000 A 
ATOM      4  C   UNL     1       5.519   4.891  17.731  0.00  0.00    +0.000 A 
ATOM      5  C   UNL     1       4.431   5.805  17.828  0.00  0.00    +0.000 A 
ATOM      6  C   UNL     1       4.477   7.169  17.445  0.00  0.00    +0.000 A 
ATOM      7  C   UNL     1       3.380   8.022  17.562  0.00  0.00    +0.000 A 
ATOM      8  C   UNL     1       2.190   7.543  18.074  0.00  0.00    +0.000 A 
ATOM      9  C   UNL     1       2.098   6.205  18.452  0.00  0.00    +0.000 A 
ATOM     10  C   UNL     1       3.189   5.311  18.335  0.00  0.00    +0.000 A 
ENDROOT
BRANCH   4  11
ATOM     11  S   UNL     1       7.177   5.370  17.235  0.00  0.00    +0.000 S 
ATOM     12  O   UNL     1       7.685   6.397  18.116  0.00  0.00    +0.000 OA
ATOM     13  O   UNL     1       7.935   4.147  17.045  0.00  0.00    +0.000 OA
BRANCH  11  14
ATOM     14  N   UNL     1       6.987   5.999  15.691  0.00  0.00    +0.000 N 
ATOM     15  H   UNL     1       7.386   6.926  15.559  0.00  0.00    +0.000 HD
BRANCH  14  16
ATOM     16  C   UNL     1       6.776   5.166  14.566  0.00  0.00    +0.000 A 
ATOM     17  C   UNL     1       5.641   4.369  14.493  0.00  0.00    +0.000 A 
ATOM     18  C   UNL     1       5.462   3.609  13.350  0.00  0.00    +0.000 A 
ATOM     19  N   UNL     1       6.334   3.591  12.318  0.00  0.00    +0.000 NA
ATOM     20  C   UNL     1       7.433   4.367  12.431  0.00  0.00    +0.000 A 
ATOM     21  C   UNL     1       7.694   5.174  13.524  0.00  0.00    +0.000 A 
ENDBRANCH  14  16
ENDBRANCH  11  14
ENDBRANCH   4  11
BRANCH   1  22
ATOM     22  O   UNL     1       1.828   3.545  19.193  0.00  0.00    +0.000 OA
BRANCH  22  24
ATOM     23  C   UNL     1       1.876   3.065  21.548  0.00  0.00    +0.000 C 
ATOM     24  C   UNL     1       1.803   2.481  20.147  0.00  0.00    +0.000 C 
ENDBRANCH  22  24
ENDBRANCH   1  22
TORSDOF 5
ENDMDL
MODEL 2
REMARK VINA RESULT:      -7.4      1.339      1.544
REMARK  Name = 
REMARK  6 active torsions:
REMARK  status: ('A' for Active; 'I' for Inactive)
REMARK    1  A    between atoms: C_1  and  C_2
REMARK    2  A    between atoms: C_2  and  O_3
REMARK    3  A    between atoms: O_3  and  C_4
REMARK    4  A    between atoms: C_7  and  S_8
REMARK    5  A    between atoms: S_8  and  N_11
REMARK    6  A    between atoms: N_11  and  C_12
REMARK                            x       y       z     vdW  Elec       q    Type
REMARK                         _______ _______ _______ _____ _____    ______ ____
ROOT
ATOM      1  C   UNL     1       3.708   4.581  19.658  0.00  0.00    +0.000 A 
ATOM      2  C   UNL     1       4.783   3.963  19.017  0.00  0.00    +0.000 A 
ATOM      3  C   UNL     1       5.433   4.596  17.963  0.00  0.00    +0.000 A 
ATOM      4  C   UNL     1       5.014   5.861  17.518  0.00  0.00    +0.000 A 
ATOM      5  C   UNL     1       3.916   6.524  18.138  0.00  0.00    +0.000 A 
ATOM      6  C   UNL     1       3.403   7.786  17.747  0.00  0.00    +0.000 A 
ATOM      7  C   UNL     1       2.324   8.392  18.390  0.00  0.00    +0.000 A 
ATOM      8  C   UNL     1       1.717   7.759  19.456  0.00  0.00    +0.000 A 
ATOM      9  C   UNL     1       2.183   6.511  19.866  0.00  0.00    +0.000 A 
ATOM     10  C   UNL     1       3.268   5.864  19.227  0.00  0.00    +0.000 A 
ENDROOT
BRANCH   4  11
ATOM     11  S   UNL     1       6.017   6.596  16.224  0.00  0.00    +0.000 S 
ATOM     12  O   UNL     1       5.182   7.015  15.120  0.00  0.00    +0.000 OA
ATOM     13  O   UNL     1       6.900   7.556  16.860  0.00  0.00    +0.000 OA
BRANCH  11  14
ATOM     14  N   UNL     1       7.028   5.354  15.722  0.00  0.00    +0.000 N 
ATOM     15  H   UNL     1       7.427   4.801  16.477  0.00  0.00    +0.000 HD
BRANCH  14  16
ATOM     16  C   UNL     1       6.937   4.796  14.424  0.00  0.00    +0.000 A 
ATOM     17  C   UNL     1       6.015   3.790  14.162  0.00  0.00    +0.000 A 
ATOM     18  C   UNL     1       5.936   3.313  12.865  0.00  0.00    +0.000 A 
ATOM     19  N   UNL     1       6.712   3.761  11.853  0.00  0.00    +0.000 NA
ATOM     20  C   UNL     1       7.606   4.728  12.149  0.00  0.00    +0.000 A 
ATOM     21  C   UNL     1       7.750   5.282  13.408  0.00  0.00    +0.000 A 
ENDBRANCH  14  16
ENDBRANCH  11  14
ENDBRANCH   4  11
BRANCH   1  22
ATOM     22  O   UNL     1       3.033   4.011  20.716  0.00  0.00    +0.000 OA
BRANCH  22  24
ATOM     23  C   UNL     1       1.402   2.525  21.671  0.00  0.00    +0.000 C 
ATOM     24  C   UNL     1       2.250   2.844  20.452  0.00  0.00    +0.000 C 
ENDBRANCH  22  24
ENDBRANCH   1  22
TORSDOF 5
ENDMDL
MODEL 3
REMARK VINA RESULT:      -7.3      0.691      1.287
REMARK  Name = 
REMARK  6 active torsions:
REMARK  status: ('A' for Active; 'I' for Inactive)
REMARK    1  A    between atoms: C_1  and  C_2
REMARK    2  A    between atoms: C_2  and  O_3
REMARK    3  A    between atoms: O_3  and  C_4
REMARK    4  A    between atoms: C_7  and  S_8
REMARK    5  A    between atoms: S_8  and  N_11
REMARK    6  A    between atoms: N_11  and  C_12
REMARK                            x       y       z     vdW  Elec       q    Type
REMARK                         _______ _______ _______ _____ _____    ______ ____
ROOT
ATOM      1  C   UNL     1       3.507   4.242  19.617  0.00  0.00    +0.000 A 
ATOM      2  C   UNL     1       4.617   3.431  19.372  0.00  0.00    +0.000 A 
ATOM      3  C   UNL     1       5.621   3.855  18.509  0.00  0.00    +0.000 A 
ATOM      4  C   UNL     1       5.534   5.098  17.861  0.00  0.00    +0.000 A 
ATOM      5  C   UNL     1       4.416   5.953  18.076  0.00  0.00    +0.000 A 
ATOM      6  C   UNL     1       4.222   7.211  17.452  0.00  0.00    +0.000 A 
ATOM      7  C   UNL     1       3.107   8.011  17.698  0.00  0.00    +0.000 A 
ATOM      8  C   UNL     1       2.139   7.584  18.586  0.00  0.00    +0.000 A 
ATOM      9  C   UNL     1       2.284   6.348  19.213  0.00  0.00    +0.000 A 
ATOM     10  C   UNL     1       3.399   5.507  18.975  0.00  0.00    +0.000 A 
ENDROOT
BRANCH   4  11
ATOM     11  S   UNL     1       6.957   5.552  16.865  0.00  0.00    +0.000 S 
ATOM     12  O   UNL     1       7.628   6.695  17.443  0.00  0.00    +0.000 OA
ATOM     13  O   UNL     1       7.704   4.336  16.607  0.00  0.00    +0.000 OA
BRANCH  11  14
ATOM     14  N   UNL     1       6.306   5.978  15.377  0.00  0.00    +0.000 N 
ATOM     15  H   UNL     1       6.166   6.978  15.247  0.00  0.00    +0.000 HD
BRANCH  14  16
ATOM     16  C   UNL     1       6.421   5.137  14.244  0.00  0.00    +0.000 A 
ATOM     17  C   UNL     1       7.500   5.277  13.380  0.00  0.00    +0.000 A 
ATOM     18  C   UNL     1       7.588   4.398  12.315  0.00  0.00    +0.000 A 
ATOM     19  N   UNL     1       6.679   3.430  12.065  0.00  0.00    +0.000 NA
ATOM     20  C   UNL     1       5.637   3.334  12.918  0.00  0.00    +0.000 A 
ATOM     21  C   UNL     1       5.468   4.153  14.020  0.00  0.00    +0.000 A 
ENDBRANCH  14  16
ENDBRANCH  11  14
ENDBRANCH   4  11
BRANCH   1  22
ATOM     22  O   UNL     1       2.486   3.884  20.472  0.00  0.00    +0.000 OA
BRANCH  22  24
ATOM     23  C   UNL     1       0.985   2.675  19.035  0.00  0.00    +0.000 C 
ATOM     24  C   UNL     1       1.867   2.611  20.269  0.00  0.00    +0.000 C 
ENDBRANCH  22  24
ENDBRANCH   1  22
TORSDOF 5
ENDMDL
MODEL 4
REMARK VINA RESULT:      -7.2      1.415      1.881
REMARK  Name = 
REMARK  6 active torsions:
REMARK  status: ('A' for Active; 'I' for Inactive)
REMARK    1  A    between atoms: C_1  and  C_2
REMARK    2  A    between atoms: C_2  and  O_3
REMARK    3  A    between atoms: O_3  and  C_4
REMARK    4  A    between atoms: C_7  and  S_8
REMARK    5  A    between atoms: S_8  and  N_11
REMARK    6  A    between atoms: N_11  and  C_12
REMARK                            x       y       z     vdW  Elec       q    Type
REMARK                         _______ _______ _______ _____ _____    ______ ____
ROOT
ATOM      1  C   UNL     1       3.351   4.233  19.739  0.00  0.00    +0.000 A 
ATOM      2  C   UNL     1       4.325   3.555  19.003  0.00  0.00    +0.000 A 
ATOM      3  C   UNL     1       4.985   4.191  17.957  0.00  0.00    +0.000 A 
ATOM      4  C   UNL     1       4.678   5.518  17.615  0.00  0.00    +0.000 A 
ATOM      5  C   UNL     1       3.685   6.243  18.333  0.00  0.00    +0.000 A 
ATOM      6  C   UNL     1       3.286   7.573  18.050  0.00  0.00    +0.000 A 
ATOM      7  C   UNL     1       2.307   8.239  18.788  0.00  0.00    +0.000 A 
ATOM      8  C   UNL     1       1.690   7.599  19.844  0.00  0.00    +0.000 A 
ATOM      9  C   UNL     1       2.044   6.286  20.149  0.00  0.00    +0.000 A 
ATOM     10  C   UNL     1       3.026   5.579  19.413  0.00  0.00    +0.000 A 
ENDROOT
BRANCH   4  11
ATOM     11  S   UNL     1       5.689   6.235  16.316  0.00  0.00    +0.000 S 
ATOM     12  O   UNL     1       4.852   6.718  15.241  0.00  0.00    +0.000 OA
ATOM     13  O   UNL     1       6.629   7.137  16.955  0.00  0.00    +0.000 OA
BRANCH  11  14
ATOM     14  N   UNL     1       6.629   4.958  15.764  0.00  0.00    +0.000 N 
ATOM     15  H   UNL     1       6.770   4.213  16.442  0.00  0.00    +0.000 HD
BRANCH  14  16
ATOM     16  C   UNL     1       6.774   4.681  14.384  0.00  0.00    +0.000 A 
ATOM     17  C   UNL     1       7.646   5.436  13.610  0.00  0.00    +0.000 A 
ATOM     18  C   UNL     1       7.784   5.092  12.277  0.00  0.00    +0.000 A 
ATOM     19  N   UNL     1       7.110   4.079  11.691  0.00  0.00    +0.000 NA
ATOM     20  C   UNL     1       6.261   3.376  12.470  0.00  0.00    +0.000 A 
ATOM     21  C   UNL     1       6.065   3.630  13.816  0.00  0.00    +0.000 A 
ENDBRANCH  14  16
ENDBRANCH  11  14
ENDBRANCH   4  11
BRANCH   1  22
ATOM     22  O   UNL     1       2.672   3.662  20.795  0.00  0.00    +0.000 OA
BRANCH  22  24
ATOM     23  C   UNL     1       0.942   2.800  19.365  0.00  0.00    +0.000 C 
ATOM     24  C   UNL     1       1.878   2.505  20.525  0.00  0.00    +0.000 C 
ENDBRANCH  22  24
ENDBRANCH   1  22
TORSDOF 5
ENDMDL
MODEL 5
REMARK VINA RESULT:      -7.1      2.376      3.407
REMARK  Name = 
REMARK  6 active torsions:
REMARK  status: ('A' for Active; 'I' for Inactive)
REMARK    1  A    between atoms: C_1  and  C_2
REMARK    2  A    between atoms: C_2  and  O_3
REMARK    3  A    between atoms: O_3  and  C_4
REMARK    4  A    between atoms: C_7  and  S_8
REMARK    5  A    between atoms: S_8  and  N_11
REMARK    6  A    between atoms: N_11  and  C_12
REMARK                            x       y       z     vdW  Elec       q    Type
REMARK                         _______ _______ _______ _____ _____    ______ ____
ROOT
ATOM      1  C   UNL     1       3.379   4.006  19.153  0.00  0.00    +0.000 A 
ATOM      2  C   UNL     1       4.105   3.134  18.338  0.00  0.00    +0.000 A 
ATOM      3  C   UNL     1       4.675   3.589  17.154  0.00  0.00    +0.000 A 
ATOM      4  C   UNL     1       4.522   4.925  16.750  0.00  0.00    +0.000 A 
ATOM      5  C   UNL     1       3.782   5.846  17.546  0.00  0.00    +0.000 A 
ATOM      6  C   UNL     1       3.549   7.204  17.214  0.00  0.00    +0.000 A 
ATOM      7  C   UNL     1       2.816   8.064  18.031  0.00  0.00    +0.000 A 
ATOM      8  C   UNL     1       2.289   7.599  19.219  0.00  0.00    +0.000 A 
ATOM      9  C   UNL     1       2.485   6.267  19.579  0.00  0.00    +0.000 A 
ATOM     10  C   UNL     1       3.214   5.365  18.766  0.00  0.00    +0.000 A 
ENDROOT
BRANCH   4  11
ATOM     11  S   UNL     1       5.405   5.387  15.257  0.00  0.00    +0.000 S 
ATOM     12  O   UNL     1       5.197   4.396  14.226  0.00  0.00    +0.000 OA
ATOM     13  O   UNL     1       5.092   6.779  14.989  0.00  0.00    +0.000 OA
BRANCH  11  14
ATOM     14  N   UNL     1       7.021   5.393  15.711  0.00  0.00    +0.000 N 
ATOM     15  H   UNL     1       7.679   5.372  14.935  0.00  0.00    +0.000 HD
BRANCH  14  16
ATOM     16  C   UNL     1       7.441   5.893  16.967  0.00  0.00    +0.000 A 
ATOM     17  C   UNL     1       7.694   5.018  18.016  0.00  0.00    +0.000 A 
ATOM     18  C   UNL     1       8.147   5.557  19.207  0.00  0.00    +0.000 A 
ATOM     19  N   UNL     1       8.340   6.879  19.406  0.00  0.00    +0.000 NA
ATOM     20  C   UNL     1       8.069   7.700  18.369  0.00  0.00    +0.000 A 
ATOM     21  C   UNL     1       7.629   7.259  17.135  0.00  0.00    +0.000 A 
ENDBRANCH  14  16
ENDBRANCH  11  14
ENDBRANCH   4  11
BRANCH   1  22
ATOM     22  O   UNL     1       2.802   3.619  20.344  0.00  0.00    +0.000 OA
BRANCH  22  24
ATOM     23  C   UNL     1       0.665   2.902  19.509  0.00  0.00    +0.000 C 
ATOM     24  C   UNL     1       1.894   2.516  20.314  0.00  0.00    +0.000 C 
ENDBRANCH  22  24
ENDBRANCH   1  22
TORSDOF 5
ENDMDL
MODEL 6
REMARK VINA RESULT:      -7.0      2.799      6.221
REMARK  Name = 
REMARK  6 active torsions:
REMARK  status: ('A' for Active; 'I' for Inactive)
REMARK    1  A    between atoms: C_1  and  C_2
REMARK    2  A    between atoms: C_2  and  O_3
REMARK    3  A    between atoms: O_3  and  C_4
REMARK    4  A    between atoms: C_7  and  S_8
REMARK    5  A    between atoms: S_8  and  N_11
REMARK    6  A    between atoms: N_11  and  C_12
REMARK                            x       y       z     vdW  Elec       q    Type
REMARK                         _______ _______ _______ _____ _____    ______ ____
ROOT
ATOM      1  C   UNL     1       7.093   5.930  18.025  0.00  0.00    +0.000 A 
ATOM      2  C   UNL     1       6.592   5.661  19.300  0.00  0.00    +0.000 A 
ATOM      3  C   UNL     1       5.562   4.742  19.472  0.00  0.00    +0.000 A 
ATOM      4  C   UNL     1       5.000   4.079  18.368  0.00  0.00    +0.000 A 
ATOM      5  C   UNL     1       5.475   4.331  17.049  0.00  0.00    +0.000 A 
ATOM      6  C   UNL     1       4.959   3.734  15.872  0.00  0.00    +0.000 A 
ATOM      7  C   UNL     1       5.462   4.015  14.602  0.00  0.00    +0.000 A 
ATOM      8  C   UNL     1       6.509   4.904  14.460  0.00  0.00    +0.000 A 
ATOM      9  C   UNL     1       7.039   5.523  15.591  0.00  0.00    +0.000 A 
ATOM     10  C   UNL     1       6.542   5.267  16.893  0.00  0.00    +0.000 A 
ENDROOT
BRANCH   4  11
ATOM     11  S   UNL     1       3.755   2.846  18.759  0.00  0.00    +0.000 S 
ATOM     12  O   UNL     1       3.786   1.779  17.784  0.00  0.00    +0.000 OA
ATOM     13  O   UNL     1       3.890   2.534  20.170  0.00  0.00    +0.000 OA
BRANCH  11  14
ATOM     14  N   UNL     1       2.298   3.671  18.641  0.00  0.00    +0.000 N 
ATOM     15  H   UNL     1       1.473   3.075  18.646  0.00  0.00    +0.000 HD
BRANCH  14  16
ATOM     16  C   UNL     1       2.178   5.030  19.017  0.00  0.00    +0.000 A 
ATOM     17  C   UNL     1       1.877   5.366  20.330  0.00  0.00    +0.000 A 
ATOM     18  C   UNL     1       1.818   6.711  20.652  0.00  0.00    +0.000 A 
ATOM     19  N   UNL     1       2.021   7.705  19.760  0.00  0.00    +0.000 NA
ATOM     20  C   UNL     1       2.297   7.341  18.490  0.00  0.00    +0.000 A 
ATOM     21  C   UNL     1       2.395   6.025  18.072  0.00  0.00    +0.000 A 
ENDBRANCH  14  16
ENDBRANCH  11  14
ENDBRANCH   4  11
BRANCH   1  22
ATOM     22  O   UNL     1       8.121   6.818  17.792  0.00  0.00    +0.000 OA
BRANCH  22  24
ATOM     23  C   UNL     1       8.646   9.062  18.479  0.00  0.00    +0.000 C 
ATOM     24  C   UNL     1       7.778   8.191  17.587  0.00  0.00    +0.000 C 
ENDBRANCH  22  24
ENDBRANCH   1  22
TORSDOF 5
ENDMDL
MODEL 7
REMARK VINA RESULT:      -7.0      1.058      1.163
REMARK  Name = 
REMARK  6 active torsions:
REMARK  status: ('A' for Active; 'I' for Inactive)
REMARK    1  A    between atoms: C_1  and  C_2
REMARK    2  A    between atoms: C_2  and  O_3
REMARK    3  A    between atoms: O_3  and  C_4
REMARK    4  A    between atoms: C_7  and  S_8
REMARK    5  A    between atoms: S_8  and  N_11
REMARK    6  A    between atoms: N_11  and  C_12
REMARK                            x       y       z     vdW  Elec       q    Type
REMARK                         _______ _______ _______ _____ _____    ______ ____
ROOT
ATOM      1  C   UNL     1       3.355   4.653  20.004  0.00  0.00    +0.000 A 
ATOM      2  C   UNL     1       4.368   3.752  19.669  0.00  0.00    +0.000 A 
ATOM      3  C   UNL     1       5.240   4.032  18.622  0.00  0.00    +0.000 A 
ATOM      4  C   UNL     1       5.111   5.215  17.876  0.00  0.00    +0.000 A 
ATOM      5  C   UNL     1       4.086   6.157  18.178  0.00  0.00    +0.000 A 
ATOM      6  C   UNL     1       3.856   7.363  17.471  0.00  0.00    +0.000 A 
ATOM      7  C   UNL     1       2.837   8.253  17.809  0.00  0.00    +0.000 A 
ATOM      8  C   UNL     1       2.006   7.971  18.875  0.00  0.00    +0.000 A 
ATOM      9  C   UNL     1       2.189   6.789  19.590  0.00  0.00    +0.000 A 
ATOM     10  C   UNL     1       3.207   5.860  19.265  0.00  0.00    +0.000 A 
ENDROOT
BRANCH   4  11
ATOM     11  S   UNL     1       6.374   5.485  16.630  0.00  0.00    +0.000 S 
ATOM     12  O   UNL     1       6.988   6.781  16.813  0.00  0.00    +0.000 OA
ATOM     13  O   UNL     1       7.204   4.296  16.597  0.00  0.00    +0.000 OA
BRANCH  11  14
ATOM     14  N   UNL     1       5.537   5.463  15.175  0.00  0.00    +0.000 N 
ATOM     15  H   UNL     1       4.877   6.228  15.054  0.00  0.00    +0.000 HD
BRANCH  14  16
ATOM     16  C   UNL     1       6.040   4.790  14.035  0.00  0.00    +0.000 A 
ATOM     17  C   UNL     1       5.322   3.745  13.470  0.00  0.00    +0.000 A 
ATOM     18  C   UNL     1       5.837   3.154  12.329  0.00  0.00    +0.000 A 
ATOM     19  N   UNL     1       6.999   3.528  11.752  0.00  0.00    +0.000 NA
ATOM     20  C   UNL     1       7.677   4.538  12.337  0.00  0.00    +0.000 A 
ATOM     21  C   UNL     1       7.239   5.203  13.468  0.00  0.00    +0.000 A 
ENDBRANCH  14  16
ENDBRANCH  11  14
ENDBRANCH   4  11
BRANCH   1  22
ATOM     22  O   UNL     1       2.469   4.439  21.039  0.00  0.00    +0.000 OA
BRANCH  22  24
ATOM     23  C   UNL     1       0.805   3.112  19.922  0.00  0.00    +0.000 C 
ATOM     24  C   UNL     1       1.786   3.184  21.079  0.00  0.00    +0.000 C 
ENDBRANCH  22  24
ENDBRANCH   1  22
TORSDOF 5
ENDMDL
MODEL 8
REMARK VINA RESULT:      -7.0      3.140      6.337
REMARK  Name = 
REMARK  6 active torsions:
REMARK  status: ('A' for Active; 'I' for Inactive)
REMARK    1  A    between atoms: C_1  and  C_2
REMARK    2  A    between atoms: C_2  and  O_3
REMARK    3  A    between atoms: O_3  and  C_4
REMARK    4  A    between atoms: C_7  and  S_8
REMARK    5  A    between atoms: S_8  and  N_11
REMARK    6  A    between atoms: N_11  and  C_12
REMARK                            x       y       z     vdW  Elec       q    Type
REMARK                         _______ _______ _______ _____ _____    ______ ____
ROOT
ATOM      1  C   UNL     1       5.354   4.065  15.948  0.00  0.00    +0.000 A 
ATOM      2  C   UNL     1       4.022   3.646  15.944  0.00  0.00    +0.000 A 
ATOM      3  C   UNL     1       3.254   3.734  17.100  0.00  0.00    +0.000 A 
ATOM      4  C   UNL     1       3.804   4.234  18.292  0.00  0.00    +0.000 A 
ATOM      5  C   UNL     1       5.161   4.663  18.342  0.00  0.00    +0.000 A 
ATOM      6  C   UNL     1       5.816   5.157  19.499  0.00  0.00    +0.000 A 
ATOM      7  C   UNL     1       7.149   5.566  19.494  0.00  0.00    +0.000 A 
ATOM      8  C   UNL     1       7.881   5.502  18.325  0.00  0.00    +0.000 A 
ATOM      9  C   UNL     1       7.280   5.012  17.167  0.00  0.00    +0.000 A 
ATOM     10  C   UNL     1       5.933   4.578  17.142  0.00  0.00    +0.000 A 
ENDROOT
BRANCH   4  11
ATOM     11  S   UNL     1       2.661   4.387  19.667  0.00  0.00    +0.000 S 
ATOM     12  O   UNL     1       1.297   4.301  19.196  0.00  0.00    +0.000 OA
ATOM     13  O   UNL     1       3.119   3.485  20.707  0.00  0.00    +0.000 OA
BRANCH  11  14
ATOM     14  N   UNL     1       2.947   5.924  20.279  0.00  0.00    +0.000 N 
ATOM     15  H   UNL     1       3.804   6.012  20.819  0.00  0.00    +0.000 HD
BRANCH  14  16
ATOM     16  C   UNL     1       2.369   7.078  19.696  0.00  0.00    +0.000 A 
ATOM     17  C   UNL     1       1.609   7.944  20.472  0.00  0.00    +0.000 A 
ATOM     18  C   UNL     1       1.108   9.081  19.862  0.00  0.00    +0.000 A 
ATOM     19  N   UNL     1       1.305   9.381  18.560  0.00  0.00    +0.000 NA
ATOM     20  C   UNL     1       2.036   8.509  17.834  0.00  0.00    +0.000 A 
ATOM     21  C   UNL     1       2.594   7.355  18.354  0.00  0.00    +0.000 A 
ENDBRANCH  14  16
ENDBRANCH  11  14
ENDBRANCH   4  11
BRANCH   1  22
ATOM     22  O   UNL     1       6.162   4.015  14.832  0.00  0.00    +0.000 OA
BRANCH  22  24
ATOM     23  C   UNL     1       6.521   3.494  12.513  0.00  0.00    +0.000 C 
ATOM     24  C   UNL     1       5.526   3.980  13.553  0.00  0.00    +0.000 C 
ENDBRANCH  22  24
ENDBRANCH   1  22
TORSDOF 5
ENDMDL
MODEL 9
REMARK VINA RESULT:      -7.0      2.795      6.277
REMARK  Name = 
REMARK  6 active torsions:
REMARK  status: ('A' for Active; 'I' for Inactive)
REMARK    1  A    between atoms: C_1  and  C_2
REMARK    2  A    between atoms: C_2  and  O_3
REMARK    3  A    between atoms: O_3  and  C_4
REMARK    4  A    between atoms: C_7  and  S_8
REMARK    5  A    between atoms: S_8  and  N_11
REMARK    6  A    between atoms: N_11  and  C_12
REMARK                            x       y       z     vdW  Elec       q    Type
REMARK                         _______ _______ _______ _____ _____    ______ ____
ROOT
ATOM      1  C   UNL     1       7.135   5.788  18.042  0.00  0.00    +0.000 A 
ATOM      2  C   UNL     1       6.639   5.526  19.321  0.00  0.00    +0.000 A 
ATOM      3  C   UNL     1       5.563   4.663  19.495  0.00  0.00    +0.000 A 
ATOM      4  C   UNL     1       4.949   4.049  18.390  0.00  0.00    +0.000 A 
ATOM      5  C   UNL     1       5.417   4.296  17.068  0.00  0.00    +0.000 A 
ATOM      6  C   UNL     1       4.851   3.748  15.890  0.00  0.00    +0.000 A 
ATOM      7  C   UNL     1       5.350   4.021  14.616  0.00  0.00    +0.000 A 
ATOM      8  C   UNL     1       6.441   4.854  14.471  0.00  0.00    +0.000 A 
ATOM      9  C   UNL     1       7.021   5.424  15.603  0.00  0.00    +0.000 A 
ATOM     10  C   UNL     1       6.532   5.175  16.908  0.00  0.00    +0.000 A 
ENDROOT
BRANCH   4  11
ATOM     11  S   UNL     1       3.645   2.879  18.782  0.00  0.00    +0.000 S 
ATOM     12  O   UNL     1       3.623   1.810  17.809  0.00  0.00    +0.000 OA
ATOM     13  O   UNL     1       3.763   2.564  20.193  0.00  0.00    +0.000 OA
BRANCH  11  14
ATOM     14  N   UNL     1       2.230   3.775  18.661  0.00  0.00    +0.000 N 
ATOM     15  H   UNL     1       1.377   3.220  18.654  0.00  0.00    +0.000 HD
BRANCH  14  16
ATOM     16  C   UNL     1       2.173   5.135  19.049  0.00  0.00    +0.000 A 
ATOM     17  C   UNL     1       2.419   6.136  18.118  0.00  0.00    +0.000 A 
ATOM     18  C   UNL     1       2.304   7.449  18.541  0.00  0.00    +0.000 A 
ATOM     19  N   UNL     1       1.982   7.804  19.804  0.00  0.00    +0.000 NA
ATOM     20  C   UNL     1       1.764   6.804  20.685  0.00  0.00    +0.000 A 
ATOM     21  C   UNL     1       1.838   5.463  20.357  0.00  0.00    +0.000 A 
ENDBRANCH  14  16
ENDBRANCH  11  14
ENDBRANCH   4  11
BRANCH   1  22
ATOM     22  O   UNL     1       8.207   6.623  17.806  0.00  0.00    +0.000 OA
BRANCH  22  24
ATOM     23  C   UNL     1       8.008   9.018  17.750  0.00  0.00    +0.000 C 
ATOM     24  C   UNL     1       8.318   7.802  18.606  0.00  0.00    +0.000 C 
ENDBRANCH  22  24
ENDBRANCH   1  22
TORSDOF 5
ENDMDL
