MODEL 1
REMARK VINA RESULT:      -9.0      0.000      0.000
REMARK  Name = 
REMARK  3 active torsions:
REMARK  status: ('A' for Active; 'I' for Inactive)
REMARK    1  A    between atoms: C_6  and  C_7
REMARK    2  A    between atoms: N_14  and  C_15
REMARK    3  A    between atoms: C_15  and  C_16
REMARK                            x       y       z     vdW  Elec       q    Type
REMARK                         _______ _______ _______ _____ _____    ______ ____
ROOT
ATOM      1  C   UNL     1       3.934   3.470  17.873  0.00  0.00    +0.000 A 
ATOM      2  C   UNL     1       3.582   2.104  17.976  0.00  0.00    +0.000 A 
ATOM      3  N   UNL     1       2.616   1.876  18.863  0.00  0.00    +0.000 NA
ATOM      4  N   UNL     1       2.332   3.100  19.363  0.00  0.00    +0.000 N 
ATOM      5  C   UNL     1       1.421   3.393  20.360  0.00  0.00    +0.000 A 
ATOM      6  C   UNL     1       1.240   4.652  20.763  0.00  0.00    +0.000 A 
ATOM      7  C   UNL     1       2.046   5.714  20.066  0.00  0.00    +0.000 A 
ATOM      8  N   UNL     1       1.917   7.042  20.386  0.00  0.00    +0.000 N 
ATOM      9  N   UNL     1       2.920   5.433  19.121  0.00  0.00    +0.000 NA
ATOM     10  C   UNL     1       3.093   4.113  18.766  0.00  0.00    +0.000 A 
ATOM     11  H   UNL     1       2.413   7.659  19.749  0.00  0.00    +0.000 HD
ENDROOT
BRANCH   1  17
ATOM     12  C   UNL     1       5.975   4.885  17.588  0.00  0.00    +0.000 A 
ATOM     13  C   UNL     1       7.011   5.394  16.793  0.00  0.00    +0.000 A 
ATOM     14  C   UNL     1       7.006   5.078  15.453  0.00  0.00    +0.000 A 
ATOM     15  C   UNL     1       6.023   4.293  14.902  0.00  0.00    +0.000 A 
ATOM     16  C   UNL     1       4.994   3.775  15.661  0.00  0.00    +0.000 A 
ATOM     17  C   UNL     1       4.962   4.071  17.035  0.00  0.00    +0.000 A 
ATOM     18  O   UNL     1       6.200   4.096  13.568  0.00  0.00    +0.000 OA
ATOM     19  C   UNL     1       7.383   4.888  13.334  0.00  0.00    +0.000 C 
ATOM     20  O   UNL     1       7.928   5.474  14.534  0.00  0.00    +0.000 OA
ENDBRANCH   1  17
BRANCH   8  21
ATOM     21  C   UNL     1       0.943   7.664  21.256  0.00  0.00    +0.000 C 
BRANCH  21  22
ATOM     22  C   UNL     1       1.399   9.070  21.694  0.00  0.00    +0.000 C 
ATOM     23  C   UNL     1       0.833   9.511  23.056  0.00  0.00    +0.000 C 
ATOM     24  C   UNL     1      -0.657   9.841  22.995  0.00  0.00    +0.000 C 
ATOM     25  N   UNL     1      -0.952  10.847  21.973  0.00  0.00    +0.000 NA
ATOM     26  C   UNL     1      -0.495  10.424  20.650  0.00  0.00    +0.000 C 
ATOM     27  C   UNL     1       1.004  10.116  20.635  0.00  0.00    +0.000 C 
ATOM     28  H   UNL     1      -0.485  11.719  22.223  0.00  0.00    +0.000 HD
ENDBRANCH  21  22
ENDBRANCH   8  21
TORSDOF 3
ENDMDL
MODEL 2
REMARK VINA RESULT:      -8.7      0.624      1.142
REMARK  Name = 
REMARK  3 active torsions:
REMARK  status: ('A' for Active; 'I' for Inactive)
REMARK    1  A    between atoms: C_6  and  C_7
REMARK    2  A    between atoms: N_14  and  C_15
REMARK    3  A    between atoms: C_15  and  C_16
REMARK                            x       y       z     vdW  Elec       q    Type
REMARK                         _______ _______ _______ _____ _____    ______ ____
ROOT
ATOM      1  C   UNL     1       3.885   3.689  17.735  0.00  0.00    +0.000 A 
ATOM      2  C   UNL     1       3.411   2.357  17.798  0.00  0.00    +0.000 A 
ATOM      3  N   UNL     1       2.472   2.177  18.724  0.00  0.00    +0.000 NA
ATOM      4  N   UNL     1       2.331   3.396  19.291  0.00  0.00    +0.000 N 
ATOM      5  C   UNL     1       1.502   3.723  20.348  0.00  0.00    +0.000 A 
ATOM      6  C   UNL     1       1.462   4.973  20.815  0.00  0.00    +0.000 A 
ATOM      7  C   UNL     1       2.329   5.988  20.123  0.00  0.00    +0.000 A 
ATOM      8  N   UNL     1       2.343   7.306  20.507  0.00  0.00    +0.000 N 
ATOM      9  N   UNL     1       3.124   5.674  19.121  0.00  0.00    +0.000 NA
ATOM     10  C   UNL     1       3.154   4.363  18.700  0.00  0.00    +0.000 A 
ATOM     11  H   UNL     1       2.862   7.904  19.871  0.00  0.00    +0.000 HD
ENDROOT
BRANCH   1  17
ATOM     12  C   UNL     1       5.923   5.091  17.376  0.00  0.00    +0.000 A 
ATOM     13  C   UNL     1       6.968   5.546  16.561  0.00  0.00    +0.000 A 
ATOM     14  C   UNL     1       6.985   5.132  15.248  0.00  0.00    +0.000 A 
ATOM     15  C   UNL     1       6.015   4.302  14.742  0.00  0.00    +0.000 A 
ATOM     16  C   UNL     1       4.978   3.835  15.523  0.00  0.00    +0.000 A 
ATOM     17  C   UNL     1       4.923   4.232  16.870  0.00  0.00    +0.000 A 
ATOM     18  O   UNL     1       6.213   4.007  13.429  0.00  0.00    +0.000 OA
ATOM     19  C   UNL     1       7.395   4.786  13.155  0.00  0.00    +0.000 C 
ATOM     20  O   UNL     1       7.919   5.464  14.316  0.00  0.00    +0.000 OA
ENDBRANCH   1  17
BRANCH   8  21
ATOM     21  C   UNL     1       1.476   7.972  21.454  0.00  0.00    +0.000 C 
BRANCH  21  22
ATOM     22  C   UNL     1       0.332   8.717  20.740  0.00  0.00    +0.000 C 
ATOM     23  C   UNL     1       0.786   9.983  19.990  0.00  0.00    +0.000 C 
ATOM     24  C   UNL     1       1.152  11.126  20.935  0.00  0.00    +0.000 C 
ATOM     25  N   UNL     1       0.058  11.445  21.854  0.00  0.00    +0.000 NA
ATOM     26  C   UNL     1      -0.347  10.280  22.639  0.00  0.00    +0.000 C 
ATOM     27  C   UNL     1      -0.766   9.109  21.747  0.00  0.00    +0.000 C 
ATOM     28  H   UNL     1      -0.741  11.777  21.314  0.00  0.00    +0.000 HD
ENDBRANCH  21  22
ENDBRANCH   8  21
TORSDOF 3
ENDMDL
MODEL 3
REMARK VINA RESULT:      -8.7      0.991      1.063
REMARK  Name = 
REMARK  3 active torsions:
REMARK  status: ('A' for Active; 'I' for Inactive)
REMARK    1  A    between atoms: C_6  and  C_7
REMARK    2  A    between atoms: N_14  and  C_15
REMARK    3  A    between atoms: C_15  and  C_16
REMARK                            x       y       z     vdW  Elec       q    Type
REMARK                         _______ _______ _______ _____ _____    ______ ____
ROOT
ATOM      1  C   UNL     1       4.285   4.246  18.444  0.00  0.00    +0.000 A 
ATOM      2  C   UNL     1       4.151   2.986  19.074  0.00  0.00    +0.000 A 
ATOM      3  N   UNL     1       3.248   2.982  20.052  0.00  0.00    +0.000 NA
ATOM      4  N   UNL     1       2.787   4.252  20.080  0.00  0.00    +0.000 N 
ATOM      5  C   UNL     1       1.859   4.774  20.962  0.00  0.00    +0.000 A 
ATOM      6  C   UNL     1       1.492   6.054  20.880  0.00  0.00    +0.000 A 
ATOM      7  C   UNL     1       2.112   6.872  19.780  0.00  0.00    +0.000 A 
ATOM      8  N   UNL     1       1.784   8.191  19.591  0.00  0.00    +0.000 N 
ATOM      9  N   UNL     1       3.001   6.377  18.945  0.00  0.00    +0.000 NA
ATOM     10  C   UNL     1       3.370   5.058  19.094  0.00  0.00    +0.000 A 
ATOM     11  H   UNL     1       2.166   8.582  18.735  0.00  0.00    +0.000 HD
ENDROOT
BRANCH   1  17
ATOM     12  C   UNL     1       6.285   5.484  17.597  0.00  0.00    +0.000 A 
ATOM     13  C   UNL     1       7.205   5.776  16.580  0.00  0.00    +0.000 A 
ATOM     14  C   UNL     1       7.005   5.195  15.349  0.00  0.00    +0.000 A 
ATOM     15  C   UNL     1       5.943   4.357  15.111  0.00  0.00    +0.000 A 
ATOM     16  C   UNL     1       5.026   4.049  16.094  0.00  0.00    +0.000 A 
ATOM     17  C   UNL     1       5.193   4.619  17.368  0.00  0.00    +0.000 A 
ATOM     18  O   UNL     1       5.927   3.884  13.836  0.00  0.00    +0.000 OA
ATOM     19  C   UNL     1       7.075   4.561  13.284  0.00  0.00    +0.000 C 
ATOM     20  O   UNL     1       7.793   5.355  14.251  0.00  0.00    +0.000 OA
ENDBRANCH   1  17
BRANCH   8  21
ATOM     21  C   UNL     1       0.740   8.957  20.238  0.00  0.00    +0.000 C 
BRANCH  21  22
ATOM     22  C   UNL     1       1.319   9.892  21.319  0.00  0.00    +0.000 C 
ATOM     23  C   UNL     1       1.104   9.388  22.758  0.00  0.00    +0.000 C 
ATOM     24  C   UNL     1      -0.350   9.504  23.210  0.00  0.00    +0.000 C 
ATOM     25  N   UNL     1      -0.857  10.870  23.070  0.00  0.00    +0.000 NA
ATOM     26  C   UNL     1      -0.739  11.354  21.695  0.00  0.00    +0.000 C 
ATOM     27  C   UNL     1       0.707  11.300  21.194  0.00  0.00    +0.000 C 
ATOM     28  H   UNL     1      -0.324  11.485  23.686  0.00  0.00    +0.000 HD
ENDBRANCH  21  22
ENDBRANCH   8  21
TORSDOF 3
ENDMDL
MODEL 4
REMARK VINA RESULT:      -8.5      1.274      1.635
REMARK  Name = 
REMARK  3 active torsions:
REMARK  status: ('A' for Active; 'I' for Inactive)
REMARK    1  A    between atoms: C_6  and  C_7
REMARK    2  A    between atoms: N_14  and  C_15
REMARK    3  A    between atoms: C_15  and  C_16
REMARK                            x       y       z     vdW  Elec       q    Type
REMARK                         _______ _______ _______ _____ _____    ______ ____
ROOT
ATOM      1  C   UNL     1       4.118   3.954  18.212  0.00  0.00    +0.000 A 
ATOM      2  C   UNL     1       3.850   2.631  18.635  0.00  0.00    +0.000 A 
ATOM      3  N   UNL     1       2.932   2.563  19.597  0.00  0.00    +0.000 NA
ATOM      4  N   UNL     1       2.597   3.853  19.824  0.00  0.00    +0.000 N 
ATOM      5  C   UNL     1       1.708   4.319  20.774  0.00  0.00    +0.000 A 
ATOM      6  C   UNL     1       1.470   5.627  20.895  0.00  0.00    +0.000 A 
ATOM      7  C   UNL     1       2.186   6.541  19.940  0.00  0.00    +0.000 A 
ATOM      8  N   UNL     1       1.993   7.900  19.961  0.00  0.00    +0.000 N 
ATOM      9  N   UNL     1       3.038   6.097  19.039  0.00  0.00    +0.000 NA
ATOM     10  C   UNL     1       3.274   4.741  18.980  0.00  0.00    +0.000 A 
ATOM     11  H   UNL     1       2.427   8.380  19.178  0.00  0.00    +0.000 HD
ENDROOT
BRANCH   1  17
ATOM     12  C   UNL     1       6.143   5.262  17.550  0.00  0.00    +0.000 A 
ATOM     13  C   UNL     1       7.113   5.623  16.605  0.00  0.00    +0.000 A 
ATOM     14  C   UNL     1       6.989   5.112  15.332  0.00  0.00    +0.000 A 
ATOM     15  C   UNL     1       5.954   4.278  14.988  0.00  0.00    +0.000 A 
ATOM     16  C   UNL     1       4.988   3.903  15.899  0.00  0.00    +0.000 A 
ATOM     17  C   UNL     1       5.077   4.400  17.211  0.00  0.00    +0.000 A 
ATOM     18  O   UNL     1       6.014   3.881  13.689  0.00  0.00    +0.000 OA
ATOM     19  C   UNL     1       7.181   4.601  13.242  0.00  0.00    +0.000 C 
ATOM     20  O   UNL     1       7.833   5.345  14.291  0.00  0.00    +0.000 OA
ENDBRANCH   1  17
BRANCH   8  21
ATOM     21  C   UNL     1       1.017   8.654  20.718  0.00  0.00    +0.000 C 
BRANCH  21  22
ATOM     22  C   UNL     1       0.972  10.126  20.263  0.00  0.00    +0.000 C 
ATOM     23  C   UNL     1      -0.437  10.747  20.301  0.00  0.00    +0.000 C 
ATOM     24  C   UNL     1      -1.344  10.212  19.195  0.00  0.00    +0.000 C 
ATOM     25  N   UNL     1      -0.748  10.387  17.869  0.00  0.00    +0.000 NA
ATOM     26  C   UNL     1       0.560   9.742  17.774  0.00  0.00    +0.000 C 
ATOM     27  C   UNL     1       1.532  10.266  18.835  0.00  0.00    +0.000 C 
ATOM     28  H   UNL     1      -0.642  11.385  17.683  0.00  0.00    +0.000 HD
ENDBRANCH  21  22
ENDBRANCH   8  21
TORSDOF 3
ENDMDL
MODEL 5
REMARK VINA RESULT:      -8.5      1.491      2.068
REMARK  Name = 
REMARK  3 active torsions:
REMARK  status: ('A' for Active; 'I' for Inactive)
REMARK    1  A    between atoms: C_6  and  C_7
REMARK    2  A    between atoms: N_14  and  C_15
REMARK    3  A    between atoms: C_15  and  C_16
REMARK                            x       y       z     vdW  Elec       q    Type
REMARK                         _______ _______ _______ _____ _____    ______ ____
ROOT
ATOM      1  C   UNL     1       4.246   4.060  18.519  0.00  0.00    +0.000 A 
ATOM      2  C   UNL     1       4.026   2.778  19.076  0.00  0.00    +0.000 A 
ATOM      3  N   UNL     1       3.106   2.774  20.038  0.00  0.00    +0.000 NA
ATOM      4  N   UNL     1       2.721   4.066  20.131  0.00  0.00    +0.000 N 
ATOM      5  C   UNL     1       1.810   4.593  21.026  0.00  0.00    +0.000 A 
ATOM      6  C   UNL     1       1.522   5.897  21.011  0.00  0.00    +0.000 A 
ATOM      7  C   UNL     1       2.209   6.735  19.968  0.00  0.00    +0.000 A 
ATOM      8  N   UNL     1       1.964   8.080  19.849  0.00  0.00    +0.000 N 
ATOM      9  N   UNL     1       3.082   6.234  19.120  0.00  0.00    +0.000 NA
ATOM     10  C   UNL     1       3.370   4.889  19.201  0.00  0.00    +0.000 A 
ATOM     11  H   UNL     1       2.385   8.494  19.022  0.00  0.00    +0.000 HD
ENDROOT
BRANCH   1  17
ATOM     12  C   UNL     1       6.404   5.095  17.794  0.00  0.00    +0.000 A 
ATOM     13  C   UNL     1       7.352   5.382  16.803  0.00  0.00    +0.000 A 
ATOM     14  C   UNL     1       7.063   5.005  15.511  0.00  0.00    +0.000 A 
ATOM     15  C   UNL     1       5.888   4.370  15.191  0.00  0.00    +0.000 A 
ATOM     16  C   UNL     1       4.939   4.071  16.147  0.00  0.00    +0.000 A 
ATOM     17  C   UNL     1       5.194   4.436  17.480  0.00  0.00    +0.000 A 
ATOM     18  O   UNL     1       5.796   4.079  13.865  0.00  0.00    +0.000 OA
ATOM     19  C   UNL     1       7.029   4.648  13.380  0.00  0.00    +0.000 C 
ATOM     20  O   UNL     1       7.861   5.193  14.425  0.00  0.00    +0.000 OA
ENDBRANCH   1  17
BRANCH   8  21
ATOM     21  C   UNL     1       0.956   8.870  20.522  0.00  0.00    +0.000 C 
BRANCH  21  22
ATOM     22  C   UNL     1       0.103   9.666  19.515  0.00  0.00    +0.000 C 
ATOM     23  C   UNL     1       0.683   9.689  18.089  0.00  0.00    +0.000 C 
ATOM     24  C   UNL     1       1.925  10.571  17.974  0.00  0.00    +0.000 C 
ATOM     25  N   UNL     1       1.671  11.935  18.441  0.00  0.00    +0.000 NA
ATOM     26  C   UNL     1       1.191  11.954  19.822  0.00  0.00    +0.000 C 
ATOM     27  C   UNL     1      -0.080  11.118  19.996  0.00  0.00    +0.000 C 
ATOM     28  H   UNL     1       0.969  12.365  17.838  0.00  0.00    +0.000 HD
ENDBRANCH  21  22
ENDBRANCH   8  21
TORSDOF 3
ENDMDL
MODEL 6
REMARK VINA RESULT:      -8.0      2.038      3.108
REMARK  Name = 
REMARK  3 active torsions:
REMARK  status: ('A' for Active; 'I' for Inactive)
REMARK    1  A    between atoms: C_6  and  C_7
REMARK    2  A    between atoms: N_14  and  C_15
REMARK    3  A    between atoms: C_15  and  C_16
REMARK                            x       y       z     vdW  Elec       q    Type
REMARK                         _______ _______ _______ _____ _____    ______ ____
ROOT
ATOM      1  C   UNL     1       3.829   5.677  18.734  0.00  0.00    +0.000 A 
ATOM      2  C   UNL     1       3.544   4.697  19.715  0.00  0.00    +0.000 A 
ATOM      3  N   UNL     1       2.597   5.073  20.572  0.00  0.00    +0.000 NA
ATOM      4  N   UNL     1       2.260   6.317  20.166  0.00  0.00    +0.000 N 
ATOM      5  C   UNL     1       1.344   7.161  20.766  0.00  0.00    +0.000 A 
ATOM      6  C   UNL     1       1.107   8.373  20.260  0.00  0.00    +0.000 A 
ATOM      7  C   UNL     1       1.855   8.748  19.011  0.00  0.00    +0.000 A 
ATOM      8  N   UNL     1       1.665   9.960  18.394  0.00  0.00    +0.000 N 
ATOM      9  N   UNL     1       2.732   7.947  18.443  0.00  0.00    +0.000 NA
ATOM     10  C   UNL     1       2.965   6.720  19.026  0.00  0.00    +0.000 A 
ATOM     11  H   UNL     1       2.125  10.028  17.491  0.00  0.00    +0.000 HD
ENDROOT
BRANCH   1  17
ATOM     12  C   UNL     1       6.094   6.208  17.820  0.00  0.00    +0.000 A 
ATOM     13  C   UNL     1       7.075   6.079  16.826  0.00  0.00    +0.000 A 
ATOM     14  C   UNL     1       6.753   5.362  15.696  0.00  0.00    +0.000 A 
ATOM     15  C   UNL     1       5.516   4.789  15.535  0.00  0.00    +0.000 A 
ATOM     16  C   UNL     1       4.533   4.896  16.497  0.00  0.00    +0.000 A 
ATOM     17  C   UNL     1       4.820   5.618  17.669  0.00  0.00    +0.000 A 
ATOM     18  O   UNL     1       5.399   4.122  14.355  0.00  0.00    +0.000 OA
ATOM     19  C   UNL     1       6.692   4.382  13.771  0.00  0.00    +0.000 C 
ATOM     20  O   UNL     1       7.574   5.127  14.638  0.00  0.00    +0.000 OA
ENDBRANCH   1  17
BRANCH   8  21
ATOM     21  C   UNL     1       0.670  10.968  18.687  0.00  0.00    +0.000 C 
BRANCH  21  22
ATOM     22  C   UNL     1      -0.692  10.330  19.022  0.00  0.00    +0.000 C 
ATOM     23  C   UNL     1      -1.617  10.160  17.802  0.00  0.00    +0.000 C 
ATOM     24  C   UNL     1      -2.183  11.488  17.304  0.00  0.00    +0.000 C 
ATOM     25  N   UNL     1      -2.875  12.219  18.368  0.00  0.00    +0.000 NA
ATOM     26  C   UNL     1      -2.000  12.466  19.513  0.00  0.00    +0.000 C 
ATOM     27  C   UNL     1      -1.430  11.165  20.086  0.00  0.00    +0.000 C 
ATOM     28  H   UNL     1      -3.680  11.672  18.675  0.00  0.00    +0.000 HD
ENDBRANCH  21  22
ENDBRANCH   8  21
TORSDOF 3
ENDMDL
MODEL 7
REMARK VINA RESULT:      -8.0      4.577      8.488
REMARK  Name = 
REMARK  3 active torsions:
REMARK  status: ('A' for Active; 'I' for Inactive)
REMARK    1  A    between atoms: C_6  and  C_7
REMARK    2  A    between atoms: N_14  and  C_15
REMARK    3  A    between atoms: C_15  and  C_16
REMARK                            x       y       z     vdW  Elec       q    Type
REMARK                         _______ _______ _______ _____ _____    ______ ____
ROOT
ATOM      1  C   UNL     1       1.454   9.161  19.251  0.00  0.00    +0.000 A 
ATOM      2  C   UNL     1       1.626   9.894  18.054  0.00  0.00    +0.000 A 
ATOM      3  N   UNL     1       2.416   9.284  17.173  0.00  0.00    +0.000 NA
ATOM      4  N   UNL     1       2.783   8.142  17.796  0.00  0.00    +0.000 N 
ATOM      5  C   UNL     1       3.647   7.179  17.311  0.00  0.00    +0.000 A 
ATOM      6  C   UNL     1       3.928   6.094  18.036  0.00  0.00    +0.000 A 
ATOM      7  C   UNL     1       3.242   5.968  19.369  0.00  0.00    +0.000 A 
ATOM      8  N   UNL     1       3.440   4.879  20.181  0.00  0.00    +0.000 N 
ATOM      9  N   UNL     1       2.424   6.889  19.833  0.00  0.00    +0.000 NA
ATOM     10  C   UNL     1       2.196   8.006  19.061  0.00  0.00    +0.000 A 
ATOM     11  H   UNL     1       2.815   4.855  20.981  0.00  0.00    +0.000 HD
ENDROOT
BRANCH   1  17
ATOM     12  C   UNL     1       0.909   8.910  21.678  0.00  0.00    +0.000 A 
ATOM     13  C   UNL     1       0.231   9.330  22.831  0.00  0.00    +0.000 A 
ATOM     14  C   UNL     1      -0.659  10.373  22.707  0.00  0.00    +0.000 A 
ATOM     15  C   UNL     1      -0.886  10.987  21.501  0.00  0.00    +0.000 A 
ATOM     16  C   UNL     1      -0.230  10.597  20.351  0.00  0.00    +0.000 A 
ATOM     17  C   UNL     1       0.690   9.537  20.432  0.00  0.00    +0.000 A 
ATOM     18  O   UNL     1      -1.795  11.995  21.591  0.00  0.00    +0.000 OA
ATOM     19  C   UNL     1      -2.151  11.911  22.986  0.00  0.00    +0.000 C 
ATOM     20  O   UNL     1      -1.398  10.917  23.712  0.00  0.00    +0.000 OA
ENDBRANCH   1  17
BRANCH   8  21
ATOM     21  C   UNL     1       4.146   3.653  19.879  0.00  0.00    +0.000 C 
BRANCH  21  22
ATOM     22  C   UNL     1       3.281   2.417  20.192  0.00  0.00    +0.000 C 
ATOM     23  C   UNL     1       2.398   1.960  19.016  0.00  0.00    +0.000 C 
ATOM     24  C   UNL     1       1.229   2.909  18.756  0.00  0.00    +0.000 C 
ATOM     25  N   UNL     1       0.414   3.110  19.954  0.00  0.00    +0.000 NA
ATOM     26  C   UNL     1       1.208   3.618  21.072  0.00  0.00    +0.000 C 
ATOM     27  C   UNL     1       2.377   2.688  21.409  0.00  0.00    +0.000 C 
ATOM     28  H   UNL     1      -0.006   2.219  20.222  0.00  0.00    +0.000 HD
ENDBRANCH  21  22
ENDBRANCH   8  21
TORSDOF 3
ENDMDL
MODEL 8
REMARK VINA RESULT:      -8.0      4.912      9.077
REMARK  Name = 
REMARK  3 active torsions:
REMARK  status: ('A' for Active; 'I' for Inactive)
REMARK    1  A    between atoms: C_6  and  C_7
REMARK    2  A    between atoms: N_14  and  C_15
REMARK    3  A    between atoms: C_15  and  C_16
REMARK                            x       y       z     vdW  Elec       q    Type
REMARK                         _______ _______ _______ _____ _____    ______ ____
ROOT
ATOM      1  C   UNL     1       0.911   9.808  19.527  0.00  0.00    +0.000 A 
ATOM      2  C   UNL     1       1.219  10.502  18.333  0.00  0.00    +0.000 A 
ATOM      3  N   UNL     1       2.045   9.830  17.534  0.00  0.00    +0.000 NA
ATOM      4  N   UNL     1       2.299   8.687  18.208  0.00  0.00    +0.000 N 
ATOM      5  C   UNL     1       3.148   7.669  17.816  0.00  0.00    +0.000 A 
ATOM      6  C   UNL     1       3.310   6.589  18.583  0.00  0.00    +0.000 A 
ATOM      7  C   UNL     1       2.512   6.531  19.857  0.00  0.00    +0.000 A 
ATOM      8  N   UNL     1       2.585   5.454  20.705  0.00  0.00    +0.000 N 
ATOM      9  N   UNL     1       1.709   7.505  20.234  0.00  0.00    +0.000 NA
ATOM     10  C   UNL     1       1.604   8.613  19.422  0.00  0.00    +0.000 A 
ATOM     11  H   UNL     1       1.895   5.482  21.451  0.00  0.00    +0.000 HD
ENDROOT
BRANCH   1  17
ATOM     12  C   UNL     1       0.207   9.694  21.923  0.00  0.00    +0.000 A 
ATOM     13  C   UNL     1      -0.542  10.180  23.004  0.00  0.00    +0.000 A 
ATOM     14  C   UNL     1      -1.414  11.217  22.765  0.00  0.00    +0.000 A 
ATOM     15  C   UNL     1      -1.557  11.765  21.514  0.00  0.00    +0.000 A 
ATOM     16  C   UNL     1      -0.831  11.309  20.433  0.00  0.00    +0.000 A 
ATOM     17  C   UNL     1       0.074  10.252  20.633  0.00  0.00    +0.000 A 
ATOM     18  O   UNL     1      -2.463  12.779  21.488  0.00  0.00    +0.000 OA
ATOM     19  C   UNL     1      -2.910  12.774  22.860  0.00  0.00    +0.000 C 
ATOM     20  O   UNL     1      -2.213  11.819  23.687  0.00  0.00    +0.000 OA
ENDBRANCH   1  17
BRANCH   8  21
ATOM     21  C   UNL     1       3.246   4.186  20.487  0.00  0.00    +0.000 C 
BRANCH  21  22
ATOM     22  C   UNL     1       2.230   3.031  20.401  0.00  0.00    +0.000 C 
ATOM     23  C   UNL     1       2.826   1.715  19.868  0.00  0.00    +0.000 C 
ATOM     24  C   UNL     1       3.128   1.771  18.372  0.00  0.00    +0.000 C 
ATOM     25  N   UNL     1       1.949   2.147  17.591  0.00  0.00    +0.000 NA
ATOM     26  C   UNL     1       1.401   3.432  18.022  0.00  0.00    +0.000 C 
ATOM     27  C   UNL     1       1.039   3.428  19.509  0.00  0.00    +0.000 C 
ATOM     28  H   UNL     1       1.235   1.426  17.703  0.00  0.00    +0.000 HD
ENDBRANCH  21  22
ENDBRANCH   8  21
TORSDOF 3
ENDMDL
MODEL 9
REMARK VINA RESULT:      -7.7      1.841      2.710
REMARK  Name = 
REMARK  3 active torsions:
REMARK  status: ('A' for Active; 'I' for Inactive)
REMARK    1  A    between atoms: C_6  and  C_7
REMARK    2  A    between atoms: N_14  and  C_15
REMARK    3  A    between atoms: C_15  and  C_16
REMARK                            x       y       z     vdW  Elec       q    Type
REMARK                         _______ _______ _______ _____ _____    ______ ____
ROOT
ATOM      1  C   UNL     1       3.821   5.217  18.817  0.00  0.00    +0.000 A 
ATOM      2  C   UNL     1       3.556   4.093  19.634  0.00  0.00    +0.000 A 
ATOM      3  N   UNL     1       2.607   4.315  20.541  0.00  0.00    +0.000 NA
ATOM      4  N   UNL     1       2.248   5.602  20.333  0.00  0.00    +0.000 N 
ATOM      5  C   UNL     1       1.321   6.326  21.058  0.00  0.00    +0.000 A 
ATOM      6  C   UNL     1       1.062   7.598  20.746  0.00  0.00    +0.000 A 
ATOM      7  C   UNL     1       1.799   8.176  19.569  0.00  0.00    +0.000 A 
ATOM      8  N   UNL     1       1.587   9.465  19.148  0.00  0.00    +0.000 N 
ATOM      9  N   UNL     1       2.687   7.486  18.883  0.00  0.00    +0.000 NA
ATOM     10  C   UNL     1       2.942   6.189  19.268  0.00  0.00    +0.000 A 
ATOM     11  H   UNL     1       2.042   9.679  18.266  0.00  0.00    +0.000 HD
ENDROOT
BRANCH   1  17
ATOM     12  C   UNL     1       6.005   6.067  17.946  0.00  0.00    +0.000 A 
ATOM     13  C   UNL     1       6.991   6.115  16.950  0.00  0.00    +0.000 A 
ATOM     14  C   UNL     1       6.752   5.436  15.777  0.00  0.00    +0.000 A 
ATOM     15  C   UNL     1       5.590   4.732  15.576  0.00  0.00    +0.000 A 
ATOM     16  C   UNL     1       4.605   4.664  16.539  0.00  0.00    +0.000 A 
ATOM     17  C   UNL     1       4.809   5.341  17.754  0.00  0.00    +0.000 A 
ATOM     18  O   UNL     1       5.550   4.130  14.357  0.00  0.00    +0.000 OA
ATOM     19  C   UNL     1       6.801   4.576  13.795  0.00  0.00    +0.000 C 
ATOM     20  O   UNL     1       7.592   5.365  14.709  0.00  0.00    +0.000 OA
ENDBRANCH   1  17
BRANCH   8  21
ATOM     21  C   UNL     1       0.577  10.398  19.595  0.00  0.00    +0.000 C 
BRANCH  21  22
ATOM     22  C   UNL     1       0.078  11.282  18.435  0.00  0.00    +0.000 C 
ATOM     23  C   UNL     1       0.419  12.775  18.599  0.00  0.00    +0.000 C 
ATOM     24  C   UNL     1      -0.415  13.453  19.684  0.00  0.00    +0.000 C 
ATOM     25  N   UNL     1      -1.850  13.283  19.454  0.00  0.00    +0.000 NA
ATOM     26  C   UNL     1      -2.222  11.872  19.370  0.00  0.00    +0.000 C 
ATOM     27  C   UNL     1      -1.447  11.142  18.270  0.00  0.00    +0.000 C 
ATOM     28  H   UNL     1      -2.102  13.747  18.580  0.00  0.00    +0.000 HD
ENDBRANCH  21  22
ENDBRANCH   8  21
TORSDOF 3
ENDMDL
