MODEL 1
REMARK VINA RESULT:      -7.7      0.000      0.000
REMARK  Name = 
REMARK  4 active torsions:
REMARK  status: ('A' for Active; 'I' for Inactive)
REMARK    1  A    between atoms: C_1  and  O_2
REMARK    2  A    between atoms: O_2  and  C_3
REMARK    3  A    between atoms: C_3  and  C_5
REMARK    4  A    between atoms: C_9  and  C_10
REMARK                            x       y       z     vdW  Elec       q    Type
REMARK                         _______ _______ _______ _____ _____    ______ ____
ROOT
ATOM      1  C   UNL     1       2.667   6.225  19.467  0.00  0.00    +0.000 C 
ATOM      2  O   UNL     1       2.519   5.702  20.573  0.00  0.00    +0.000 OA
ATOM      3  N   UNL     1       2.205   7.493  19.118  0.00  0.00    +0.000 N 
ATOM      4  C   UNL     1       2.377   8.147  17.808  0.00  0.00    +0.000 C 
ATOM      5  C   UNL     1       1.879   9.587  17.932  0.00  0.00    +0.000 C 
ATOM      6  C   UNL     1       1.224   9.570  19.273  0.00  0.00    +0.000 A 
ATOM      7  C   UNL     1       0.501  10.600  19.857  0.00  0.00    +0.000 A 
ATOM      8  C   UNL     1       0.030  10.422  21.155  0.00  0.00    +0.000 A 
ATOM      9  C   UNL     1       0.299   9.232  21.849  0.00  0.00    +0.000 A 
ATOM     10  C   UNL     1       1.026   8.196  21.246  0.00  0.00    +0.000 A 
ATOM     11  C   UNL     1       1.475   8.371  19.947  0.00  0.00    +0.000 A 
ENDROOT
BRANCH   1  16
ATOM     12  C   UNL     1       5.458   5.074  17.335  0.00  0.00    +0.000 A 
ATOM     13  C   UNL     1       4.918   4.011  16.620  0.00  0.00    +0.000 A 
ATOM     14  C   UNL     1       3.583   3.680  16.836  0.00  0.00    +0.000 A 
ATOM     15  C   UNL     1       2.836   4.415  17.754  0.00  0.00    +0.000 A 
ATOM     16  C   UNL     1       3.457   5.449  18.448  0.00  0.00    +0.000 A 
ATOM     17  N   UNL     1       4.754   5.792  18.248  0.00  0.00    +0.000 NA
BRANCH  12  18
ATOM     18  C   UNL     1       6.886   5.458  17.098  0.00  0.00    +0.000 C 
ATOM     19  O   UNL     1       7.830   4.700  17.246  0.00  0.00    +0.000 OA
BRANCH  18  21
ATOM     20  C   UNL     1       7.691   7.611  17.577  0.00  0.00    +0.000 C 
ATOM     21  O   UNL     1       6.956   6.755  16.702  0.00  0.00    +0.000 OA
ENDBRANCH  18  21
ENDBRANCH  12  18
ENDBRANCH   1  16
TORSDOF 3
ENDMDL
MODEL 2
REMARK VINA RESULT:      -7.6      0.916      1.030
REMARK  Name = 
REMARK  4 active torsions:
REMARK  status: ('A' for Active; 'I' for Inactive)
REMARK    1  A    between atoms: C_1  and  O_2
REMARK    2  A    between atoms: O_2  and  C_3
REMARK    3  A    between atoms: C_3  and  C_5
REMARK    4  A    between atoms: C_9  and  C_10
REMARK                            x       y       z     vdW  Elec       q    Type
REMARK                         _______ _______ _______ _____ _____    ______ ____
ROOT
ATOM      1  C   UNL     1       2.326   6.223  19.754  0.00  0.00    +0.000 C 
ATOM      2  O   UNL     1       2.115   5.790  20.888  0.00  0.00    +0.000 OA
ATOM      3  N   UNL     1       2.003   7.507  19.320  0.00  0.00    +0.000 N 
ATOM      4  C   UNL     1       2.254   8.056  17.975  0.00  0.00    +0.000 C 
ATOM      5  C   UNL     1       1.909   9.545  18.001  0.00  0.00    +0.000 C 
ATOM      6  C   UNL     1       1.245   9.681  19.331  0.00  0.00    +0.000 A 
ATOM      7  C   UNL     1       0.629  10.817  19.838  0.00  0.00    +0.000 A 
ATOM      8  C   UNL     1       0.131  10.771  21.138  0.00  0.00    +0.000 A 
ATOM      9  C   UNL     1       0.268   9.606  21.909  0.00  0.00    +0.000 A 
ATOM     10  C   UNL     1       0.887   8.463  21.382  0.00  0.00    +0.000 A 
ATOM     11  C   UNL     1       1.363   8.508  20.082  0.00  0.00    +0.000 A 
ENDROOT
BRANCH   1  16
ATOM     12  C   UNL     1       5.023   4.512  17.894  0.00  0.00    +0.000 A 
ATOM     13  C   UNL     1       4.349   3.606  17.083  0.00  0.00    +0.000 A 
ATOM     14  C   UNL     1       2.958   3.576  17.140  0.00  0.00    +0.000 A 
ATOM     15  C   UNL     1       2.290   4.446  18.000  0.00  0.00    +0.000 A 
ATOM     16  C   UNL     1       3.039   5.305  18.797  0.00  0.00    +0.000 A 
ATOM     17  N   UNL     1       4.393   5.355  18.753  0.00  0.00    +0.000 NA
BRANCH  12  18
ATOM     18  C   UNL     1       6.518   4.573  17.829  0.00  0.00    +0.000 C 
ATOM     19  O   UNL     1       7.159   4.498  16.794  0.00  0.00    +0.000 OA
BRANCH  18  21
ATOM     20  C   UNL     1       7.906   5.838  19.237  0.00  0.00    +0.000 C 
ATOM     21  O   UNL     1       7.029   4.723  19.078  0.00  0.00    +0.000 OA
ENDBRANCH  18  21
ENDBRANCH  12  18
ENDBRANCH   1  16
TORSDOF 3
ENDMDL
MODEL 3
REMARK VINA RESULT:      -7.2      0.717      1.166
REMARK  Name = 
REMARK  4 active torsions:
REMARK  status: ('A' for Active; 'I' for Inactive)
REMARK    1  A    between atoms: C_1  and  O_2
REMARK    2  A    between atoms: O_2  and  C_3
REMARK    3  A    between atoms: C_3  and  C_5
REMARK    4  A    between atoms: C_9  and  C_10
REMARK                            x       y       z     vdW  Elec       q    Type
REMARK                         _______ _______ _______ _____ _____    ______ ____
ROOT
ATOM      1  C   UNL     1       2.707   6.240  19.432  0.00  0.00    +0.000 C 
ATOM      2  O   UNL     1       2.632   5.727  20.550  0.00  0.00    +0.000 OA
ATOM      3  N   UNL     1       2.205   7.497  19.098  0.00  0.00    +0.000 N 
ATOM      4  C   UNL     1       2.290   8.140  17.774  0.00  0.00    +0.000 C 
ATOM      5  C   UNL     1       1.776   9.573  17.912  0.00  0.00    +0.000 C 
ATOM      6  C   UNL     1       1.200   9.559  19.289  0.00  0.00    +0.000 A 
ATOM      7  C   UNL     1       0.494  10.584  19.904  0.00  0.00    +0.000 A 
ATOM      8  C   UNL     1       0.102  10.412  21.229  0.00  0.00    +0.000 A 
ATOM      9  C   UNL     1       0.431   9.234  21.917  0.00  0.00    +0.000 A 
ATOM     10  C   UNL     1       1.139   8.203  21.283  0.00  0.00    +0.000 A 
ATOM     11  C   UNL     1       1.509   8.372  19.959  0.00  0.00    +0.000 A 
ENDROOT
BRANCH   1  16
ATOM     12  C   UNL     1       5.314   5.226  17.016  0.00  0.00    +0.000 A 
ATOM     13  C   UNL     1       4.831   4.037  16.480  0.00  0.00    +0.000 A 
ATOM     14  C   UNL     1       3.595   3.570  16.918  0.00  0.00    +0.000 A 
ATOM     15  C   UNL     1       2.886   4.299  17.871  0.00  0.00    +0.000 A 
ATOM     16  C   UNL     1       3.450   5.466  18.376  0.00  0.00    +0.000 A 
ATOM     17  N   UNL     1       4.649   5.943  17.959  0.00  0.00    +0.000 NA
BRANCH  12  18
ATOM     18  C   UNL     1       6.631   5.756  16.540  0.00  0.00    +0.000 C 
ATOM     19  O   UNL     1       7.034   6.885  16.766  0.00  0.00    +0.000 OA
BRANCH  18  21
ATOM     20  C   UNL     1       7.208   4.941  14.416  0.00  0.00    +0.000 C 
ATOM     21  O   UNL     1       7.287   4.799  15.834  0.00  0.00    +0.000 OA
ENDBRANCH  18  21
ENDBRANCH  12  18
ENDBRANCH   1  16
TORSDOF 3
ENDMDL
MODEL 4
REMARK VINA RESULT:      -7.1      1.645      2.458
REMARK  Name = 
REMARK  4 active torsions:
REMARK  status: ('A' for Active; 'I' for Inactive)
REMARK    1  A    between atoms: C_1  and  O_2
REMARK    2  A    between atoms: O_2  and  C_3
REMARK    3  A    between atoms: C_3  and  C_5
REMARK    4  A    between atoms: C_9  and  C_10
REMARK                            x       y       z     vdW  Elec       q    Type
REMARK                         _______ _______ _______ _____ _____    ______ ____
ROOT
ATOM      1  C   UNL     1       2.401   7.866  18.253  0.00  0.00    +0.000 C 
ATOM      2  O   UNL     1       2.492   8.490  17.194  0.00  0.00    +0.000 OA
ATOM      3  N   UNL     1       1.749   8.329  19.395  0.00  0.00    +0.000 N 
ATOM      4  C   UNL     1       1.614   7.601  20.671  0.00  0.00    +0.000 C 
ATOM      5  C   UNL     1       0.675   8.401  21.573  0.00  0.00    +0.000 C 
ATOM      6  C   UNL     1       0.533   9.677  20.811  0.00  0.00    +0.000 A 
ATOM      7  C   UNL     1      -0.135  10.821  21.225  0.00  0.00    +0.000 A 
ATOM      8  C   UNL     1      -0.225  11.889  20.337  0.00  0.00    +0.000 A 
ATOM      9  C   UNL     1       0.336  11.793  19.054  0.00  0.00    +0.000 A 
ATOM     10  C   UNL     1       1.014  10.634  18.649  0.00  0.00    +0.000 A 
ATOM     11  C   UNL     1       1.117   9.582  19.545  0.00  0.00    +0.000 A 
ENDROOT
BRANCH   1  16
ATOM     12  C   UNL     1       4.818   5.094  18.612  0.00  0.00    +0.000 A 
ATOM     13  C   UNL     1       4.061   3.954  18.370  0.00  0.00    +0.000 A 
ATOM     14  C   UNL     1       2.713   4.111  18.058  0.00  0.00    +0.000 A 
ATOM     15  C   UNL     1       2.169   5.393  17.999  0.00  0.00    +0.000 A 
ATOM     16  C   UNL     1       2.989   6.481  18.280  0.00  0.00    +0.000 A 
ATOM     17  N   UNL     1       4.306   6.351  18.579  0.00  0.00    +0.000 NA
BRANCH  12  18
ATOM     18  C   UNL     1       6.275   4.945  18.927  0.00  0.00    +0.000 C 
ATOM     19  O   UNL     1       6.811   5.415  19.917  0.00  0.00    +0.000 OA
BRANCH  18  21
ATOM     20  C   UNL     1       7.172   4.943  16.758  0.00  0.00    +0.000 C 
ATOM     21  O   UNL     1       6.886   4.220  17.955  0.00  0.00    +0.000 OA
ENDBRANCH  18  21
ENDBRANCH  12  18
ENDBRANCH   1  16
TORSDOF 3
ENDMDL
MODEL 5
REMARK VINA RESULT:      -7.0      3.424      5.487
REMARK  Name = 
REMARK  4 active torsions:
REMARK  status: ('A' for Active; 'I' for Inactive)
REMARK    1  A    between atoms: C_1  and  O_2
REMARK    2  A    between atoms: O_2  and  C_3
REMARK    3  A    between atoms: C_3  and  C_5
REMARK    4  A    between atoms: C_9  and  C_10
REMARK                            x       y       z     vdW  Elec       q    Type
REMARK                         _______ _______ _______ _____ _____    ______ ____
ROOT
ATOM      1  C   UNL     1       4.378   5.159  17.070  0.00  0.00    +0.000 C 
ATOM      2  O   UNL     1       4.033   6.322  17.287  0.00  0.00    +0.000 OA
ATOM      3  N   UNL     1       3.867   4.042  17.728  0.00  0.00    +0.000 N 
ATOM      4  C   UNL     1       4.251   2.640  17.481  0.00  0.00    +0.000 C 
ATOM      5  C   UNL     1       3.314   1.745  18.292  0.00  0.00    +0.000 C 
ATOM      6  C   UNL     1       2.603   2.742  19.146  0.00  0.00    +0.000 A 
ATOM      7  C   UNL     1       1.700   2.468  20.164  0.00  0.00    +0.000 A 
ATOM      8  C   UNL     1       1.078   3.540  20.800  0.00  0.00    +0.000 A 
ATOM      9  C   UNL     1       1.356   4.856  20.402  0.00  0.00    +0.000 A 
ATOM     10  C   UNL     1       2.275   5.120  19.376  0.00  0.00    +0.000 A 
ATOM     11  C   UNL     1       2.905   4.051  18.761  0.00  0.00    +0.000 A 
ENDROOT
BRANCH   1  16
ATOM     12  C   UNL     1       5.867   4.176  13.833  0.00  0.00    +0.000 A 
ATOM     13  C   UNL     1       7.194   4.577  13.939  0.00  0.00    +0.000 A 
ATOM     14  C   UNL     1       7.612   5.171  15.126  0.00  0.00    +0.000 A 
ATOM     15  C   UNL     1       6.697   5.346  16.163  0.00  0.00    +0.000 A 
ATOM     16  C   UNL     1       5.380   4.941  15.968  0.00  0.00    +0.000 A 
ATOM     17  N   UNL     1       4.954   4.354  14.823  0.00  0.00    +0.000 NA
BRANCH  12  18
ATOM     18  C   UNL     1       5.406   3.514  12.572  0.00  0.00    +0.000 C 
ATOM     19  O   UNL     1       4.269   3.594  12.135  0.00  0.00    +0.000 OA
BRANCH  18  21
ATOM     20  C   UNL     1       6.061   1.599  11.382  0.00  0.00    +0.000 C 
ATOM     21  O   UNL     1       6.432   2.828  12.007  0.00  0.00    +0.000 OA
ENDBRANCH  18  21
ENDBRANCH  12  18
ENDBRANCH   1  16
TORSDOF 3
ENDMDL
MODEL 6
REMARK VINA RESULT:      -7.0      3.428      4.720
REMARK  Name = 
REMARK  4 active torsions:
REMARK  status: ('A' for Active; 'I' for Inactive)
REMARK    1  A    between atoms: C_1  and  O_2
REMARK    2  A    between atoms: O_2  and  C_3
REMARK    3  A    between atoms: C_3  and  C_5
REMARK    4  A    between atoms: C_9  and  C_10
REMARK                            x       y       z     vdW  Elec       q    Type
REMARK                         _______ _______ _______ _____ _____    ______ ____
ROOT
ATOM      1  C   UNL     1       5.345   4.366  18.944  0.00  0.00    +0.000 C 
ATOM      2  O   UNL     1       5.977   3.693  19.760  0.00  0.00    +0.000 OA
ATOM      3  N   UNL     1       3.956   4.474  18.906  0.00  0.00    +0.000 N 
ATOM      4  C   UNL     1       3.175   5.280  17.949  0.00  0.00    +0.000 C 
ATOM      5  C   UNL     1       1.712   5.248  18.390  0.00  0.00    +0.000 C 
ATOM      6  C   UNL     1       1.737   4.204  19.456  0.00  0.00    +0.000 A 
ATOM      7  C   UNL     1       0.643   3.686  20.137  0.00  0.00    +0.000 A 
ATOM      8  C   UNL     1       0.877   2.769  21.158  0.00  0.00    +0.000 A 
ATOM      9  C   UNL     1       2.188   2.397  21.490  0.00  0.00    +0.000 A 
ATOM     10  C   UNL     1       3.285   2.922  20.791  0.00  0.00    +0.000 A 
ATOM     11  C   UNL     1       3.045   3.820  19.763  0.00  0.00    +0.000 A 
ENDROOT
BRANCH   1  16
ATOM     12  C   UNL     1       6.987   5.446  15.814  0.00  0.00    +0.000 A 
ATOM     13  C   UNL     1       7.582   6.657  16.147  0.00  0.00    +0.000 A 
ATOM     14  C   UNL     1       7.452   7.119  17.454  0.00  0.00    +0.000 A 
ATOM     15  C   UNL     1       6.736   6.362  18.379  0.00  0.00    +0.000 A 
ATOM     16  C   UNL     1       6.150   5.172  17.959  0.00  0.00    +0.000 A 
ATOM     17  N   UNL     1       6.270   4.700  16.693  0.00  0.00    +0.000 NA
BRANCH  12  18
ATOM     18  C   UNL     1       7.137   4.922  14.418  0.00  0.00    +0.000 C 
ATOM     19  O   UNL     1       7.876   5.413  13.581  0.00  0.00    +0.000 OA
BRANCH  18  21
ATOM     20  C   UNL     1       6.062   3.512  12.880  0.00  0.00    +0.000 C 
ATOM     21  O   UNL     1       6.336   3.840  14.242  0.00  0.00    +0.000 OA
ENDBRANCH  18  21
ENDBRANCH  12  18
ENDBRANCH   1  16
TORSDOF 3
ENDMDL
MODEL 7
REMARK VINA RESULT:      -6.9      2.314      3.854
REMARK  Name = 
REMARK  4 active torsions:
REMARK  status: ('A' for Active; 'I' for Inactive)
REMARK    1  A    between atoms: C_1  and  O_2
REMARK    2  A    between atoms: O_2  and  C_3
REMARK    3  A    between atoms: C_3  and  C_5
REMARK    4  A    between atoms: C_9  and  C_10
REMARK                            x       y       z     vdW  Elec       q    Type
REMARK                         _______ _______ _______ _____ _____    ______ ____
ROOT
ATOM      1  C   UNL     1       2.266   8.198  18.119  0.00  0.00    +0.000 C 
ATOM      2  O   UNL     1       2.220   8.910  17.115  0.00  0.00    +0.000 OA
ATOM      3  N   UNL     1       1.688   8.515  19.347  0.00  0.00    +0.000 N 
ATOM      4  C   UNL     1       1.717   7.677  20.561  0.00  0.00    +0.000 C 
ATOM      5  C   UNL     1       0.808   8.328  21.603  0.00  0.00    +0.000 C 
ATOM      6  C   UNL     1       0.512   9.647  20.970  0.00  0.00    +0.000 A 
ATOM      7  C   UNL     1      -0.194  10.699  21.537  0.00  0.00    +0.000 A 
ATOM      8  C   UNL     1      -0.436  11.827  20.756  0.00  0.00    +0.000 A 
ATOM      9  C   UNL     1       0.015  11.878  19.428  0.00  0.00    +0.000 A 
ATOM     10  C   UNL     1       0.732  10.810  18.869  0.00  0.00    +0.000 A 
ATOM     11  C   UNL     1       0.987   9.700  19.657  0.00  0.00    +0.000 A 
ENDROOT
BRANCH   1  16
ATOM     12  C   UNL     1       2.820   4.548  17.936  0.00  0.00    +0.000 A 
ATOM     13  C   UNL     1       4.180   4.427  17.675  0.00  0.00    +0.000 A 
ATOM     14  C   UNL     1       4.939   5.590  17.578  0.00  0.00    +0.000 A 
ATOM     15  C   UNL     1       4.320   6.828  17.742  0.00  0.00    +0.000 A 
ATOM     16  C   UNL     1       2.949   6.864  17.976  0.00  0.00    +0.000 A 
ATOM     17  N   UNL     1       2.192   5.743  18.082  0.00  0.00    +0.000 NA
BRANCH  12  18
ATOM     18  C   UNL     1       1.992   3.307  18.068  0.00  0.00    +0.000 C 
ATOM     19  O   UNL     1       2.180   2.290  17.420  0.00  0.00    +0.000 OA
BRANCH  18  21
ATOM     20  C   UNL     1       1.295   2.904  20.272  0.00  0.00    +0.000 C 
ATOM     21  O   UNL     1       1.024   3.493  19.001  0.00  0.00    +0.000 OA
ENDBRANCH  18  21
ENDBRANCH  12  18
ENDBRANCH   1  16
TORSDOF 3
ENDMDL
MODEL 8
REMARK VINA RESULT:      -6.8      1.554      2.326
REMARK  Name = 
REMARK  4 active torsions:
REMARK  status: ('A' for Active; 'I' for Inactive)
REMARK    1  A    between atoms: C_1  and  O_2
REMARK    2  A    between atoms: O_2  and  C_3
REMARK    3  A    between atoms: C_3  and  C_5
REMARK    4  A    between atoms: C_9  and  C_10
REMARK                            x       y       z     vdW  Elec       q    Type
REMARK                         _______ _______ _______ _____ _____    ______ ____
ROOT
ATOM      1  C   UNL     1       2.481   7.811  18.076  0.00  0.00    +0.000 C 
ATOM      2  O   UNL     1       2.582   8.468  17.038  0.00  0.00    +0.000 OA
ATOM      3  N   UNL     1       1.874   8.260  19.247  0.00  0.00    +0.000 N 
ATOM      4  C   UNL     1       1.729   7.493  20.498  0.00  0.00    +0.000 C 
ATOM      5  C   UNL     1       0.847   8.303  21.448  0.00  0.00    +0.000 C 
ATOM      6  C   UNL     1       0.751   9.610  20.735  0.00  0.00    +0.000 A 
ATOM      7  C   UNL     1       0.146  10.768  21.205  0.00  0.00    +0.000 A 
ATOM      8  C   UNL     1       0.089  11.872  20.358  0.00  0.00    +0.000 A 
ATOM      9  C   UNL     1       0.621  11.798  19.061  0.00  0.00    +0.000 A 
ATOM     10  C   UNL     1       1.235  10.623  18.601  0.00  0.00    +0.000 A 
ATOM     11  C   UNL     1       1.306   9.535  19.455  0.00  0.00    +0.000 A 
ENDROOT
BRANCH   1  16
ATOM     12  C   UNL     1       4.802   4.937  17.951  0.00  0.00    +0.000 A 
ATOM     13  C   UNL     1       3.967   3.827  18.016  0.00  0.00    +0.000 A 
ATOM     14  C   UNL     1       2.593   4.039  18.082  0.00  0.00    +0.000 A 
ATOM     15  C   UNL     1       2.100   5.343  18.082  0.00  0.00    +0.000 A 
ATOM     16  C   UNL     1       3.004   6.400  18.040  0.00  0.00    +0.000 A 
ATOM     17  N   UNL     1       4.346   6.216  17.969  0.00  0.00    +0.000 NA
BRANCH  12  18
ATOM     18  C   UNL     1       6.282   4.728  17.856  0.00  0.00    +0.000 C 
ATOM     19  O   UNL     1       6.889   4.618  16.803  0.00  0.00    +0.000 OA
BRANCH  18  21
ATOM     20  C   UNL     1       7.729   5.744  19.400  0.00  0.00    +0.000 C 
ATOM     21  O   UNL     1       6.824   4.682  19.100  0.00  0.00    +0.000 OA
ENDBRANCH  18  21
ENDBRANCH  12  18
ENDBRANCH   1  16
TORSDOF 3
ENDMDL
MODEL 9
REMARK VINA RESULT:      -6.7      2.345      6.975
REMARK  Name = 
REMARK  4 active torsions:
REMARK  status: ('A' for Active; 'I' for Inactive)
REMARK    1  A    between atoms: C_1  and  O_2
REMARK    2  A    between atoms: O_2  and  C_3
REMARK    3  A    between atoms: C_3  and  C_5
REMARK    4  A    between atoms: C_9  and  C_10
REMARK                            x       y       z     vdW  Elec       q    Type
REMARK                         _______ _______ _______ _____ _____    ______ ____
ROOT
ATOM      1  C   UNL     1       2.648   6.747  18.531  0.00  0.00    +0.000 C 
ATOM      2  O   UNL     1       3.565   6.902  17.723  0.00  0.00    +0.000 OA
ATOM      3  N   UNL     1       2.234   5.517  19.039  0.00  0.00    +0.000 N 
ATOM      4  C   UNL     1       1.149   5.303  20.015  0.00  0.00    +0.000 C 
ATOM      5  C   UNL     1       1.165   3.830  20.421  0.00  0.00    +0.000 C 
ATOM      6  C   UNL     1       2.131   3.253  19.440  0.00  0.00    +0.000 A 
ATOM      7  C   UNL     1       2.449   1.911  19.281  0.00  0.00    +0.000 A 
ATOM      8  C   UNL     1       3.437   1.573  18.360  0.00  0.00    +0.000 A 
ATOM      9  C   UNL     1       4.096   2.574  17.629  0.00  0.00    +0.000 A 
ATOM     10  C   UNL     1       3.761   3.926  17.795  0.00  0.00    +0.000 A 
ATOM     11  C   UNL     1       2.763   4.254  18.699  0.00  0.00    +0.000 A 
ENDROOT
BRANCH   1  16
ATOM     12  C   UNL     1       1.164   9.235  20.826  0.00  0.00    +0.000 A 
ATOM     13  C   UNL     1       0.787  10.280  19.991  0.00  0.00    +0.000 A 
ATOM     14  C   UNL     1       1.014  10.147  18.624  0.00  0.00    +0.000 A 
ATOM     15  C   UNL     1       1.606   8.982  18.138  0.00  0.00    +0.000 A 
ATOM     16  C   UNL     1       1.976   7.993  19.044  0.00  0.00    +0.000 A 
ATOM     17  N   UNL     1       1.759   8.099  20.378  0.00  0.00    +0.000 NA
BRANCH  12  18
ATOM     18  C   UNL     1       0.906   9.351  22.297  0.00  0.00    +0.000 C 
ATOM     19  O   UNL     1       1.783   9.497  23.133  0.00  0.00    +0.000 OA
BRANCH  18  21
ATOM     20  C   UNL     1      -0.998  10.436  23.139  0.00  0.00    +0.000 C 
ATOM     21  O   UNL     1      -0.427   9.271  22.541  0.00  0.00    +0.000 OA
ENDBRANCH  18  21
ENDBRANCH  12  18
ENDBRANCH   1  16
TORSDOF 3
ENDMDL
