MODEL 1
REMARK VINA RESULT:      -7.6      0.000      0.000
REMARK  Name = 
REMARK  7 active torsions:
REMARK  status: ('A' for Active; 'I' for Inactive)
REMARK    1  A    between atoms: C_1  and  C_2
REMARK    2  A    between atoms: C_4  and  O_5
REMARK    3  A    between atoms: C_4  and  C_6
REMARK    4  A    between atoms: C_6  and  C_7
REMARK    5  A    between atoms: C_7  and  C_8
REMARK    6  A    between atoms: C_18  and  C_19
REMARK    7  A    between atoms: N_21  and  C_22
REMARK                            x       y       z     vdW  Elec       q    Type
REMARK                         _______ _______ _______ _____ _____    ______ ____
ROOT
ATOM      1  C   UNL     1       3.997   3.277  17.387  0.00  0.00    +0.000 C 
ENDROOT
BRANCH   1   5
ATOM      2  C   UNL     1       6.949   5.081  14.291  0.00  0.00    +0.000 C 
ATOM      3  C   UNL     1       6.309   5.834  15.467  0.00  0.00    +0.000 C 
ATOM      4  C   UNL     1       5.033   5.141  15.996  0.00  0.00    +0.000 C 
ATOM      5  C   UNL     1       5.312   3.880  16.840  0.00  0.00    +0.000 C 
ATOM      6  C   UNL     1       6.348   4.200  17.949  0.00  0.00    +0.000 C 
ATOM      7  C   UNL     1       5.767   4.973  19.140  0.00  0.00    +0.000 C 
ATOM      8  C   UNL     1       7.578   4.907  17.345  0.00  0.00    +0.000 C 
ATOM      9  N   UNL     1       7.315   6.084  16.510  0.00  0.00    +0.000 NA
ATOM     10  C   UNL     1       7.054   7.299  17.269  0.00  0.00    +0.000 C 
BRANCH   5  11
ATOM     11  O   UNL     1       5.874   2.871  15.985  0.00  0.00    +0.000 OA
ATOM     12  H   UNL     1       5.342   2.836  15.171  0.00  0.00    +0.000 HD
ENDBRANCH   5  11
ENDBRANCH   1   5
BRANCH   1  13
ATOM     13  C   UNL     1       2.811   4.245  17.239  0.00  0.00    +0.000 C 
BRANCH  13  14
ATOM     14  C   UNL     1       2.404   4.865  18.556  0.00  0.00    +0.000 A 
ATOM     15  C   UNL     1       2.165   3.991  19.630  0.00  0.00    +0.000 A 
ATOM     16  C   UNL     1       1.752   4.478  20.861  0.00  0.00    +0.000 A 
ATOM     17  C   UNL     1       1.572   5.847  21.036  0.00  0.00    +0.000 A 
ATOM     18  C   UNL     1       1.816   6.747  19.986  0.00  0.00    +0.000 A 
ATOM     19  C   UNL     1       1.623   8.125  20.181  0.00  0.00    +0.000 A 
ATOM     20  C   UNL     1       1.856   9.037  19.154  0.00  0.00    +0.000 A 
ATOM     21  C   UNL     1       2.290   8.583  17.917  0.00  0.00    +0.000 A 
ATOM     22  C   UNL     1       2.485   7.217  17.706  0.00  0.00    +0.000 A 
ATOM     23  C   UNL     1       2.246   6.265  18.725  0.00  0.00    +0.000 A 
ENDBRANCH  13  14
ENDBRANCH   1  13
TORSDOF 4
ENDMDL
MODEL 2
REMARK VINA RESULT:      -7.5      3.094      5.570
REMARK  Name = 
REMARK  7 active torsions:
REMARK  status: ('A' for Active; 'I' for Inactive)
REMARK    1  A    between atoms: C_1  and  C_2
REMARK    2  A    between atoms: C_4  and  O_5
REMARK    3  A    between atoms: C_4  and  C_6
REMARK    4  A    between atoms: C_6  and  C_7
REMARK    5  A    between atoms: C_7  and  C_8
REMARK    6  A    between atoms: C_18  and  C_19
REMARK    7  A    between atoms: N_21  and  C_22
REMARK                            x       y       z     vdW  Elec       q    Type
REMARK                         _______ _______ _______ _____ _____    ______ ____
ROOT
ATOM      1  C   UNL     1       2.282   6.739  19.491  0.00  0.00    +0.000 C 
ENDROOT
BRANCH   1   5
ATOM      2  C   UNL     1       1.421   2.560  21.322  0.00  0.00    +0.000 C 
ATOM      3  C   UNL     1       1.603   2.866  19.827  0.00  0.00    +0.000 C 
ATOM      4  C   UNL     1       1.379   4.359  19.492  0.00  0.00    +0.000 C 
ATOM      5  C   UNL     1       2.547   5.275  19.913  0.00  0.00    +0.000 C 
ATOM      6  C   UNL     1       3.887   4.713  19.371  0.00  0.00    +0.000 C 
ATOM      7  C   UNL     1       4.111   4.970  17.875  0.00  0.00    +0.000 C 
ATOM      8  C   UNL     1       4.024   3.219  19.727  0.00  0.00    +0.000 C 
ATOM      9  N   UNL     1       2.900   2.351  19.364  0.00  0.00    +0.000 NA
ATOM     10  C   UNL     1       2.886   1.961  17.960  0.00  0.00    +0.000 C 
BRANCH   5  11
ATOM     11  O   UNL     1       2.621   5.293  21.348  0.00  0.00    +0.000 OA
ATOM     12  H   UNL     1       3.330   5.909  21.605  0.00  0.00    +0.000 HD
ENDBRANCH   5  11
ENDBRANCH   1   5
BRANCH   1  13
ATOM     13  C   UNL     1       1.819   7.607  20.672  0.00  0.00    +0.000 C 
BRANCH  13  14
ATOM     14  C   UNL     1       1.114   8.866  20.222  0.00  0.00    +0.000 A 
ATOM     15  C   UNL     1       1.304   9.265  18.887  0.00  0.00    +0.000 A 
ATOM     16  C   UNL     1       0.721  10.428  18.407  0.00  0.00    +0.000 A 
ATOM     17  C   UNL     1      -0.059  11.210  19.254  0.00  0.00    +0.000 A 
ATOM     18  C   UNL     1      -0.279  10.831  20.587  0.00  0.00    +0.000 A 
ATOM     19  C   UNL     1      -1.065  11.637  21.428  0.00  0.00    +0.000 A 
ATOM     20  C   UNL     1      -1.295  11.283  22.756  0.00  0.00    +0.000 A 
ATOM     21  C   UNL     1      -0.744  10.114  23.261  0.00  0.00    +0.000 A 
ATOM     22  C   UNL     1       0.041   9.304  22.440  0.00  0.00    +0.000 A 
ATOM     23  C   UNL     1       0.303   9.641  21.091  0.00  0.00    +0.000 A 
ENDBRANCH  13  14
ENDBRANCH   1  13
TORSDOF 4
ENDMDL
MODEL 3
REMARK VINA RESULT:      -7.4      2.653      4.789
REMARK  Name = 
REMARK  7 active torsions:
REMARK  status: ('A' for Active; 'I' for Inactive)
REMARK    1  A    between atoms: C_1  and  C_2
REMARK    2  A    between atoms: C_4  and  O_5
REMARK    3  A    between atoms: C_4  and  C_6
REMARK    4  A    between atoms: C_6  and  C_7
REMARK    5  A    between atoms: C_7  and  C_8
REMARK    6  A    between atoms: C_18  and  C_19
REMARK    7  A    between atoms: N_21  and  C_22
REMARK                            x       y       z     vdW  Elec       q    Type
REMARK                         _______ _______ _______ _____ _____    ______ ____
ROOT
ATOM      1  C   UNL     1       1.289   5.516  20.317  0.00  0.00    +0.000 C 
ENDROOT
BRANCH   1   5
ATOM      2  C   UNL     1       4.154   3.669  17.164  0.00  0.00    +0.000 C 
ATOM      3  C   UNL     1       4.297   3.547  18.689  0.00  0.00    +0.000 C 
ATOM      4  C   UNL     1       3.519   4.644  19.452  0.00  0.00    +0.000 C 
ATOM      5  C   UNL     1       1.994   4.418  19.486  0.00  0.00    +0.000 C 
ATOM      6  C   UNL     1       1.679   2.981  19.978  0.00  0.00    +0.000 C 
ATOM      7  C   UNL     1       1.828   2.795  21.495  0.00  0.00    +0.000 C 
ATOM      8  C   UNL     1       2.507   1.950  19.186  0.00  0.00    +0.000 C 
ATOM      9  N   UNL     1       3.954   2.182  19.117  0.00  0.00    +0.000 NA
ATOM     10  C   UNL     1       4.675   1.765  20.312  0.00  0.00    +0.000 C 
BRANCH   5  11
ATOM     11  O   UNL     1       1.479   4.552  18.151  0.00  0.00    +0.000 OA
ATOM     12  H   UNL     1       1.731   3.756  17.650  0.00  0.00    +0.000 HD
ENDBRANCH   5  11
ENDBRANCH   1   5
BRANCH   1  13
ATOM     13  C   UNL     1       2.214   6.713  20.595  0.00  0.00    +0.000 C 
BRANCH  13  14
ATOM     14  C   UNL     1       1.729   7.983  19.935  0.00  0.00    +0.000 A 
ATOM     15  C   UNL     1       2.084   8.183  18.590  0.00  0.00    +0.000 A 
ATOM     16  C   UNL     1       1.710   9.340  17.923  0.00  0.00    +0.000 A 
ATOM     17  C   UNL     1       0.975  10.315  18.592  0.00  0.00    +0.000 A 
ATOM     18  C   UNL     1       0.592  10.138  19.931  0.00  0.00    +0.000 A 
ATOM     19  C   UNL     1      -0.145  11.136  20.591  0.00  0.00    +0.000 A 
ATOM     20  C   UNL     1      -0.533  10.985  21.921  0.00  0.00    +0.000 A 
ATOM     21  C   UNL     1      -0.192   9.829  22.609  0.00  0.00    +0.000 A 
ATOM     22  C   UNL     1       0.542   8.829  21.969  0.00  0.00    +0.000 A 
ATOM     23  C   UNL     1       0.961   8.958  20.624  0.00  0.00    +0.000 A 
ENDBRANCH  13  14
ENDBRANCH   1  13
TORSDOF 4
ENDMDL
MODEL 4
REMARK VINA RESULT:      -7.2      2.428      4.682
REMARK  Name = 
REMARK  7 active torsions:
REMARK  status: ('A' for Active; 'I' for Inactive)
REMARK    1  A    between atoms: C_1  and  C_2
REMARK    2  A    between atoms: C_4  and  O_5
REMARK    3  A    between atoms: C_4  and  C_6
REMARK    4  A    between atoms: C_6  and  C_7
REMARK    5  A    between atoms: C_7  and  C_8
REMARK    6  A    between atoms: C_18  and  C_19
REMARK    7  A    between atoms: N_21  and  C_22
REMARK                            x       y       z     vdW  Elec       q    Type
REMARK                         _______ _______ _______ _____ _____    ______ ____
ROOT
ATOM      1  C   UNL     1       2.162   6.895  18.215  0.00  0.00    +0.000 C 
ENDROOT
BRANCH   1   5
ATOM      2  C   UNL     1       6.423   5.111  18.675  0.00  0.00    +0.000 C 
ATOM      3  C   UNL     1       5.161   4.621  19.401  0.00  0.00    +0.000 C 
ATOM      4  C   UNL     1       4.040   5.685  19.435  0.00  0.00    +0.000 C 
ATOM      5  C   UNL     1       3.307   5.863  18.090  0.00  0.00    +0.000 C 
ATOM      6  C   UNL     1       2.836   4.486  17.553  0.00  0.00    +0.000 C 
ATOM      7  C   UNL     1       1.589   3.936  18.259  0.00  0.00    +0.000 C 
ATOM      8  C   UNL     1       4.001   3.478  17.571  0.00  0.00    +0.000 C 
ATOM      9  N   UNL     1       4.727   3.333  18.837  0.00  0.00    +0.000 NA
ATOM     10  C   UNL     1       4.050   2.488  19.812  0.00  0.00    +0.000 C 
BRANCH   5  11
ATOM     11  O   UNL     1       4.226   6.420  17.136  0.00  0.00    +0.000 OA
ATOM     12  H   UNL     1       3.725   7.008  16.543  0.00  0.00    +0.000 HD
ENDBRANCH   5  11
ENDBRANCH   1   5
BRANCH   1  13
ATOM     13  C   UNL     1       2.152   7.585  19.590  0.00  0.00    +0.000 C 
BRANCH  13  14
ATOM     14  C   UNL     1       1.397   8.894  19.574  0.00  0.00    +0.000 A 
ATOM     15  C   UNL     1       1.409   9.626  18.374  0.00  0.00    +0.000 A 
ATOM     16  C   UNL     1       0.772  10.855  18.288  0.00  0.00    +0.000 A 
ATOM     17  C   UNL     1       0.114  11.369  19.402  0.00  0.00    +0.000 A 
ATOM     18  C   UNL     1       0.071  10.655  20.609  0.00  0.00    +0.000 A 
ATOM     19  C   UNL     1      -0.594  11.195  21.723  0.00  0.00    +0.000 A 
ATOM     20  C   UNL     1      -0.646  10.506  22.934  0.00  0.00    +0.000 A 
ATOM     21  C   UNL     1      -0.037   9.264  23.045  0.00  0.00    +0.000 A 
ATOM     22  C   UNL     1       0.630   8.716  21.949  0.00  0.00    +0.000 A 
ATOM     23  C   UNL     1       0.711   9.395  20.710  0.00  0.00    +0.000 A 
ENDBRANCH  13  14
ENDBRANCH   1  13
TORSDOF 4
ENDMDL
MODEL 5
REMARK VINA RESULT:      -7.1      2.557      4.582
REMARK  Name = 
REMARK  7 active torsions:
REMARK  status: ('A' for Active; 'I' for Inactive)
REMARK    1  A    between atoms: C_1  and  C_2
REMARK    2  A    between atoms: C_4  and  O_5
REMARK    3  A    between atoms: C_4  and  C_6
REMARK    4  A    between atoms: C_6  and  C_7
REMARK    5  A    between atoms: C_7  and  C_8
REMARK    6  A    between atoms: C_18  and  C_19
REMARK    7  A    between atoms: N_21  and  C_22
REMARK                            x       y       z     vdW  Elec       q    Type
REMARK                         _______ _______ _______ _____ _____    ______ ____
ROOT
ATOM      1  C   UNL     1       2.473   7.129  18.435  0.00  0.00    +0.000 C 
ENDROOT
BRANCH   1   5
ATOM      2  C   UNL     1       4.049   2.836  19.233  0.00  0.00    +0.000 C 
ATOM      3  C   UNL     1       3.932   3.508  17.857  0.00  0.00    +0.000 C 
ATOM      4  C   UNL     1       2.941   4.695  17.855  0.00  0.00    +0.000 C 
ATOM      5  C   UNL     1       3.491   5.968  18.530  0.00  0.00    +0.000 C 
ATOM      6  C   UNL     1       4.883   6.323  17.945  0.00  0.00    +0.000 C 
ATOM      7  C   UNL     1       4.826   6.978  16.558  0.00  0.00    +0.000 C 
ATOM      8  C   UNL     1       5.802   5.086  17.962  0.00  0.00    +0.000 C 
ATOM      9  N   UNL     1       5.269   3.862  17.356  0.00  0.00    +0.000 NA
ATOM     10  C   UNL     1       5.353   3.838  15.902  0.00  0.00    +0.000 C 
BRANCH   5  11
ATOM     11  O   UNL     1       3.653   5.710  19.935  0.00  0.00    +0.000 OA
ATOM     12  H   UNL     1       3.173   6.400  20.425  0.00  0.00    +0.000 HD
ENDBRANCH   5  11
ENDBRANCH   1   5
BRANCH   1  13
ATOM     13  C   UNL     1       2.083   7.672  19.820  0.00  0.00    +0.000 C 
BRANCH  13  14
ATOM     14  C   UNL     1       1.189   8.886  19.734  0.00  0.00    +0.000 A 
ATOM     15  C   UNL     1       1.038   9.483  18.470  0.00  0.00    +0.000 A 
ATOM     16  C   UNL     1       0.264  10.622  18.313  0.00  0.00    +0.000 A 
ATOM     17  C   UNL     1      -0.370  11.183  19.418  0.00  0.00    +0.000 A 
ATOM     18  C   UNL     1      -0.251  10.602  20.690  0.00  0.00    +0.000 A 
ATOM     19  C   UNL     1      -0.895  11.187  21.794  0.00  0.00    +0.000 A 
ATOM     20  C   UNL     1      -0.788  10.630  23.068  0.00  0.00    +0.000 A 
ATOM     21  C   UNL     1      -0.038   9.478  23.254  0.00  0.00    +0.000 A 
ATOM     22  C   UNL     1       0.609   8.887  22.168  0.00  0.00    +0.000 A 
ATOM     23  C   UNL     1       0.530   9.434  20.865  0.00  0.00    +0.000 A 
ENDBRANCH  13  14
ENDBRANCH   1  13
TORSDOF 4
ENDMDL
MODEL 6
REMARK VINA RESULT:      -7.1      2.911      4.981
REMARK  Name = 
REMARK  7 active torsions:
REMARK  status: ('A' for Active; 'I' for Inactive)
REMARK    1  A    between atoms: C_1  and  C_2
REMARK    2  A    between atoms: C_4  and  O_5
REMARK    3  A    between atoms: C_4  and  C_6
REMARK    4  A    between atoms: C_6  and  C_7
REMARK    5  A    between atoms: C_7  and  C_8
REMARK    6  A    between atoms: C_18  and  C_19
REMARK    7  A    between atoms: N_21  and  C_22
REMARK                            x       y       z     vdW  Elec       q    Type
REMARK                         _______ _______ _______ _____ _____    ______ ____
ROOT
ATOM      1  C   UNL     1       3.448   6.341  18.901  0.00  0.00    +0.000 C 
ENDROOT
BRANCH   1   5
ATOM      2  C   UNL     1       4.482   2.051  20.343  0.00  0.00    +0.000 C 
ATOM      3  C   UNL     1       3.067   2.625  20.174  0.00  0.00    +0.000 C 
ATOM      4  C   UNL     1       3.047   4.171  20.170  0.00  0.00    +0.000 C 
ATOM      5  C   UNL     1       3.556   4.798  18.856  0.00  0.00    +0.000 C 
ATOM      6  C   UNL     1       2.822   4.167  17.645  0.00  0.00    +0.000 C 
ATOM      7  C   UNL     1       1.393   4.689  17.441  0.00  0.00    +0.000 C 
ATOM      8  C   UNL     1       2.869   2.629  17.733  0.00  0.00    +0.000 C 
ATOM      9  N   UNL     1       2.422   2.029  18.995  0.00  0.00    +0.000 NA
ATOM     10  C   UNL     1       0.974   1.940  19.126  0.00  0.00    +0.000 C 
BRANCH   5  11
ATOM     11  O   UNL     1       4.958   4.513  18.724  0.00  0.00    +0.000 OA
ATOM     12  H   UNL     1       5.204   3.881  19.424  0.00  0.00    +0.000 HD
ENDBRANCH   5  11
ENDBRANCH   1   5
BRANCH   1  13
ATOM     13  C   UNL     1       2.428   6.820  19.947  0.00  0.00    +0.000 C 
BRANCH  13  14
ATOM     14  C   UNL     1       1.798   8.143  19.577  0.00  0.00    +0.000 A 
ATOM     15  C   UNL     1       1.975   8.589  18.255  0.00  0.00    +0.000 A 
ATOM     16  C   UNL     1       1.460   9.809  17.846  0.00  0.00    +0.000 A 
ATOM     17  C   UNL     1       0.761  10.602  18.752  0.00  0.00    +0.000 A 
ATOM     18  C   UNL     1       0.556  10.178  20.074  0.00  0.00    +0.000 A 
ATOM     19  C   UNL     1      -0.147  10.996  20.975  0.00  0.00    +0.000 A 
ATOM     20  C   UNL     1      -0.360  10.597  22.293  0.00  0.00    +0.000 A 
ATOM     21  C   UNL     1       0.124   9.372  22.728  0.00  0.00    +0.000 A 
ATOM     22  C   UNL     1       0.826   8.549  21.846  0.00  0.00    +0.000 A 
ATOM     23  C   UNL     1       1.070   8.930  20.505  0.00  0.00    +0.000 A 
ENDBRANCH  13  14
ENDBRANCH   1  13
TORSDOF 4
ENDMDL
MODEL 7
REMARK VINA RESULT:      -7.1      2.538      5.852
REMARK  Name = 
REMARK  7 active torsions:
REMARK  status: ('A' for Active; 'I' for Inactive)
REMARK    1  A    between atoms: C_1  and  C_2
REMARK    2  A    between atoms: C_4  and  O_5
REMARK    3  A    between atoms: C_4  and  C_6
REMARK    4  A    between atoms: C_6  and  C_7
REMARK    5  A    between atoms: C_7  and  C_8
REMARK    6  A    between atoms: C_18  and  C_19
REMARK    7  A    between atoms: N_21  and  C_22
REMARK                            x       y       z     vdW  Elec       q    Type
REMARK                         _______ _______ _______ _____ _____    ______ ____
ROOT
ATOM      1  C   UNL     1       3.364   2.368  17.590  0.00  0.00    +0.000 C 
ENDROOT
BRANCH   1   5
ATOM      2  C   UNL     1       1.792   2.385  21.959  0.00  0.00    +0.000 C 
ATOM      3  C   UNL     1       2.379   3.592  21.210  0.00  0.00    +0.000 C 
ATOM      4  C   UNL     1       3.248   3.179  20.001  0.00  0.00    +0.000 C 
ATOM      5  C   UNL     1       2.434   2.703  18.780  0.00  0.00    +0.000 C 
ATOM      6  C   UNL     1       1.342   3.746  18.429  0.00  0.00    +0.000 C 
ATOM      7  C   UNL     1       1.876   4.986  17.698  0.00  0.00    +0.000 C 
ATOM      8  C   UNL     1       0.534   4.120  19.688  0.00  0.00    +0.000 C 
ATOM      9  N   UNL     1       1.306   4.536  20.864  0.00  0.00    +0.000 NA
ATOM     10  C   UNL     1       1.764   5.918  20.811  0.00  0.00    +0.000 C 
BRANCH   5  11
ATOM     11  O   UNL     1       1.778   1.470  19.118  0.00  0.00    +0.000 OA
ATOM     12  H   UNL     1       2.410   0.919  19.613  0.00  0.00    +0.000 HD
ENDBRANCH   5  11
ENDBRANCH   1   5
BRANCH   1  13
ATOM     13  C   UNL     1       4.831   2.725  17.884  0.00  0.00    +0.000 C 
BRANCH  13  14
ATOM     14  C   UNL     1       5.307   3.914  17.083  0.00  0.00    +0.000 A 
ATOM     15  C   UNL     1       4.854   4.017  15.756  0.00  0.00    +0.000 A 
ATOM     16  C   UNL     1       5.274   5.058  14.942  0.00  0.00    +0.000 A 
ATOM     17  C   UNL     1       6.155   6.012  15.443  0.00  0.00    +0.000 A 
ATOM     18  C   UNL     1       6.614   5.946  16.768  0.00  0.00    +0.000 A 
ATOM     19  C   UNL     1       7.507   6.916  17.253  0.00  0.00    +0.000 A 
ATOM     20  C   UNL     1       7.980   6.869  18.564  0.00  0.00    +0.000 A 
ATOM     21  C   UNL     1       7.562   5.851  19.409  0.00  0.00    +0.000 A 
ATOM     22  C   UNL     1       6.676   4.878  18.942  0.00  0.00    +0.000 A 
ATOM     23  C   UNL     1       6.188   4.892  17.614  0.00  0.00    +0.000 A 
ENDBRANCH  13  14
ENDBRANCH   1  13
TORSDOF 4
ENDMDL
MODEL 8
REMARK VINA RESULT:      -7.1      2.723      4.658
REMARK  Name = 
REMARK  7 active torsions:
REMARK  status: ('A' for Active; 'I' for Inactive)
REMARK    1  A    between atoms: C_1  and  C_2
REMARK    2  A    between atoms: C_4  and  O_5
REMARK    3  A    between atoms: C_4  and  C_6
REMARK    4  A    between atoms: C_6  and  C_7
REMARK    5  A    between atoms: C_7  and  C_8
REMARK    6  A    between atoms: C_18  and  C_19
REMARK    7  A    between atoms: N_21  and  C_22
REMARK                            x       y       z     vdW  Elec       q    Type
REMARK                         _______ _______ _______ _____ _____    ______ ____
ROOT
ATOM      1  C   UNL     1       2.190   6.627  20.016  0.00  0.00    +0.000 C 
ENDROOT
BRANCH   1   5
ATOM      2  C   UNL     1       5.371   4.711  17.230  0.00  0.00    +0.000 C 
ATOM      3  C   UNL     1       4.711   4.033  18.440  0.00  0.00    +0.000 C 
ATOM      4  C   UNL     1       4.099   5.047  19.433  0.00  0.00    +0.000 C 
ATOM      5  C   UNL     1       2.775   5.673  18.948  0.00  0.00    +0.000 C 
ATOM      6  C   UNL     1       1.787   4.560  18.513  0.00  0.00    +0.000 C 
ATOM      7  C   UNL     1       1.114   3.831  19.685  0.00  0.00    +0.000 C 
ATOM      8  C   UNL     1       2.478   3.580  17.544  0.00  0.00    +0.000 C 
ATOM      9  N   UNL     1       3.756   3.012  17.983  0.00  0.00    +0.000 NA
ATOM     10  C   UNL     1       3.619   1.905  18.920  0.00  0.00    +0.000 C 
BRANCH   5  11
ATOM     11  O   UNL     1       3.049   6.496  17.802  0.00  0.00    +0.000 OA
ATOM     12  H   UNL     1       2.311   6.394  17.175  0.00  0.00    +0.000 HD
ENDBRANCH   5  11
ENDBRANCH   1   5
BRANCH   1  13
ATOM     13  C   UNL     1       1.859   8.012  19.436  0.00  0.00    +0.000 C 
BRANCH  13  14
ATOM     14  C   UNL     1       1.096   8.879  20.410  0.00  0.00    +0.000 A 
ATOM     15  C   UNL     1       1.289   8.628  21.780  0.00  0.00    +0.000 A 
ATOM     16  C   UNL     1       0.598   9.355  22.737  0.00  0.00    +0.000 A 
ATOM     17  C   UNL     1      -0.297  10.344  22.339  0.00  0.00    +0.000 A 
ATOM     18  C   UNL     1      -0.500  10.628  20.980  0.00  0.00    +0.000 A 
ATOM     19  C   UNL     1      -1.413  11.627  20.598  0.00  0.00    +0.000 A 
ATOM     20  C   UNL     1      -1.634  11.925  19.255  0.00  0.00    +0.000 A 
ATOM     21  C   UNL     1      -0.942  11.230  18.273  0.00  0.00    +0.000 A 
ATOM     22  C   UNL     1      -0.035  10.233  18.636  0.00  0.00    +0.000 A 
ATOM     23  C   UNL     1       0.204   9.899  19.990  0.00  0.00    +0.000 A 
ENDBRANCH  13  14
ENDBRANCH   1  13
TORSDOF 4
ENDMDL
MODEL 9
REMARK VINA RESULT:      -6.9      2.659      5.175
REMARK  Name = 
REMARK  7 active torsions:
REMARK  status: ('A' for Active; 'I' for Inactive)
REMARK    1  A    between atoms: C_1  and  C_2
REMARK    2  A    between atoms: C_4  and  O_5
REMARK    3  A    between atoms: C_4  and  C_6
REMARK    4  A    between atoms: C_6  and  C_7
REMARK    5  A    between atoms: C_7  and  C_8
REMARK    6  A    between atoms: C_18  and  C_19
REMARK    7  A    between atoms: N_21  and  C_22
REMARK                            x       y       z     vdW  Elec       q    Type
REMARK                         _______ _______ _______ _____ _____    ______ ____
ROOT
ATOM      1  C   UNL     1       2.980   7.708  18.110  0.00  0.00    +0.000 C 
ENDROOT
BRANCH   1   5
ATOM      2  C   UNL     1       1.346   4.000  20.377  0.00  0.00    +0.000 C 
ATOM      3  C   UNL     1       1.886   4.008  18.939  0.00  0.00    +0.000 C 
ATOM      4  C   UNL     1       1.883   5.419  18.308  0.00  0.00    +0.000 C 
ATOM      5  C   UNL     1       3.006   6.338  18.829  0.00  0.00    +0.000 C 
ATOM      6  C   UNL     1       4.375   5.618  18.727  0.00  0.00    +0.000 C 
ATOM      7  C   UNL     1       4.952   5.576  17.305  0.00  0.00    +0.000 C 
ATOM      8  C   UNL     1       4.290   4.214  19.357  0.00  0.00    +0.000 C 
ATOM      9  N   UNL     1       3.200   3.349  18.893  0.00  0.00    +0.000 NA
ATOM     10  C   UNL     1       3.464   2.702  17.615  0.00  0.00    +0.000 C 
BRANCH   5  11
ATOM     11  O   UNL     1       2.758   6.625  20.216  0.00  0.00    +0.000 OA
ATOM     12  H   UNL     1       1.798   6.564  20.369  0.00  0.00    +0.000 HD
ENDBRANCH   5  11
ENDBRANCH   1   5
BRANCH   1  13
ATOM     13  C   UNL     1       1.556   8.277  18.001  0.00  0.00    +0.000 C 
BRANCH  13  14
ATOM     14  C   UNL     1       1.416   9.619  18.682  0.00  0.00    +0.000 A 
ATOM     15  C   UNL     1       1.942  10.737  18.010  0.00  0.00    +0.000 A 
ATOM     16  C   UNL     1       1.887  11.998  18.583  0.00  0.00    +0.000 A 
ATOM     17  C   UNL     1       1.307  12.160  19.838  0.00  0.00    +0.000 A 
ATOM     18  C   UNL     1       0.761  11.066  20.528  0.00  0.00    +0.000 A 
ATOM     19  C   UNL     1       0.185  11.250  21.796  0.00  0.00    +0.000 A 
ATOM     20  C   UNL     1      -0.361  10.179  22.501  0.00  0.00    +0.000 A 
ATOM     21  C   UNL     1      -0.341   8.908  21.945  0.00  0.00    +0.000 A 
ATOM     22  C   UNL     1       0.230   8.709  20.687  0.00  0.00    +0.000 A 
ATOM     23  C   UNL     1       0.802   9.773  19.951  0.00  0.00    +0.000 A 
ENDBRANCH  13  14
ENDBRANCH   1  13
TORSDOF 4
ENDMDL
