MODEL 1
REMARK VINA RESULT:      -6.5      0.000      0.000
REMARK  Name = 
REMARK  7 active torsions:
REMARK  status: ('A' for Active; 'I' for Inactive)
REMARK    1  A    between atoms: C_1  and  C_2
REMARK    2  A    between atoms: C_2  and  C_3
REMARK    3  A    between atoms: C_3  and  C_4
REMARK    4  A    between atoms: C_4  and  C_5
REMARK    5  A    between atoms: C_4  and  N_6
REMARK    6  A    between atoms: N_6  and  S_7
REMARK    7  A    between atoms: S_7  and  C_10
REMARK                            x       y       z     vdW  Elec       q    Type
REMARK                         _______ _______ _______ _____ _____    ______ ____
ROOT
ATOM      1  S   UNL     1       5.439   4.894  19.210  0.00  0.00    +0.000 S 
ATOM      2  O   UNL     1       4.281   5.662  19.613  0.00  0.00    +0.000 OA
ATOM      3  O   UNL     1       6.731   5.137  19.806  0.00  0.00    +0.000 OA
ENDROOT
BRANCH   1   4
ATOM      4  C   UNL     1       5.587   5.013  17.453  0.00  0.00    +0.000 A 
ATOM      5  C   UNL     1       6.194   3.977  16.730  0.00  0.00    +0.000 A 
ATOM      6  C   UNL     1       6.289   4.068  15.339  0.00  0.00    +0.000 A 
ATOM      7  C   UNL     1       5.784   5.191  14.684  0.00  0.00    +0.000 A 
ATOM      8  C   UNL     1       5.191   6.216  15.420  0.00  0.00    +0.000 A 
ATOM      9  F   UNL     1       4.704   7.285  14.780  0.00  0.00    +0.000 F 
ATOM     10  C   UNL     1       5.089   6.142  16.803  0.00  0.00    +0.000 A 
ENDBRANCH   1   4
BRANCH   1  11
ATOM     11  N   UNL     1       5.056   3.266  19.469  0.00  0.00    +0.000 NA
ATOM     12  H   UNL     1       5.691   2.691  18.911  0.00  0.00    +0.000 HD
BRANCH  11  13
ATOM     13  C   UNL     1       3.650   2.802  19.459  0.00  0.00    +0.000 C 
ATOM     14  C   UNL     1       3.445   1.610  18.532  0.00  0.00    +0.000 C 
BRANCH  13  15
ATOM     15  C   UNL     1       3.243   2.407  20.892  0.00  0.00    +0.000 C 
BRANCH  15  17
ATOM     16  C   UNL     1       1.309   3.890  20.265  0.00  0.00    +0.000 C 
ATOM     17  C   UNL     1       1.884   2.965  21.328  0.00  0.00    +0.000 C 
ENDBRANCH  15  17
ENDBRANCH  13  15
ENDBRANCH  11  13
ENDBRANCH   1  11
TORSDOF 5
ENDMDL
MODEL 2
REMARK VINA RESULT:      -6.3      2.704      5.336
REMARK  Name = 
REMARK  7 active torsions:
REMARK  status: ('A' for Active; 'I' for Inactive)
REMARK    1  A    between atoms: C_1  and  C_2
REMARK    2  A    between atoms: C_2  and  C_3
REMARK    3  A    between atoms: C_3  and  C_4
REMARK    4  A    between atoms: C_4  and  C_5
REMARK    5  A    between atoms: C_4  and  N_6
REMARK    6  A    between atoms: N_6  and  S_7
REMARK    7  A    between atoms: S_7  and  C_10
REMARK                            x       y       z     vdW  Elec       q    Type
REMARK                         _______ _______ _______ _____ _____    ______ ____
ROOT
ATOM      1  S   UNL     1       7.159   5.378  17.182  0.00  0.00    +0.000 S 
ATOM      2  O   UNL     1       7.875   4.597  18.167  0.00  0.00    +0.000 OA
ATOM      3  O   UNL     1       7.712   6.611  16.673  0.00  0.00    +0.000 OA
ENDROOT
BRANCH   1   4
ATOM      4  C   UNL     1       5.537   5.693  17.808  0.00  0.00    +0.000 A 
ATOM      5  C   UNL     1       5.005   4.878  18.816  0.00  0.00    +0.000 A 
ATOM      6  C   UNL     1       3.731   5.146  19.321  0.00  0.00    +0.000 A 
ATOM      7  C   UNL     1       2.998   6.219  18.814  0.00  0.00    +0.000 A 
ATOM      8  C   UNL     1       3.540   7.014  17.806  0.00  0.00    +0.000 A 
ATOM      9  F   UNL     1       2.830   8.045  17.332  0.00  0.00    +0.000 F 
ATOM     10  C   UNL     1       4.805   6.762  17.291  0.00  0.00    +0.000 A 
ENDBRANCH   1   4
BRANCH   1  11
ATOM     11  N   UNL     1       6.885   4.358  15.858  0.00  0.00    +0.000 NA
ATOM     12  H   UNL     1       7.659   3.693  15.796  0.00  0.00    +0.000 HD
BRANCH  11  13
ATOM     13  C   UNL     1       6.447   4.904  14.554  0.00  0.00    +0.000 C 
ATOM     14  C   UNL     1       7.613   5.100  13.593  0.00  0.00    +0.000 C 
BRANCH  13  15
ATOM     15  C   UNL     1       5.427   3.935  13.924  0.00  0.00    +0.000 C 
BRANCH  15  17
ATOM     16  C   UNL     1       4.630   3.236  11.642  0.00  0.00    +0.000 C 
ATOM     17  C   UNL     1       5.842   3.404  12.548  0.00  0.00    +0.000 C 
ENDBRANCH  15  17
ENDBRANCH  13  15
ENDBRANCH  11  13
ENDBRANCH   1  11
TORSDOF 5
ENDMDL
MODEL 3
REMARK VINA RESULT:      -6.3      2.505      3.160
REMARK  Name = 
REMARK  7 active torsions:
REMARK  status: ('A' for Active; 'I' for Inactive)
REMARK    1  A    between atoms: C_1  and  C_2
REMARK    2  A    between atoms: C_2  and  C_3
REMARK    3  A    between atoms: C_3  and  C_4
REMARK    4  A    between atoms: C_4  and  C_5
REMARK    5  A    between atoms: C_4  and  N_6
REMARK    6  A    between atoms: N_6  and  S_7
REMARK    7  A    between atoms: S_7  and  C_10
REMARK                            x       y       z     vdW  Elec       q    Type
REMARK                         _______ _______ _______ _____ _____    ______ ____
ROOT
ATOM      1  S   UNL     1       4.136   2.432  19.485  0.00  0.00    +0.000 S 
ATOM      2  O   UNL     1       5.188   2.010  20.383  0.00  0.00    +0.000 OA
ATOM      3  O   UNL     1       3.396   1.465  18.707  0.00  0.00    +0.000 OA
ENDROOT
BRANCH   1   4
ATOM      4  C   UNL     1       4.803   3.652  18.396  0.00  0.00    +0.000 A 
ATOM      5  C   UNL     1       4.453   3.647  17.038  0.00  0.00    +0.000 A 
ATOM      6  C   UNL     1       4.969   4.628  16.188  0.00  0.00    +0.000 A 
ATOM      7  C   UNL     1       5.830   5.600  16.696  0.00  0.00    +0.000 A 
ATOM      8  C   UNL     1       6.175   5.584  18.047  0.00  0.00    +0.000 A 
ATOM      9  F   UNL     1       6.997   6.526  18.524  0.00  0.00    +0.000 F 
ATOM     10  C   UNL     1       5.672   4.617  18.907  0.00  0.00    +0.000 A 
ENDBRANCH   1   4
BRANCH   1  11
ATOM     11  N   UNL     1       3.019   3.296  20.417  0.00  0.00    +0.000 NA
ATOM     12  H   UNL     1       2.683   2.688  21.167  0.00  0.00    +0.000 HD
BRANCH  11  13
ATOM     13  C   UNL     1       1.962   4.112  19.778  0.00  0.00    +0.000 C 
ATOM     14  C   UNL     1       0.597   3.436  19.842  0.00  0.00    +0.000 C 
BRANCH  13  15
ATOM     15  C   UNL     1       1.885   5.478  20.489  0.00  0.00    +0.000 C 
BRANCH  15  17
ATOM     16  C   UNL     1       2.377   6.451  18.222  0.00  0.00    +0.000 C 
ATOM     17  C   UNL     1       2.566   6.617  19.723  0.00  0.00    +0.000 C 
ENDBRANCH  15  17
ENDBRANCH  13  15
ENDBRANCH  11  13
ENDBRANCH   1  11
TORSDOF 5
ENDMDL
MODEL 4
REMARK VINA RESULT:      -6.3      2.493      5.833
REMARK  Name = 
REMARK  7 active torsions:
REMARK  status: ('A' for Active; 'I' for Inactive)
REMARK    1  A    between atoms: C_1  and  C_2
REMARK    2  A    between atoms: C_2  and  C_3
REMARK    3  A    between atoms: C_3  and  C_4
REMARK    4  A    between atoms: C_4  and  C_5
REMARK    5  A    between atoms: C_4  and  N_6
REMARK    6  A    between atoms: N_6  and  S_7
REMARK    7  A    between atoms: S_7  and  C_10
REMARK                            x       y       z     vdW  Elec       q    Type
REMARK                         _______ _______ _______ _____ _____    ______ ____
ROOT
ATOM      1  S   UNL     1       4.875   4.765  18.510  0.00  0.00    +0.000 S 
ATOM      2  O   UNL     1       5.895   4.051  19.247  0.00  0.00    +0.000 OA
ATOM      3  O   UNL     1       4.915   6.204  18.398  0.00  0.00    +0.000 OA
ENDROOT
BRANCH   1   4
ATOM      4  C   UNL     1       3.301   4.284  19.153  0.00  0.00    +0.000 A 
ATOM      5  C   UNL     1       2.759   4.958  20.256  0.00  0.00    +0.000 A 
ATOM      6  C   UNL     1       1.505   4.586  20.745  0.00  0.00    +0.000 A 
ATOM      7  C   UNL     1       0.805   3.546  20.134  0.00  0.00    +0.000 A 
ATOM      8  C   UNL     1       1.363   2.882  19.042  0.00  0.00    +0.000 A 
ATOM      9  F   UNL     1       0.679   1.890  18.460  0.00  0.00    +0.000 F 
ATOM     10  C   UNL     1       2.608   3.237  18.543  0.00  0.00    +0.000 A 
ENDBRANCH   1   4
BRANCH   1  11
ATOM     11  N   UNL     1       4.876   4.131  16.941  0.00  0.00    +0.000 NA
ATOM     12  H   UNL     1       4.985   3.116  17.001  0.00  0.00    +0.000 HD
BRANCH  11  13
ATOM     13  C   UNL     1       5.671   4.764  15.864  0.00  0.00    +0.000 C 
ATOM     14  C   UNL     1       7.168   4.556  16.057  0.00  0.00    +0.000 C 
BRANCH  13  15
ATOM     15  C   UNL     1       5.246   4.162  14.509  0.00  0.00    +0.000 C 
BRANCH  15  17
ATOM     16  C   UNL     1       5.937   3.262  12.263  0.00  0.00    +0.000 C 
ATOM     17  C   UNL     1       6.397   4.003  13.511  0.00  0.00    +0.000 C 
ENDBRANCH  15  17
ENDBRANCH  13  15
ENDBRANCH  11  13
ENDBRANCH   1  11
TORSDOF 5
ENDMDL
MODEL 5
REMARK VINA RESULT:      -6.2      3.563      5.528
REMARK  Name = 
REMARK  7 active torsions:
REMARK  status: ('A' for Active; 'I' for Inactive)
REMARK    1  A    between atoms: C_1  and  C_2
REMARK    2  A    between atoms: C_2  and  C_3
REMARK    3  A    between atoms: C_3  and  C_4
REMARK    4  A    between atoms: C_4  and  C_5
REMARK    5  A    between atoms: C_4  and  N_6
REMARK    6  A    between atoms: N_6  and  S_7
REMARK    7  A    between atoms: S_7  and  C_10
REMARK                            x       y       z     vdW  Elec       q    Type
REMARK                         _______ _______ _______ _____ _____    ______ ____
ROOT
ATOM      1  S   UNL     1       5.663   5.430  15.871  0.00  0.00    +0.000 S 
ATOM      2  O   UNL     1       5.325   6.786  15.495  0.00  0.00    +0.000 OA
ATOM      3  O   UNL     1       5.984   4.443  14.867  0.00  0.00    +0.000 OA
ENDROOT
BRANCH   1   4
ATOM      4  C   UNL     1       4.362   4.807  16.892  0.00  0.00    +0.000 A 
ATOM      5  C   UNL     1       3.493   5.696  17.539  0.00  0.00    +0.000 A 
ATOM      6  C   UNL     1       2.454   5.195  18.328  0.00  0.00    +0.000 A 
ATOM      7  C   UNL     1       2.295   3.817  18.467  0.00  0.00    +0.000 A 
ATOM      8  C   UNL     1       3.175   2.947  17.823  0.00  0.00    +0.000 A 
ATOM      9  F   UNL     1       3.008   1.627  17.960  0.00  0.00    +0.000 F 
ATOM     10  C   UNL     1       4.213   3.427  17.036  0.00  0.00    +0.000 A 
ENDBRANCH   1   4
BRANCH   1  11
ATOM     11  N   UNL     1       6.984   5.533  16.925  0.00  0.00    +0.000 NA
ATOM     12  H   UNL     1       7.390   4.600  17.027  0.00  0.00    +0.000 HD
BRANCH  11  13
ATOM     13  C   UNL     1       6.892   6.297  18.189  0.00  0.00    +0.000 C 
ATOM     14  C   UNL     1       6.867   5.385  19.410  0.00  0.00    +0.000 C 
BRANCH  13  15
ATOM     15  C   UNL     1       8.103   7.246  18.289  0.00  0.00    +0.000 C 
BRANCH  15  17
ATOM     16  C   UNL     1       8.675   9.694  18.385  0.00  0.00    +0.000 C 
ATOM     17  C   UNL     1       7.866   8.625  17.666  0.00  0.00    +0.000 C 
ENDBRANCH  15  17
ENDBRANCH  13  15
ENDBRANCH  11  13
ENDBRANCH   1  11
TORSDOF 5
ENDMDL
MODEL 6
REMARK VINA RESULT:      -6.2      2.540      5.612
REMARK  Name = 
REMARK  7 active torsions:
REMARK  status: ('A' for Active; 'I' for Inactive)
REMARK    1  A    between atoms: C_1  and  C_2
REMARK    2  A    between atoms: C_2  and  C_3
REMARK    3  A    between atoms: C_3  and  C_4
REMARK    4  A    between atoms: C_4  and  C_5
REMARK    5  A    between atoms: C_4  and  N_6
REMARK    6  A    between atoms: N_6  and  S_7
REMARK    7  A    between atoms: S_7  and  C_10
REMARK                            x       y       z     vdW  Elec       q    Type
REMARK                         _______ _______ _______ _____ _____    ______ ____
ROOT
ATOM      1  S   UNL     1       5.100   4.724  18.354  0.00  0.00    +0.000 S 
ATOM      2  O   UNL     1       5.925   4.388  19.494  0.00  0.00    +0.000 OA
ATOM      3  O   UNL     1       4.891   6.102  17.975  0.00  0.00    +0.000 OA
ENDROOT
BRANCH   1   4
ATOM      4  C   UNL     1       3.529   3.944  18.568  0.00  0.00    +0.000 A 
ATOM      5  C   UNL     1       3.217   2.786  17.843  0.00  0.00    +0.000 A 
ATOM      6  C   UNL     1       1.982   2.163  18.033  0.00  0.00    +0.000 A 
ATOM      7  C   UNL     1       1.068   2.702  18.938  0.00  0.00    +0.000 A 
ATOM      8  C   UNL     1       1.391   3.860  19.645  0.00  0.00    +0.000 A 
ATOM      9  F   UNL     1       0.509   4.364  20.515  0.00  0.00    +0.000 F 
ATOM     10  C   UNL     1       2.614   4.493  19.468  0.00  0.00    +0.000 A 
ENDBRANCH   1   4
BRANCH   1  11
ATOM     11  N   UNL     1       5.765   3.923  17.020  0.00  0.00    +0.000 NA
ATOM     12  H   UNL     1       6.601   3.421  17.327  0.00  0.00    +0.000 HD
BRANCH  11  13
ATOM     13  C   UNL     1       5.914   4.609  15.716  0.00  0.00    +0.000 C 
ATOM     14  C   UNL     1       7.322   5.155  15.512  0.00  0.00    +0.000 C 
BRANCH  13  15
ATOM     15  C   UNL     1       5.587   3.611  14.587  0.00  0.00    +0.000 C 
BRANCH  15  17
ATOM     16  C   UNL     1       5.660   3.174  12.110  0.00  0.00    +0.000 C 
ATOM     17  C   UNL     1       6.324   3.896  13.274  0.00  0.00    +0.000 C 
ENDBRANCH  15  17
ENDBRANCH  13  15
ENDBRANCH  11  13
ENDBRANCH   1  11
TORSDOF 5
ENDMDL
MODEL 7
REMARK VINA RESULT:      -6.2      2.153      2.745
REMARK  Name = 
REMARK  7 active torsions:
REMARK  status: ('A' for Active; 'I' for Inactive)
REMARK    1  A    between atoms: C_1  and  C_2
REMARK    2  A    between atoms: C_2  and  C_3
REMARK    3  A    between atoms: C_3  and  C_4
REMARK    4  A    between atoms: C_4  and  C_5
REMARK    5  A    between atoms: C_4  and  N_6
REMARK    6  A    between atoms: N_6  and  S_7
REMARK    7  A    between atoms: S_7  and  C_10
REMARK                            x       y       z     vdW  Elec       q    Type
REMARK                         _______ _______ _______ _____ _____    ______ ____
ROOT
ATOM      1  S   UNL     1       4.156   3.118  18.498  0.00  0.00    +0.000 S 
ATOM      2  O   UNL     1       4.809   3.006  19.784  0.00  0.00    +0.000 OA
ATOM      3  O   UNL     1       3.644   1.948  17.825  0.00  0.00    +0.000 OA
ENDROOT
BRANCH   1   4
ATOM      4  C   UNL     1       5.247   3.976  17.405  0.00  0.00    +0.000 A 
ATOM      5  C   UNL     1       6.282   4.765  17.925  0.00  0.00    +0.000 A 
ATOM      6  C   UNL     1       7.153   5.424  17.054  0.00  0.00    +0.000 A 
ATOM      7  C   UNL     1       6.982   5.294  15.676  0.00  0.00    +0.000 A 
ATOM      8  C   UNL     1       5.942   4.512  15.176  0.00  0.00    +0.000 A 
ATOM      9  F   UNL     1       5.792   4.390  13.852  0.00  0.00    +0.000 F 
ATOM     10  C   UNL     1       5.066   3.851  16.027  0.00  0.00    +0.000 A 
ENDBRANCH   1   4
BRANCH   1  11
ATOM     11  N   UNL     1       2.866   4.195  18.701  0.00  0.00    +0.000 NA
ATOM     12  H   UNL     1       2.535   4.482  17.777  0.00  0.00    +0.000 HD
BRANCH  11  13
ATOM     13  C   UNL     1       2.939   5.295  19.689  0.00  0.00    +0.000 C 
ATOM     14  C   UNL     1       2.694   6.657  19.051  0.00  0.00    +0.000 C 
BRANCH  13  15
ATOM     15  C   UNL     1       1.884   5.052  20.787  0.00  0.00    +0.000 C 
BRANCH  15  17
ATOM     16  C   UNL     1       1.519   2.709  21.629  0.00  0.00    +0.000 C 
ATOM     17  C   UNL     1       1.089   3.754  20.609  0.00  0.00    +0.000 C 
ENDBRANCH  15  17
ENDBRANCH  13  15
ENDBRANCH  11  13
ENDBRANCH   1  11
TORSDOF 5
ENDMDL
MODEL 8
REMARK VINA RESULT:      -6.2      2.386      3.064
REMARK  Name = 
REMARK  7 active torsions:
REMARK  status: ('A' for Active; 'I' for Inactive)
REMARK    1  A    between atoms: C_1  and  C_2
REMARK    2  A    between atoms: C_2  and  C_3
REMARK    3  A    between atoms: C_3  and  C_4
REMARK    4  A    between atoms: C_4  and  C_5
REMARK    5  A    between atoms: C_4  and  N_6
REMARK    6  A    between atoms: N_6  and  S_7
REMARK    7  A    between atoms: S_7  and  C_10
REMARK                            x       y       z     vdW  Elec       q    Type
REMARK                         _______ _______ _______ _____ _____    ______ ____
ROOT
ATOM      1  S   UNL     1       3.129   5.752  18.542  0.00  0.00    +0.000 S 
ATOM      2  O   UNL     1       2.727   6.976  17.885  0.00  0.00    +0.000 OA
ATOM      3  O   UNL     1       3.182   5.669  19.983  0.00  0.00    +0.000 OA
ENDROOT
BRANCH   1   4
ATOM      4  C   UNL     1       4.695   5.268  17.883  0.00  0.00    +0.000 A 
ATOM      5  C   UNL     1       4.778   4.749  16.583  0.00  0.00    +0.000 A 
ATOM      6  C   UNL     1       6.022   4.389  16.061  0.00  0.00    +0.000 A 
ATOM      7  C   UNL     1       7.169   4.543  16.839  0.00  0.00    +0.000 A 
ATOM      8  C   UNL     1       7.067   5.052  18.133  0.00  0.00    +0.000 A 
ATOM      9  F   UNL     1       8.176   5.202  18.868  0.00  0.00    +0.000 F 
ATOM     10  C   UNL     1       5.839   5.415  18.669  0.00  0.00    +0.000 A 
ENDBRANCH   1   4
BRANCH   1  11
ATOM     11  N   UNL     1       2.076   4.542  18.001  0.00  0.00    +0.000 NA
ATOM     12  H   UNL     1       1.170   4.969  17.796  0.00  0.00    +0.000 HD
BRANCH  11  13
ATOM     13  C   UNL     1       1.990   3.239  18.699  0.00  0.00    +0.000 C 
ATOM     14  C   UNL     1       0.549   2.844  19.001  0.00  0.00    +0.000 C 
BRANCH  13  15
ATOM     15  C   UNL     1       2.638   2.154  17.815  0.00  0.00    +0.000 C 
BRANCH  15  17
ATOM     16  C   UNL     1       4.280   2.145  19.722  0.00  0.00    +0.000 C 
ATOM     17  C   UNL     1       3.771   1.387  18.505  0.00  0.00    +0.000 C 
ENDBRANCH  15  17
ENDBRANCH  13  15
ENDBRANCH  11  13
ENDBRANCH   1  11
TORSDOF 5
ENDMDL
MODEL 9
REMARK VINA RESULT:      -6.1      3.021      5.807
REMARK  Name = 
REMARK  7 active torsions:
REMARK  status: ('A' for Active; 'I' for Inactive)
REMARK    1  A    between atoms: C_1  and  C_2
REMARK    2  A    between atoms: C_2  and  C_3
REMARK    3  A    between atoms: C_3  and  C_4
REMARK    4  A    between atoms: C_4  and  C_5
REMARK    5  A    between atoms: C_4  and  N_6
REMARK    6  A    between atoms: N_6  and  S_7
REMARK    7  A    between atoms: S_7  and  C_10
REMARK                            x       y       z     vdW  Elec       q    Type
REMARK                         _______ _______ _______ _____ _____    ______ ____
ROOT
ATOM      1  S   UNL     1       4.477   4.395  17.733  0.00  0.00    +0.000 S 
ATOM      2  O   UNL     1       4.317   5.810  17.479  0.00  0.00    +0.000 OA
ATOM      3  O   UNL     1       4.479   3.445  16.645  0.00  0.00    +0.000 OA
ENDROOT
BRANCH   1   4
ATOM      4  C   UNL     1       3.256   3.911  18.914  0.00  0.00    +0.000 A 
ATOM      5  C   UNL     1       1.911   4.247  18.709  0.00  0.00    +0.000 A 
ATOM      6  C   UNL     1       0.948   3.842  19.636  0.00  0.00    +0.000 A 
ATOM      7  C   UNL     1       1.335   3.112  20.760  0.00  0.00    +0.000 A 
ATOM      8  C   UNL     1       2.679   2.794  20.953  0.00  0.00    +0.000 A 
ATOM      9  F   UNL     1       3.037   2.087  22.031  0.00  0.00    +0.000 F 
ATOM     10  C   UNL     1       3.649   3.189  20.041  0.00  0.00    +0.000 A 
ENDBRANCH   1   4
BRANCH   1  11
ATOM     11  N   UNL     1       5.937   4.214  18.570  0.00  0.00    +0.000 NA
ATOM     12  H   UNL     1       5.804   4.544  19.529  0.00  0.00    +0.000 HD
BRANCH  11  13
ATOM     13  C   UNL     1       7.222   4.624  17.960  0.00  0.00    +0.000 C 
ATOM     14  C   UNL     1       7.158   4.632  16.437  0.00  0.00    +0.000 C 
BRANCH  13  15
ATOM     15  C   UNL     1       7.586   6.036  18.460  0.00  0.00    +0.000 C 
BRANCH  15  17
ATOM     16  C   UNL     1       8.079   8.431  17.868  0.00  0.00    +0.000 C 
ATOM     17  C   UNL     1       7.456   7.126  17.392  0.00  0.00    +0.000 C 
ENDBRANCH  15  17
ENDBRANCH  13  15
ENDBRANCH  11  13
ENDBRANCH   1  11
TORSDOF 5
ENDMDL
