MODEL 1
REMARK VINA RESULT:      -7.9      0.000      0.000
REMARK  Name = 
REMARK  4 active torsions:
REMARK  status: ('A' for Active; 'I' for Inactive)
REMARK    1  A    between atoms: C_1  and  C_2
REMARK    2  A    between atoms: C_2  and  C_3
REMARK    3  A    between atoms: C_6  and  N_7
REMARK    4  A    between atoms: C_14  and  C_16
REMARK                            x       y       z     vdW  Elec       q    Type
REMARK                         _______ _______ _______ _____ _____    ______ ____
ROOT
ATOM      1  N   UNL     1      -0.417  11.209  21.821  0.00  0.00    +0.000 N 
ATOM      2  C   UNL     1      -0.582  10.858  20.483  0.00  0.00    +0.000 C 
ATOM      3  O   UNL     1      -1.443  11.345  19.751  0.00  0.00    +0.000 OA
ATOM      4  N   UNL     1       0.388   9.955  19.962  0.00  0.00    +0.000 N 
ATOM      5  C   UNL     1       0.337   9.710  18.506  0.00  0.00    +0.000 C 
ATOM      6  C   UNL     1       1.666   9.155  17.916  0.00  0.00    +0.000 C 
ATOM      7  N   UNL     1       2.199   7.986  18.644  0.00  0.00    +0.000 N 
ATOM      8  C   UNL     1       3.221   7.176  18.006  0.00  0.00    +0.000 C 
ATOM      9  O   UNL     1       3.772   7.557  16.971  0.00  0.00    +0.000 OA
ATOM     10  C   UNL     1       2.198   8.184  20.108  0.00  0.00    +0.000 C 
ATOM     11  C   UNL     1       0.876   8.774  20.692  0.00  0.00    +0.000 C 
ATOM     12  H   UNL     1       0.481  10.989  22.218  0.00  0.00    +0.000 HD
ENDROOT
BRANCH   8  13
ATOM     13  C   UNL     1       3.511   5.801  18.571  0.00  0.00    +0.000 A 
ATOM     14  N   UNL     1       4.782   5.385  18.471  0.00  0.00    +0.000 NA
ATOM     15  S   UNL     1       5.000   3.944  19.201  0.00  0.00    +0.000 S 
ATOM     16  C   UNL     1       3.393   3.732  19.736  0.00  0.00    +0.000 A 
ATOM     17  C   UNL     1       2.882   2.635  20.472  0.00  0.00    +0.000 A 
ATOM     18  C   UNL     1       1.540   2.620  20.822  0.00  0.00    +0.000 A 
ATOM     19  C   UNL     1       0.735   3.685  20.453  0.00  0.00    +0.000 A 
ATOM     20  C   UNL     1       1.255   4.793  19.726  0.00  0.00    +0.000 A 
ATOM     21  C   UNL     1       2.632   4.843  19.330  0.00  0.00    +0.000 A 
ENDBRANCH   8  13
BRANCH   1  25
ATOM     22  C   UNL     1      -2.716  14.125  24.044  0.00  0.00    +0.000 A 
ATOM     23  C   UNL     1      -3.198  12.825  23.857  0.00  0.00    +0.000 A 
ATOM     24  C   UNL     1      -2.464  11.856  23.136  0.00  0.00    +0.000 A 
ATOM     25  C   UNL     1      -1.214  12.142  22.577  0.00  0.00    +0.000 A 
ATOM     26  C   UNL     1      -0.721  13.442  22.788  0.00  0.00    +0.000 A 
ATOM     27  C   UNL     1      -1.454  14.418  23.501  0.00  0.00    +0.000 A 
BRANCH  22  29
ATOM     28  C   UNL     1      -4.783  15.611  24.055  0.00  0.00    +0.000 C 
ATOM     29  C   UNL     1      -3.520  15.168  24.785  0.00  0.00    +0.000 C 
ENDBRANCH  22  29
ENDBRANCH   1  25
TORSDOF 3
ENDMDL
MODEL 2
REMARK VINA RESULT:      -7.8      0.898      1.314
REMARK  Name = 
REMARK  4 active torsions:
REMARK  status: ('A' for Active; 'I' for Inactive)
REMARK    1  A    between atoms: C_1  and  C_2
REMARK    2  A    between atoms: C_2  and  C_3
REMARK    3  A    between atoms: C_6  and  N_7
REMARK    4  A    between atoms: C_14  and  C_16
REMARK                            x       y       z     vdW  Elec       q    Type
REMARK                         _______ _______ _______ _____ _____    ______ ____
ROOT
ATOM      1  N   UNL     1      -0.083  10.971  21.518  0.00  0.00    +0.000 N 
ATOM      2  C   UNL     1      -0.157  10.700  20.154  0.00  0.00    +0.000 C 
ATOM      3  O   UNL     1      -0.917  11.286  19.383  0.00  0.00    +0.000 OA
ATOM      4  N   UNL     1       0.787   9.755  19.664  0.00  0.00    +0.000 N 
ATOM      5  C   UNL     1       0.844   9.589  18.196  0.00  0.00    +0.000 C 
ATOM      6  C   UNL     1       2.177   8.967  17.687  0.00  0.00    +0.000 C 
ATOM      7  N   UNL     1       2.563   7.726  18.388  0.00  0.00    +0.000 N 
ATOM      8  C   UNL     1       3.576   6.876  17.791  0.00  0.00    +0.000 C 
ATOM      9  O   UNL     1       4.239   7.267  16.827  0.00  0.00    +0.000 OA
ATOM     10  C   UNL     1       2.450   7.849  19.856  0.00  0.00    +0.000 C 
ATOM     11  C   UNL     1       1.128   8.506  20.363  0.00  0.00    +0.000 C 
ATOM     12  H   UNL     1       0.760  10.665  21.974  0.00  0.00    +0.000 HD
ENDROOT
BRANCH   8  13
ATOM     13  C   UNL     1       3.721   5.456  18.299  0.00  0.00    +0.000 A 
ATOM     14  N   UNL     1       4.939   5.117  18.747  0.00  0.00    +0.000 NA
ATOM     15  S   UNL     1       4.952   3.608  19.362  0.00  0.00    +0.000 S 
ATOM     16  C   UNL     1       3.303   3.255  19.093  0.00  0.00    +0.000 A 
ATOM     17  C   UNL     1       2.631   2.051  19.417  0.00  0.00    +0.000 A 
ATOM     18  C   UNL     1       1.281   1.928  19.121  0.00  0.00    +0.000 A 
ATOM     19  C   UNL     1       0.622   2.992  18.527  0.00  0.00    +0.000 A 
ATOM     20  C   UNL     1       1.298   4.206  18.216  0.00  0.00    +0.000 A 
ATOM     21  C   UNL     1       2.695   4.370  18.490  0.00  0.00    +0.000 A 
ENDBRANCH   8  13
BRANCH   1  25
ATOM     22  C   UNL     1      -2.535  13.704  23.809  0.00  0.00    +0.000 A 
ATOM     23  C   UNL     1      -1.410  14.161  23.115  0.00  0.00    +0.000 A 
ATOM     24  C   UNL     1      -0.596  13.288  22.359  0.00  0.00    +0.000 A 
ATOM     25  C   UNL     1      -0.875  11.921  22.259  0.00  0.00    +0.000 A 
ATOM     26  C   UNL     1      -2.020  11.468  22.938  0.00  0.00    +0.000 A 
ATOM     27  C   UNL     1      -2.833  12.336  23.701  0.00  0.00    +0.000 A 
BRANCH  22  29
ATOM     28  C   UNL     1      -2.581  15.683  25.410  0.00  0.00    +0.000 C 
ATOM     29  C   UNL     1      -3.382  14.636  24.644  0.00  0.00    +0.000 C 
ENDBRANCH  22  29
ENDBRANCH   1  25
TORSDOF 3
ENDMDL
MODEL 3
REMARK VINA RESULT:      -7.6      1.518      1.884
REMARK  Name = 
REMARK  4 active torsions:
REMARK  status: ('A' for Active; 'I' for Inactive)
REMARK    1  A    between atoms: C_1  and  C_2
REMARK    2  A    between atoms: C_2  and  C_3
REMARK    3  A    between atoms: C_6  and  N_7
REMARK    4  A    between atoms: C_14  and  C_16
REMARK                            x       y       z     vdW  Elec       q    Type
REMARK                         _______ _______ _______ _____ _____    ______ ____
ROOT
ATOM      1  N   UNL     1      -0.953  11.733  22.356  0.00  0.00    +0.000 N 
ATOM      2  C   UNL     1      -0.945  11.482  20.986  0.00  0.00    +0.000 C 
ATOM      3  O   UNL     1      -1.568  12.155  20.166  0.00  0.00    +0.000 OA
ATOM      4  N   UNL     1      -0.075  10.440  20.558  0.00  0.00    +0.000 N 
ATOM      5  C   UNL     1       0.082  10.278  19.098  0.00  0.00    +0.000 C 
ATOM      6  C   UNL     1       1.374   9.513  18.687  0.00  0.00    +0.000 C 
ATOM      7  N   UNL     1       1.560   8.232  19.397  0.00  0.00    +0.000 N 
ATOM      8  C   UNL     1       2.517   7.277  18.870  0.00  0.00    +0.000 C 
ATOM      9  O   UNL     1       3.296   7.597  17.968  0.00  0.00    +0.000 OA
ATOM     10  C   UNL     1       1.342   8.357  20.852  0.00  0.00    +0.000 C 
ATOM     11  C   UNL     1       0.066   9.155  21.262  0.00  0.00    +0.000 C 
ATOM     12  H   UNL     1      -0.189  11.330  22.873  0.00  0.00    +0.000 HD
ENDROOT
BRANCH   8  13
ATOM     13  C   UNL     1       2.459   5.846  19.364  0.00  0.00    +0.000 A 
ATOM     14  N   UNL     1       1.848   5.660  20.544  0.00  0.00    +0.000 NA
ATOM     15  S   UNL     1       1.753   4.078  20.926  0.00  0.00    +0.000 S 
ATOM     16  C   UNL     1       2.527   3.476  19.528  0.00  0.00    +0.000 A 
ATOM     17  C   UNL     1       2.777   2.117  19.218  0.00  0.00    +0.000 A 
ATOM     18  C   UNL     1       3.427   1.801  18.034  0.00  0.00    +0.000 A 
ATOM     19  C   UNL     1       3.805   2.823  17.179  0.00  0.00    +0.000 A 
ATOM     20  C   UNL     1       3.540   4.187  17.488  0.00  0.00    +0.000 A 
ATOM     21  C   UNL     1       2.884   4.559  18.707  0.00  0.00    +0.000 A 
ENDBRANCH   8  13
BRANCH   1  25
ATOM     22  C   UNL     1      -3.056  14.922  24.389  0.00  0.00    +0.000 A 
ATOM     23  C   UNL     1      -3.679  13.693  24.149  0.00  0.00    +0.000 A 
ATOM     24  C   UNL     1      -3.011  12.636  23.489  0.00  0.00    +0.000 A 
ATOM     25  C   UNL     1      -1.691  12.761  23.046  0.00  0.00    +0.000 A 
ATOM     26  C   UNL     1      -1.059  13.989  23.310  0.00  0.00    +0.000 A 
ATOM     27  C   UNL     1      -1.724  15.052  23.963  0.00  0.00    +0.000 A 
BRANCH  22  29
ATOM     28  C   UNL     1      -2.973  17.345  25.165  0.00  0.00    +0.000 C 
ATOM     29  C   UNL     1      -3.787  16.060  25.064  0.00  0.00    +0.000 C 
ENDBRANCH  22  29
ENDBRANCH   1  25
TORSDOF 3
ENDMDL
MODEL 4
REMARK VINA RESULT:      -7.3      1.068      1.446
REMARK  Name = 
REMARK  4 active torsions:
REMARK  status: ('A' for Active; 'I' for Inactive)
REMARK    1  A    between atoms: C_1  and  C_2
REMARK    2  A    between atoms: C_2  and  C_3
REMARK    3  A    between atoms: C_6  and  N_7
REMARK    4  A    between atoms: C_14  and  C_16
REMARK                            x       y       z     vdW  Elec       q    Type
REMARK                         _______ _______ _______ _____ _____    ______ ____
ROOT
ATOM      1  N   UNL     1      -0.289  11.139  21.711  0.00  0.00    +0.000 N 
ATOM      2  C   UNL     1      -0.053  11.123  20.339  0.00  0.00    +0.000 C 
ATOM      3  O   UNL     1      -0.422  12.012  19.573  0.00  0.00    +0.000 OA
ATOM      4  N   UNL     1       0.748  10.044  19.867  0.00  0.00    +0.000 N 
ATOM      5  C   UNL     1       1.158  10.107  18.448  0.00  0.00    +0.000 C 
ATOM      6  C   UNL     1       2.400   9.230  18.115  0.00  0.00    +0.000 C 
ATOM      7  N   UNL     1       2.288   7.835  18.586  0.00  0.00    +0.000 N 
ATOM      8  C   UNL     1       3.203   6.845  18.049  0.00  0.00    +0.000 C 
ATOM      9  O   UNL     1       4.172   7.186  17.366  0.00  0.00    +0.000 OA
ATOM     10  C   UNL     1       1.816   7.747  19.982  0.00  0.00    +0.000 C 
ATOM     11  C   UNL     1       0.593   8.654  20.324  0.00  0.00    +0.000 C 
ATOM     12  H   UNL     1       0.307  10.541  22.259  0.00  0.00    +0.000 HD
ENDROOT
BRANCH   8  13
ATOM     13  C   UNL     1       2.877   5.378  18.243  0.00  0.00    +0.000 A 
ATOM     14  N   UNL     1       2.961   4.611  17.146  0.00  0.00    +0.000 NA
ATOM     15  S   UNL     1       2.692   3.041  17.491  0.00  0.00    +0.000 S 
ATOM     16  C   UNL     1       2.439   3.233  19.168  0.00  0.00    +0.000 A 
ATOM     17  C   UNL     1       2.149   2.210  20.104  0.00  0.00    +0.000 A 
ATOM     18  C   UNL     1       1.965   2.544  21.438  0.00  0.00    +0.000 A 
ATOM     19  C   UNL     1       2.081   3.869  21.823  0.00  0.00    +0.000 A 
ATOM     20  C   UNL     1       2.387   4.893  20.882  0.00  0.00    +0.000 A 
ATOM     21  C   UNL     1       2.570   4.595  19.492  0.00  0.00    +0.000 A 
ENDBRANCH   8  13
BRANCH   1  25
ATOM     22  C   UNL     1      -2.557  14.031  23.995  0.00  0.00    +0.000 A 
ATOM     23  C   UNL     1      -1.314  14.366  23.450  0.00  0.00    +0.000 A 
ATOM     24  C   UNL     1      -0.556  13.439  22.699  0.00  0.00    +0.000 A 
ATOM     25  C   UNL     1      -1.012  12.139  22.456  0.00  0.00    +0.000 A 
ATOM     26  C   UNL     1      -2.273  11.813  22.985  0.00  0.00    +0.000 A 
ATOM     27  C   UNL     1      -3.031  12.733  23.743  0.00  0.00    +0.000 A 
BRANCH  22  29
ATOM     28  C   UNL     1      -2.651  16.356  25.028  0.00  0.00    +0.000 C 
ATOM     29  C   UNL     1      -3.347  15.015  24.828  0.00  0.00    +0.000 C 
ENDBRANCH  22  29
ENDBRANCH   1  25
TORSDOF 3
ENDMDL
MODEL 5
REMARK VINA RESULT:      -7.2      2.853      4.135
REMARK  Name = 
REMARK  4 active torsions:
REMARK  status: ('A' for Active; 'I' for Inactive)
REMARK    1  A    between atoms: C_1  and  C_2
REMARK    2  A    between atoms: C_2  and  C_3
REMARK    3  A    between atoms: C_6  and  N_7
REMARK    4  A    between atoms: C_14  and  C_16
REMARK                            x       y       z     vdW  Elec       q    Type
REMARK                         _______ _______ _______ _____ _____    ______ ____
ROOT
ATOM      1  N   UNL     1      -0.058   9.862  19.922  0.00  0.00    +0.000 N 
ATOM      2  C   UNL     1       0.345   8.887  20.831  0.00  0.00    +0.000 C 
ATOM      3  O   UNL     1      -0.033   8.848  22.002  0.00  0.00    +0.000 OA
ATOM      4  N   UNL     1       1.161   7.850  20.297  0.00  0.00    +0.000 N 
ATOM      5  C   UNL     1       1.449   6.715  21.199  0.00  0.00    +0.000 C 
ATOM      6  C   UNL     1       1.885   5.419  20.456  0.00  0.00    +0.000 C 
ATOM      7  N   UNL     1       2.975   5.627  19.482  0.00  0.00    +0.000 N 
ATOM      8  C   UNL     1       3.696   4.470  18.986  0.00  0.00    +0.000 C 
ATOM      9  O   UNL     1       3.291   3.328  19.218  0.00  0.00    +0.000 OA
ATOM     10  C   UNL     1       2.738   6.797  18.612  0.00  0.00    +0.000 C 
ATOM     11  C   UNL     1       2.266   8.087  19.355  0.00  0.00    +0.000 C 
ATOM     12  H   UNL     1       0.060   9.623  18.952  0.00  0.00    +0.000 HD
ENDROOT
BRANCH   8  13
ATOM     13  C   UNL     1       5.019   4.688  18.282  0.00  0.00    +0.000 A 
ATOM     14  N   UNL     1       6.075   4.911  19.079  0.00  0.00    +0.000 NA
ATOM     15  S   UNL     1       7.457   5.028  18.222  0.00  0.00    +0.000 S 
ATOM     16  C   UNL     1       6.771   4.783  16.678  0.00  0.00    +0.000 A 
ATOM     17  C   UNL     1       7.458   4.760  15.440  0.00  0.00    +0.000 A 
ATOM     18  C   UNL     1       6.741   4.553  14.271  0.00  0.00    +0.000 A 
ATOM     19  C   UNL     1       5.371   4.362  14.346  0.00  0.00    +0.000 A 
ATOM     20  C   UNL     1       4.686   4.371  15.593  0.00  0.00    +0.000 A 
ATOM     21  C   UNL     1       5.386   4.596  16.824  0.00  0.00    +0.000 A 
ENDBRANCH   8  13
BRANCH   1  25
ATOM     22  C   UNL     1      -2.766  13.172  20.588  0.00  0.00    +0.000 A 
ATOM     23  C   UNL     1      -1.708  12.924  21.468  0.00  0.00    +0.000 A 
ATOM     24  C   UNL     1      -0.810  11.851  21.270  0.00  0.00    +0.000 A 
ATOM     25  C   UNL     1      -0.928  10.983  20.180  0.00  0.00    +0.000 A 
ATOM     26  C   UNL     1      -1.978  11.248  19.283  0.00  0.00    +0.000 A 
ATOM     27  C   UNL     1      -2.883  12.315  19.481  0.00  0.00    +0.000 A 
BRANCH  22  29
ATOM     28  C   UNL     1      -5.086  13.848  21.389  0.00  0.00    +0.000 C 
ATOM     29  C   UNL     1      -3.744  14.299  20.824  0.00  0.00    +0.000 C 
ENDBRANCH  22  29
ENDBRANCH   1  25
TORSDOF 3
ENDMDL
MODEL 6
REMARK VINA RESULT:      -7.2      3.387     10.375
REMARK  Name = 
REMARK  4 active torsions:
REMARK  status: ('A' for Active; 'I' for Inactive)
REMARK    1  A    between atoms: C_1  and  C_2
REMARK    2  A    between atoms: C_2  and  C_3
REMARK    3  A    between atoms: C_6  and  N_7
REMARK    4  A    between atoms: C_14  and  C_16
REMARK                            x       y       z     vdW  Elec       q    Type
REMARK                         _______ _______ _______ _____ _____    ______ ____
ROOT
ATOM      1  N   UNL     1       2.810   7.340  18.301  0.00  0.00    +0.000 N 
ATOM      2  C   UNL     1       2.318   7.153  19.590  0.00  0.00    +0.000 C 
ATOM      3  O   UNL     1       2.563   6.161  20.276  0.00  0.00    +0.000 OA
ATOM      4  N   UNL     1       1.578   8.243  20.129  0.00  0.00    +0.000 N 
ATOM      5  C   UNL     1       1.202   8.137  21.554  0.00  0.00    +0.000 C 
ATOM      6  C   UNL     1       0.865   9.504  22.218  0.00  0.00    +0.000 C 
ATOM      7  N   UNL     1      -0.111  10.312  21.459  0.00  0.00    +0.000 N 
ATOM      8  C   UNL     1      -0.759  11.425  22.124  0.00  0.00    +0.000 C 
ATOM      9  O   UNL     1      -0.371  11.813  23.229  0.00  0.00    +0.000 OA
ATOM     10  C   UNL     1       0.210  10.377  20.018  0.00  0.00    +0.000 C 
ATOM     11  C   UNL     1       0.583   9.010  19.363  0.00  0.00    +0.000 C 
ATOM     12  H   UNL     1       2.804   8.291  17.970  0.00  0.00    +0.000 HD
ENDROOT
BRANCH   8  13
ATOM     13  C   UNL     1      -1.998  12.026  21.491  0.00  0.00    +0.000 A 
ATOM     14  N   UNL     1      -2.013  12.053  20.150  0.00  0.00    +0.000 NA
ATOM     15  S   UNL     1      -3.430  12.621  19.579  0.00  0.00    +0.000 S 
ATOM     16  C   UNL     1      -4.177  12.886  21.091  0.00  0.00    +0.000 A 
ATOM     17  C   UNL     1      -5.482  13.390  21.315  0.00  0.00    +0.000 A 
ATOM     18  C   UNL     1      -5.932  13.550  22.618  0.00  0.00    +0.000 A 
ATOM     19  C   UNL     1      -5.098  13.200  23.667  0.00  0.00    +0.000 A 
ATOM     20  C   UNL     1      -3.793  12.680  23.438  0.00  0.00    +0.000 A 
ATOM     21  C   UNL     1      -3.282  12.513  22.109  0.00  0.00    +0.000 A 
ENDBRANCH   8  13
BRANCH   1  25
ATOM     22  C   UNL     1       5.381   4.724  16.005  0.00  0.00    +0.000 A 
ATOM     23  C   UNL     1       4.338   4.204  16.778  0.00  0.00    +0.000 A 
ATOM     24  C   UNL     1       3.484   5.039  17.534  0.00  0.00    +0.000 A 
ATOM     25  C   UNL     1       3.634   6.430  17.545  0.00  0.00    +0.000 A 
ATOM     26  C   UNL     1       4.668   6.951  16.749  0.00  0.00    +0.000 A 
ATOM     27  C   UNL     1       5.530   6.120  15.997  0.00  0.00    +0.000 A 
BRANCH  22  29
ATOM     28  C   UNL     1       6.106   3.874  13.718  0.00  0.00    +0.000 C 
ATOM     29  C   UNL     1       6.313   3.824  15.227  0.00  0.00    +0.000 C 
ENDBRANCH  22  29
ENDBRANCH   1  25
TORSDOF 3
ENDMDL
MODEL 7
REMARK VINA RESULT:      -7.1      1.454      2.023
REMARK  Name = 
REMARK  4 active torsions:
REMARK  status: ('A' for Active; 'I' for Inactive)
REMARK    1  A    between atoms: C_1  and  C_2
REMARK    2  A    between atoms: C_2  and  C_3
REMARK    3  A    between atoms: C_6  and  N_7
REMARK    4  A    between atoms: C_14  and  C_16
REMARK                            x       y       z     vdW  Elec       q    Type
REMARK                         _______ _______ _______ _____ _____    ______ ____
ROOT
ATOM      1  N   UNL     1      -1.144  11.889  21.930  0.00  0.00    +0.000 N 
ATOM      2  C   UNL     1      -1.092  11.580  20.572  0.00  0.00    +0.000 C 
ATOM      3  O   UNL     1      -1.716  12.196  19.709  0.00  0.00    +0.000 OA
ATOM      4  N   UNL     1      -0.179  10.549  20.212  0.00  0.00    +0.000 N 
ATOM      5  C   UNL     1       0.021  10.330  18.764  0.00  0.00    +0.000 C 
ATOM      6  C   UNL     1       1.347   9.592  18.419  0.00  0.00    +0.000 C 
ATOM      7  N   UNL     1       1.555   8.349  19.189  0.00  0.00    +0.000 N 
ATOM      8  C   UNL     1       2.556   7.405  18.728  0.00  0.00    +0.000 C 
ATOM      9  O   UNL     1       3.347   7.711  17.832  0.00  0.00    +0.000 OA
ATOM     10  C   UNL     1       1.297   8.529  20.632  0.00  0.00    +0.000 C 
ATOM     11  C   UNL     1      -0.015   9.302  20.975  0.00  0.00    +0.000 C 
ATOM     12  H   UNL     1      -0.381  11.534  22.482  0.00  0.00    +0.000 HD
ENDROOT
BRANCH   8  13
ATOM     13  C   UNL     1       2.531   5.995  19.283  0.00  0.00    +0.000 A 
ATOM     14  N   UNL     1       1.975   5.855  20.496  0.00  0.00    +0.000 NA
ATOM     15  S   UNL     1       1.910   4.290  20.947  0.00  0.00    +0.000 S 
ATOM     16  C   UNL     1       2.624   3.634  19.542  0.00  0.00    +0.000 A 
ATOM     17  C   UNL     1       2.871   2.265  19.276  0.00  0.00    +0.000 A 
ATOM     18  C   UNL     1       3.470   1.904  18.078  0.00  0.00    +0.000 A 
ATOM     19  C   UNL     1       3.801   2.892  17.166  0.00  0.00    +0.000 A 
ATOM     20  C   UNL     1       3.539   4.266  17.430  0.00  0.00    +0.000 A 
ATOM     21  C   UNL     1       2.936   4.685  18.661  0.00  0.00    +0.000 A 
ENDBRANCH   8  13
BRANCH   1  25
ATOM     22  C   UNL     1      -3.576  14.878  23.898  0.00  0.00    +0.000 A 
ATOM     23  C   UNL     1      -2.510  15.252  23.074  0.00  0.00    +0.000 A 
ATOM     24  C   UNL     1      -1.704  14.294  22.419  0.00  0.00    +0.000 A 
ATOM     25  C   UNL     1      -1.932  12.921  22.555  0.00  0.00    +0.000 A 
ATOM     26  C   UNL     1      -3.019  12.548  23.366  0.00  0.00    +0.000 A 
ATOM     27  C   UNL     1      -3.824  13.502  24.029  0.00  0.00    +0.000 A 
BRANCH  22  29
ATOM     28  C   UNL     1      -5.455  16.590  23.745  0.00  0.00    +0.000 C 
ATOM     29  C   UNL     1      -4.414  15.906  24.624  0.00  0.00    +0.000 C 
ENDBRANCH  22  29
ENDBRANCH   1  25
TORSDOF 3
ENDMDL
MODEL 8
REMARK VINA RESULT:      -7.1      3.116      4.224
REMARK  Name = 
REMARK  4 active torsions:
REMARK  status: ('A' for Active; 'I' for Inactive)
REMARK    1  A    between atoms: C_1  and  C_2
REMARK    2  A    between atoms: C_2  and  C_3
REMARK    3  A    between atoms: C_6  and  N_7
REMARK    4  A    between atoms: C_14  and  C_16
REMARK                            x       y       z     vdW  Elec       q    Type
REMARK                         _______ _______ _______ _____ _____    ______ ____
ROOT
ATOM      1  N   UNL     1       0.635  11.350  19.240  0.00  0.00    +0.000 N 
ATOM      2  C   UNL     1       0.936  10.511  20.311  0.00  0.00    +0.000 C 
ATOM      3  O   UNL     1       0.821  10.842  21.490  0.00  0.00    +0.000 OA
ATOM      4  N   UNL     1       1.298   9.179  19.963  0.00  0.00    +0.000 N 
ATOM      5  C   UNL     1       1.445   8.228  21.085  0.00  0.00    +0.000 C 
ATOM      6  C   UNL     1       1.335   6.734  20.659  0.00  0.00    +0.000 C 
ATOM      7  N   UNL     1       2.206   6.372  19.523  0.00  0.00    +0.000 N 
ATOM      8  C   UNL     1       2.453   4.967  19.258  0.00  0.00    +0.000 C 
ATOM      9  O   UNL     1       1.806   4.092  19.838  0.00  0.00    +0.000 OA
ATOM     10  C   UNL     1       2.123   7.346  18.416  0.00  0.00    +0.000 C 
ATOM     11  C   UNL     1       2.198   8.844  18.848  0.00  0.00    +0.000 C 
ATOM     12  H   UNL     1       0.473  10.887  18.361  0.00  0.00    +0.000 HD
ENDROOT
BRANCH   8  13
ATOM     13  C   UNL     1       3.603   4.595  18.345  0.00  0.00    +0.000 A 
ATOM     14  N   UNL     1       3.265   3.995  17.194  0.00  0.00    +0.000 NA
ATOM     15  S   UNL     1       4.567   3.735  16.248  0.00  0.00    +0.000 S 
ATOM     16  C   UNL     1       5.730   4.415  17.297  0.00  0.00    +0.000 A 
ATOM     17  C   UNL     1       7.123   4.517  17.066  0.00  0.00    +0.000 A 
ATOM     18  C   UNL     1       7.931   5.096  18.034  0.00  0.00    +0.000 A 
ATOM     19  C   UNL     1       7.351   5.572  19.198  0.00  0.00    +0.000 A 
ATOM     20  C   UNL     1       5.948   5.481  19.422  0.00  0.00    +0.000 A 
ATOM     21  C   UNL     1       5.079   4.876  18.455  0.00  0.00    +0.000 A 
ENDBRANCH   8  13
BRANCH   1  25
ATOM     22  C   UNL     1      -0.589  15.499  19.355  0.00  0.00    +0.000 A 
ATOM     23  C   UNL     1      -1.429  14.491  19.839  0.00  0.00    +0.000 A 
ATOM     24  C   UNL     1      -1.050  13.129  19.814  0.00  0.00    +0.000 A 
ATOM     25  C   UNL     1       0.188  12.718  19.309  0.00  0.00    +0.000 A 
ATOM     26  C   UNL     1       1.040  13.736  18.846  0.00  0.00    +0.000 A 
ATOM     27  C   UNL     1       0.663  15.098  18.862  0.00  0.00    +0.000 A 
BRANCH  22  29
ATOM     28  C   UNL     1      -0.876  17.633  17.997  0.00  0.00    +0.000 C 
ATOM     29  C   UNL     1      -1.015  16.949  19.352  0.00  0.00    +0.000 C 
ENDBRANCH  22  29
ENDBRANCH   1  25
TORSDOF 3
ENDMDL
MODEL 9
REMARK VINA RESULT:      -7.1      3.444     10.322
REMARK  Name = 
REMARK  4 active torsions:
REMARK  status: ('A' for Active; 'I' for Inactive)
REMARK    1  A    between atoms: C_1  and  C_2
REMARK    2  A    between atoms: C_2  and  C_3
REMARK    3  A    between atoms: C_6  and  N_7
REMARK    4  A    between atoms: C_14  and  C_16
REMARK                            x       y       z     vdW  Elec       q    Type
REMARK                         _______ _______ _______ _____ _____    ______ ____
ROOT
ATOM      1  N   UNL     1       1.987   7.812  18.877  0.00  0.00    +0.000 N 
ATOM      2  C   UNL     1       1.633   7.778  20.223  0.00  0.00    +0.000 C 
ATOM      3  O   UNL     1       2.021   6.914  21.009  0.00  0.00    +0.000 OA
ATOM      4  N   UNL     1       0.858   8.880  20.682  0.00  0.00    +0.000 N 
ATOM      5  C   UNL     1       0.624   8.953  22.140  0.00  0.00    +0.000 C 
ATOM      6  C   UNL     1       0.238  10.375  22.642  0.00  0.00    +0.000 C 
ATOM      7  N   UNL     1      -0.867  10.995  21.885  0.00  0.00    +0.000 N 
ATOM      8  C   UNL     1      -1.542  12.146  22.457  0.00  0.00    +0.000 C 
ATOM      9  O   UNL     1      -1.087  12.713  23.453  0.00  0.00    +0.000 OA
ATOM     10  C   UNL     1      -0.687  10.876  20.424  0.00  0.00    +0.000 C 
ATOM     11  C   UNL     1      -0.264   9.458  19.926  0.00  0.00    +0.000 C 
ATOM     12  H   UNL     1       1.871   8.703  18.423  0.00  0.00    +0.000 HD
ENDROOT
BRANCH   8  13
ATOM     13  C   UNL     1      -2.879  12.562  21.878  0.00  0.00    +0.000 A 
ATOM     14  N   UNL     1      -2.917  12.715  20.546  0.00  0.00    +0.000 NA
ATOM     15  S   UNL     1      -4.423  13.060  20.026  0.00  0.00    +0.000 S 
ATOM     16  C   UNL     1      -5.186  13.032  21.553  0.00  0.00    +0.000 A 
ATOM     17  C   UNL     1      -6.559  13.259  21.818  0.00  0.00    +0.000 A 
ATOM     18  C   UNL     1      -7.014  13.205  23.127  0.00  0.00    +0.000 A 
ATOM     19  C   UNL     1      -6.116  12.918  24.142  0.00  0.00    +0.000 A 
ATOM     20  C   UNL     1      -4.740  12.676  23.870  0.00  0.00    +0.000 A 
ATOM     21  C   UNL     1      -4.224  12.737  22.534  0.00  0.00    +0.000 A 
ENDBRANCH   8  13
BRANCH   1  25
ATOM     22  C   UNL     1       4.566   5.071  16.740  0.00  0.00    +0.000 A 
ATOM     23  C   UNL     1       3.440   4.607  17.428  0.00  0.00    +0.000 A 
ATOM     24  C   UNL     1       2.582   5.483  18.131  0.00  0.00    +0.000 A 
ATOM     25  C   UNL     1       2.810   6.862  18.171  0.00  0.00    +0.000 A 
ATOM     26  C   UNL     1       3.929   7.330  17.459  0.00  0.00    +0.000 A 
ATOM     27  C   UNL     1       4.794   6.457  16.762  0.00  0.00    +0.000 A 
BRANCH  22  29
ATOM     28  C   UNL     1       5.902   4.594  14.627  0.00  0.00    +0.000 C 
ATOM     29  C   UNL     1       5.499   4.126  16.020  0.00  0.00    +0.000 C 
ENDBRANCH  22  29
ENDBRANCH   1  25
TORSDOF 3
ENDMDL
