MODEL 1
REMARK VINA RESULT:      -9.2      0.000      0.000
REMARK  Name = 
REMARK  10 active torsions:
REMARK  status: ('A' for Active; 'I' for Inactive)
REMARK    1  A    between atoms: C_1  and  C_2
REMARK    2  A    between atoms: C_2  and  C_3
REMARK    3  A    between atoms: C_2  and  N_4
REMARK    4  A    between atoms: C_5  and  C_7
REMARK    5  A    between atoms: C_12  and  C_13
REMARK    6  A    between atoms: C_16  and  O_17
REMARK    7  A    between atoms: O_17  and  C_18
REMARK    8  A    between atoms: C_18  and  C_19
REMARK    9  A    between atoms: N_21  and  S_22
REMARK   10  A    between atoms: S_22  and  C_23
REMARK                            x       y       z     vdW  Elec       q    Type
REMARK                         _______ _______ _______ _____ _____    ______ ____
ROOT
ATOM      1  C   UNL     1       0.660   9.284  21.349  0.00  0.00    +0.000 A 
ATOM      2  C   UNL     1       0.806  10.538  20.744  0.00  0.00    +0.000 A 
ATOM      3  C   UNL     1       0.172  11.662  21.260  0.00  0.00    +0.000 A 
ATOM      4  C   UNL     1      -0.652  11.551  22.376  0.00  0.00    +0.000 A 
ATOM      5  C   UNL     1      -0.762  10.324  23.030  0.00  0.00    +0.000 A 
ATOM      6  C   UNL     1      -0.114   9.194  22.516  0.00  0.00    +0.000 A 
ENDROOT
BRANCH   1  12
ATOM      7  C   UNL     1       3.472   4.748  18.692  0.00  0.00    +0.000 A 
ATOM      8  C   UNL     1       2.959   4.001  19.761  0.00  0.00    +0.000 A 
ATOM      9  C   UNL     1       2.170   4.597  20.744  0.00  0.00    +0.000 A 
ATOM     10  C   UNL     1       1.925   5.960  20.594  0.00  0.00    +0.000 A 
ATOM     11  N   UNL     1       1.216   6.848  21.348  0.00  0.00    +0.000 N 
ATOM     12  C   UNL     1       1.286   8.095  20.769  0.00  0.00    +0.000 A 
ATOM     13  N   UNL     1       2.007   8.035  19.663  0.00  0.00    +0.000 NA
ATOM     14  C   UNL     1       2.408   6.726  19.545  0.00  0.00    +0.000 A 
ATOM     15  C   UNL     1       3.195   6.118  18.564  0.00  0.00    +0.000 A 
ATOM     16  H   UNL     1       0.732   6.619  22.201  0.00  0.00    +0.000 HD
BRANCH   7  18
ATOM     17  N   UNL     1       5.270   4.822  17.016  0.00  0.00    +0.000 N 
ATOM     18  C   UNL     1       4.354   4.064  17.704  0.00  0.00    +0.000 C 
ATOM     19  N   UNL     1       4.228   2.791  17.549  0.00  0.00    +0.000 NA
ATOM     20  H   UNL     1       5.308   5.800  17.285  0.00  0.00    +0.000 HD
ATOM     21  H   UNL     1       4.866   2.470  16.822  0.00  0.00    +0.000 HD
BRANCH  17  23
ATOM     22  C   UNL     1       6.848   5.098  15.205  0.00  0.00    +0.000 C 
ATOM     23  C   UNL     1       6.548   4.348  16.503  0.00  0.00    +0.000 C 
ATOM     24  C   UNL     1       7.671   4.596  17.510  0.00  0.00    +0.000 C 
ENDBRANCH  17  23
ENDBRANCH   7  18
ENDBRANCH   1  12
BRANCH   4  25
ATOM     25  O   UNL     1      -1.392  12.587  22.881  0.00  0.00    +0.000 OA
BRANCH  25  26
ATOM     26  C   UNL     1      -1.957  13.442  21.873  0.00  0.00    +0.000 C 
BRANCH  26  27
ATOM     27  C   UNL     1      -3.210  12.889  21.314  0.00  0.00    +0.000 A 
ATOM     28  C   UNL     1      -3.575  12.677  20.001  0.00  0.00    +0.000 A 
ATOM     29  N   UNL     1      -4.839  12.194  20.096  0.00  0.00    +0.000 N 
ATOM     30  N   UNL     1      -5.268  12.160  21.367  0.00  0.00    +0.000 NA
ATOM     31  N   UNL     1      -4.265  12.569  22.133  0.00  0.00    +0.000 NA
BRANCH  29  32
ATOM     32  S   UNL     1      -5.816  11.837  18.788  0.00  0.00    +0.000 S 
BRANCH  32  33
ATOM     33  C   UNL     1      -4.598  11.137  17.690  0.00  0.00    +0.000 A 
ATOM     34  C   UNL     1      -4.435  11.613  16.386  0.00  0.00    +0.000 A 
ATOM     35  C   UNL     1      -3.499  11.029  15.532  0.00  0.00    +0.000 A 
ATOM     36  C   UNL     1      -2.706   9.976  15.982  0.00  0.00    +0.000 A 
ATOM     37  C   UNL     1      -2.837   9.518  17.292  0.00  0.00    +0.000 A 
ATOM     38  C   UNL     1      -3.778  10.099  18.145  0.00  0.00    +0.000 A 
ENDBRANCH  32  33
ENDBRANCH  29  32
ENDBRANCH  26  27
ENDBRANCH  25  26
ENDBRANCH   4  25
TORSDOF 8
ENDMDL
MODEL 2
REMARK VINA RESULT:      -9.1      0.445      1.095
REMARK  Name = 
REMARK  10 active torsions:
REMARK  status: ('A' for Active; 'I' for Inactive)
REMARK    1  A    between atoms: C_1  and  C_2
REMARK    2  A    between atoms: C_2  and  C_3
REMARK    3  A    between atoms: C_2  and  N_4
REMARK    4  A    between atoms: C_5  and  C_7
REMARK    5  A    between atoms: C_12  and  C_13
REMARK    6  A    between atoms: C_16  and  O_17
REMARK    7  A    between atoms: O_17  and  C_18
REMARK    8  A    between atoms: C_18  and  C_19
REMARK    9  A    between atoms: N_21  and  S_22
REMARK   10  A    between atoms: S_22  and  C_23
REMARK                            x       y       z     vdW  Elec       q    Type
REMARK                         _______ _______ _______ _____ _____    ______ ____
ROOT
ATOM      1  C   UNL     1       0.621   9.317  21.287  0.00  0.00    +0.000 A 
ATOM      2  C   UNL     1       0.563  10.574  20.674  0.00  0.00    +0.000 A 
ATOM      3  C   UNL     1      -0.122  11.629  21.265  0.00  0.00    +0.000 A 
ATOM      4  C   UNL     1      -0.794  11.441  22.469  0.00  0.00    +0.000 A 
ATOM      5  C   UNL     1      -0.698  10.214  23.126  0.00  0.00    +0.000 A 
ATOM      6  C   UNL     1       0.001   9.155  22.535  0.00  0.00    +0.000 A 
ENDROOT
BRANCH   1  12
ATOM      7  C   UNL     1       3.585   5.083  18.314  0.00  0.00    +0.000 A 
ATOM      8  C   UNL     1       3.226   4.279  19.403  0.00  0.00    +0.000 A 
ATOM      9  C   UNL     1       2.472   4.789  20.459  0.00  0.00    +0.000 A 
ATOM     10  C   UNL     1       2.100   6.127  20.360  0.00  0.00    +0.000 A 
ATOM     11  N   UNL     1       1.381   6.938  21.187  0.00  0.00    +0.000 N 
ATOM     12  C   UNL     1       1.297   8.195  20.632  0.00  0.00    +0.000 A 
ATOM     13  N   UNL     1       1.927   8.216  19.471  0.00  0.00    +0.000 NA
ATOM     14  C   UNL     1       2.428   6.948  19.293  0.00  0.00    +0.000 A 
ATOM     15  C   UNL     1       3.182   6.426  18.239  0.00  0.00    +0.000 A 
ATOM     16  H   UNL     1       0.990   6.655  22.071  0.00  0.00    +0.000 HD
BRANCH   7  18
ATOM     17  N   UNL     1       5.048   5.346  16.355  0.00  0.00    +0.000 N 
ATOM     18  C   UNL     1       4.439   4.494  17.243  0.00  0.00    +0.000 C 
ATOM     19  N   UNL     1       4.578   3.213  17.207  0.00  0.00    +0.000 NA
ATOM     20  H   UNL     1       4.907   6.333  16.541  0.00  0.00    +0.000 HD
ATOM     21  H   UNL     1       5.155   2.955  16.408  0.00  0.00    +0.000 HD
BRANCH  17  23
ATOM     22  C   UNL     1       7.337   4.648  16.708  0.00  0.00    +0.000 C 
ATOM     23  C   UNL     1       6.308   5.095  15.669  0.00  0.00    +0.000 C 
ATOM     24  C   UNL     1       6.149   4.009  14.605  0.00  0.00    +0.000 C 
ENDBRANCH  17  23
ENDBRANCH   7  18
ENDBRANCH   1  12
BRANCH   4  25
ATOM     25  O   UNL     1      -1.575  12.398  23.062  0.00  0.00    +0.000 OA
BRANCH  25  26
ATOM     26  C   UNL     1      -2.114  13.360  22.140  0.00  0.00    +0.000 C 
BRANCH  26  27
ATOM     27  C   UNL     1      -3.340  12.865  21.475  0.00  0.00    +0.000 A 
ATOM     28  C   UNL     1      -3.635  12.753  20.132  0.00  0.00    +0.000 A 
ATOM     29  N   UNL     1      -4.907  12.282  20.123  0.00  0.00    +0.000 N 
ATOM     30  N   UNL     1      -5.405  12.163  21.364  0.00  0.00    +0.000 NA
ATOM     31  N   UNL     1      -4.441  12.502  22.210  0.00  0.00    +0.000 NA
BRANCH  29  32
ATOM     32  S   UNL     1      -5.814  12.034  18.742  0.00  0.00    +0.000 S 
BRANCH  32  33
ATOM     33  C   UNL     1      -4.593  11.221  17.728  0.00  0.00    +0.000 A 
ATOM     34  C   UNL     1      -3.785  10.201  18.238  0.00  0.00    +0.000 A 
ATOM     35  C   UNL     1      -2.813   9.601  17.436  0.00  0.00    +0.000 A 
ATOM     36  C   UNL     1      -2.654  10.005  16.113  0.00  0.00    +0.000 A 
ATOM     37  C   UNL     1      -3.479  10.998  15.586  0.00  0.00    +0.000 A 
ATOM     38  C   UNL     1      -4.448  11.601  16.390  0.00  0.00    +0.000 A 
ENDBRANCH  32  33
ENDBRANCH  29  32
ENDBRANCH  26  27
ENDBRANCH  25  26
ENDBRANCH   4  25
TORSDOF 8
ENDMDL
MODEL 3
REMARK VINA RESULT:      -8.7      1.327      1.942
REMARK  Name = 
REMARK  10 active torsions:
REMARK  status: ('A' for Active; 'I' for Inactive)
REMARK    1  A    between atoms: C_1  and  C_2
REMARK    2  A    between atoms: C_2  and  C_3
REMARK    3  A    between atoms: C_2  and  N_4
REMARK    4  A    between atoms: C_5  and  C_7
REMARK    5  A    between atoms: C_12  and  C_13
REMARK    6  A    between atoms: C_16  and  O_17
REMARK    7  A    between atoms: O_17  and  C_18
REMARK    8  A    between atoms: C_18  and  C_19
REMARK    9  A    between atoms: N_21  and  S_22
REMARK   10  A    between atoms: S_22  and  C_23
REMARK                            x       y       z     vdW  Elec       q    Type
REMARK                         _______ _______ _______ _____ _____    ______ ____
ROOT
ATOM      1  C   UNL     1       0.074  10.721  21.524  0.00  0.00    +0.000 A 
ATOM      2  C   UNL     1       0.170  12.102  21.321  0.00  0.00    +0.000 A 
ATOM      3  C   UNL     1      -0.582  12.993  22.077  0.00  0.00    +0.000 A 
ATOM      4  C   UNL     1      -1.475  12.520  23.034  0.00  0.00    +0.000 A 
ATOM      5  C   UNL     1      -1.542  11.151  23.294  0.00  0.00    +0.000 A 
ATOM      6  C   UNL     1      -0.775  10.255  22.539  0.00  0.00    +0.000 A 
ENDROOT
BRANCH   1  12
ATOM      7  C   UNL     1       3.034   6.558  18.448  0.00  0.00    +0.000 A 
ATOM      8  C   UNL     1       2.991   7.505  17.417  0.00  0.00    +0.000 A 
ATOM      9  C   UNL     1       2.384   8.747  17.602  0.00  0.00    +0.000 A 
ATOM     10  C   UNL     1       1.835   8.982  18.860  0.00  0.00    +0.000 A 
ATOM     11  N   UNL     1       1.177  10.056  19.382  0.00  0.00    +0.000 N 
ATOM     12  C   UNL     1       0.827   9.786  20.686  0.00  0.00    +0.000 A 
ATOM     13  N   UNL     1       1.247   8.579  21.021  0.00  0.00    +0.000 NA
ATOM     14  C   UNL     1       1.868   8.072  19.905  0.00  0.00    +0.000 A 
ATOM     15  C   UNL     1       2.481   6.833  19.710  0.00  0.00    +0.000 A 
ATOM     16  H   UNL     1       0.973  10.905  18.879  0.00  0.00    +0.000 HD
BRANCH   7  18
ATOM     17  N   UNL     1       4.347   5.068  16.999  0.00  0.00    +0.000 N 
ATOM     18  C   UNL     1       3.649   5.229  18.170  0.00  0.00    +0.000 C 
ATOM     19  N   UNL     1       3.511   4.296  19.048  0.00  0.00    +0.000 NA
ATOM     20  H   UNL     1       4.434   5.905  16.431  0.00  0.00    +0.000 HD
ATOM     21  H   UNL     1       3.950   3.441  18.709  0.00  0.00    +0.000 HD
BRANCH  17  23
ATOM     22  C   UNL     1       5.724   4.049  15.292  0.00  0.00    +0.000 C 
ATOM     23  C   UNL     1       5.462   4.153  16.795  0.00  0.00    +0.000 C 
ATOM     24  C   UNL     1       6.721   4.654  17.502  0.00  0.00    +0.000 C 
ENDBRANCH  17  23
ENDBRANCH   7  18
ENDBRANCH   1  12
BRANCH   4  25
ATOM     25  O   UNL     1      -2.325  13.325  23.746  0.00  0.00    +0.000 OA
BRANCH  25  26
ATOM     26  C   UNL     1      -3.111  14.206  22.927  0.00  0.00    +0.000 C 
BRANCH  26  27
ATOM     27  C   UNL     1      -3.932  13.466  21.943  0.00  0.00    +0.000 A 
ATOM     28  C   UNL     1      -3.975  13.573  20.568  0.00  0.00    +0.000 A 
ATOM     29  N   UNL     1      -4.934  12.683  20.210  0.00  0.00    +0.000 N 
ATOM     30  N   UNL     1      -5.501  12.101  21.278  0.00  0.00    +0.000 NA
ATOM     31  N   UNL     1      -4.878  12.561  22.355  0.00  0.00    +0.000 NA
BRANCH  29  32
ATOM     32  S   UNL     1      -5.471  12.450  18.645  0.00  0.00    +0.000 S 
BRANCH  32  33
ATOM     33  C   UNL     1      -4.110  11.494  18.003  0.00  0.00    +0.000 A 
ATOM     34  C   UNL     1      -4.245  10.721  16.846  0.00  0.00    +0.000 A 
ATOM     35  C   UNL     1      -3.177   9.955  16.380  0.00  0.00    +0.000 A 
ATOM     36  C   UNL     1      -1.960   9.969  17.057  0.00  0.00    +0.000 A 
ATOM     37  C   UNL     1      -1.805  10.763  18.191  0.00  0.00    +0.000 A 
ATOM     38  C   UNL     1      -2.876  11.527  18.661  0.00  0.00    +0.000 A 
ENDBRANCH  32  33
ENDBRANCH  29  32
ENDBRANCH  26  27
ENDBRANCH  25  26
ENDBRANCH   4  25
TORSDOF 8
ENDMDL
MODEL 4
REMARK VINA RESULT:      -8.6      2.463      3.414
REMARK  Name = 
REMARK  10 active torsions:
REMARK  status: ('A' for Active; 'I' for Inactive)
REMARK    1  A    between atoms: C_1  and  C_2
REMARK    2  A    between atoms: C_2  and  C_3
REMARK    3  A    between atoms: C_2  and  N_4
REMARK    4  A    between atoms: C_5  and  C_7
REMARK    5  A    between atoms: C_12  and  C_13
REMARK    6  A    between atoms: C_16  and  O_17
REMARK    7  A    between atoms: O_17  and  C_18
REMARK    8  A    between atoms: C_18  and  C_19
REMARK    9  A    between atoms: N_21  and  S_22
REMARK   10  A    between atoms: S_22  and  C_23
REMARK                            x       y       z     vdW  Elec       q    Type
REMARK                         _______ _______ _______ _____ _____    ______ ____
ROOT
ATOM      1  C   UNL     1      -0.534  11.299  21.420  0.00  0.00    +0.000 A 
ATOM      2  C   UNL     1      -1.193  10.993  22.616  0.00  0.00    +0.000 A 
ATOM      3  C   UNL     1      -1.910  11.963  23.309  0.00  0.00    +0.000 A 
ATOM      4  C   UNL     1      -1.955  13.271  22.836  0.00  0.00    +0.000 A 
ATOM      5  C   UNL     1      -1.357  13.582  21.615  0.00  0.00    +0.000 A 
ATOM      6  C   UNL     1      -0.644  12.602  20.913  0.00  0.00    +0.000 A 
ENDROOT
BRANCH   1  12
ATOM      7  C   UNL     1       2.637   6.877  18.983  0.00  0.00    +0.000 A 
ATOM      8  C   UNL     1       2.532   7.647  17.817  0.00  0.00    +0.000 A 
ATOM      9  C   UNL     1       1.856   8.866  17.817  0.00  0.00    +0.000 A 
ATOM     10  C   UNL     1       1.304   9.265  19.032  0.00  0.00    +0.000 A 
ATOM     11  N   UNL     1       0.590  10.369  19.391  0.00  0.00    +0.000 N 
ATOM     12  C   UNL     1       0.265  10.288  20.726  0.00  0.00    +0.000 A 
ATOM     13  N   UNL     1       0.757   9.174  21.239  0.00  0.00    +0.000 NA
ATOM     14  C   UNL     1       1.397   8.533  20.205  0.00  0.00    +0.000 A 
ATOM     15  C   UNL     1       2.080   7.315  20.195  0.00  0.00    +0.000 A 
ATOM     16  H   UNL     1       0.333  11.116  18.765  0.00  0.00    +0.000 HD
BRANCH   7  18
ATOM     17  N   UNL     1       4.004   5.244  17.754  0.00  0.00    +0.000 N 
ATOM     18  C   UNL     1       3.326   5.557  18.906  0.00  0.00    +0.000 C 
ATOM     19  N   UNL     1       3.265   4.775  19.928  0.00  0.00    +0.000 NA
ATOM     20  H   UNL     1       4.026   5.980  17.055  0.00  0.00    +0.000 HD
ATOM     21  H   UNL     1       3.748   3.902  19.719  0.00  0.00    +0.000 HD
BRANCH  17  23
ATOM     22  C   UNL     1       5.337   3.950  16.205  0.00  0.00    +0.000 C 
ATOM     23  C   UNL     1       5.168   4.373  17.665  0.00  0.00    +0.000 C 
ATOM     24  C   UNL     1       6.431   5.091  18.141  0.00  0.00    +0.000 C 
ENDBRANCH  17  23
ENDBRANCH   7  18
ENDBRANCH   1  12
BRANCH   4  25
ATOM     25  O   UNL     1      -2.551  14.303  23.511  0.00  0.00    +0.000 OA
BRANCH  25  26
ATOM     26  C   UNL     1      -3.442  13.876  24.555  0.00  0.00    +0.000 C 
BRANCH  26  27
ATOM     27  C   UNL     1      -4.692  13.295  24.017  0.00  0.00    +0.000 A 
ATOM     28  C   UNL     1      -5.485  13.718  22.971  0.00  0.00    +0.000 A 
ATOM     29  N   UNL     1      -6.508  12.827  22.967  0.00  0.00    +0.000 N 
ATOM     30  N   UNL     1      -6.407  11.944  23.972  0.00  0.00    +0.000 NA
ATOM     31  N   UNL     1      -5.278  12.209  24.618  0.00  0.00    +0.000 NA
BRANCH  29  32
ATOM     32  S   UNL     1      -7.827  12.907  21.946  0.00  0.00    +0.000 S 
BRANCH  32  33
ATOM     33  C   UNL     1      -7.475  11.511  20.894  0.00  0.00    +0.000 A 
ATOM     34  C   UNL     1      -6.753  11.658  19.706  0.00  0.00    +0.000 A 
ATOM     35  C   UNL     1      -6.516  10.558  18.882  0.00  0.00    +0.000 A 
ATOM     36  C   UNL     1      -6.985   9.298  19.248  0.00  0.00    +0.000 A 
ATOM     37  C   UNL     1      -7.676   9.136  20.448  0.00  0.00    +0.000 A 
ATOM     38  C   UNL     1      -7.916  10.239  21.270  0.00  0.00    +0.000 A 
ENDBRANCH  32  33
ENDBRANCH  29  32
ENDBRANCH  26  27
ENDBRANCH  25  26
ENDBRANCH   4  25
TORSDOF 8
ENDMDL
MODEL 5
REMARK VINA RESULT:      -8.6      1.903      2.382
REMARK  Name = 
REMARK  10 active torsions:
REMARK  status: ('A' for Active; 'I' for Inactive)
REMARK    1  A    between atoms: C_1  and  C_2
REMARK    2  A    between atoms: C_2  and  C_3
REMARK    3  A    between atoms: C_2  and  N_4
REMARK    4  A    between atoms: C_5  and  C_7
REMARK    5  A    between atoms: C_12  and  C_13
REMARK    6  A    between atoms: C_16  and  O_17
REMARK    7  A    between atoms: O_17  and  C_18
REMARK    8  A    between atoms: C_18  and  C_19
REMARK    9  A    between atoms: N_21  and  S_22
REMARK   10  A    between atoms: S_22  and  C_23
REMARK                            x       y       z     vdW  Elec       q    Type
REMARK                         _______ _______ _______ _____ _____    ______ ____
ROOT
ATOM      1  C   UNL     1       0.742   8.989  21.143  0.00  0.00    +0.000 A 
ATOM      2  C   UNL     1       0.160   8.968  22.416  0.00  0.00    +0.000 A 
ATOM      3  C   UNL     1      -0.389  10.117  22.974  0.00  0.00    +0.000 A 
ATOM      4  C   UNL     1      -0.338  11.324  22.283  0.00  0.00    +0.000 A 
ATOM      5  C   UNL     1       0.183  11.354  20.989  0.00  0.00    +0.000 A 
ATOM      6  C   UNL     1       0.725  10.194  20.424  0.00  0.00    +0.000 A 
ENDROOT
BRANCH   1  12
ATOM      7  C   UNL     1       3.513   4.400  18.536  0.00  0.00    +0.000 A 
ATOM      8  C   UNL     1       3.131   3.707  19.692  0.00  0.00    +0.000 A 
ATOM      9  C   UNL     1       2.405   4.336  20.704  0.00  0.00    +0.000 A 
ATOM     10  C   UNL     1       2.087   5.675  20.490  0.00  0.00    +0.000 A 
ATOM     11  N   UNL     1       1.406   6.583  21.247  0.00  0.00    +0.000 N 
ATOM     12  C   UNL     1       1.367   7.789  20.586  0.00  0.00    +0.000 A 
ATOM     13  N   UNL     1       1.990   7.684  19.425  0.00  0.00    +0.000 NA
ATOM     14  C   UNL     1       2.439   6.387  19.355  0.00  0.00    +0.000 A 
ATOM     15  C   UNL     1       3.163   5.746  18.347  0.00  0.00    +0.000 A 
ATOM     16  H   UNL     1       1.011   6.393  22.154  0.00  0.00    +0.000 HD
BRANCH   7  18
ATOM     17  N   UNL     1       4.951   4.431  16.542  0.00  0.00    +0.000 N 
ATOM     18  C   UNL     1       4.335   3.686  17.517  0.00  0.00    +0.000 C 
ATOM     19  N   UNL     1       4.442   2.405  17.605  0.00  0.00    +0.000 NA
ATOM     20  H   UNL     1       4.838   5.435  16.631  0.00  0.00    +0.000 HD
ATOM     21  H   UNL     1       4.999   2.054  16.827  0.00  0.00    +0.000 HD
BRANCH  17  23
ATOM     22  C   UNL     1       6.065   4.482  14.396  0.00  0.00    +0.000 C 
ATOM     23  C   UNL     1       6.194   4.081  15.866  0.00  0.00    +0.000 C 
ATOM     24  C   UNL     1       7.384   4.806  16.494  0.00  0.00    +0.000 C 
ENDBRANCH  17  23
ENDBRANCH   7  18
ENDBRANCH   1  12
BRANCH   4  25
ATOM     25  O   UNL     1      -0.761  12.518  22.805  0.00  0.00    +0.000 OA
BRANCH  25  26
ATOM     26  C   UNL     1      -1.486  13.335  21.870  0.00  0.00    +0.000 C 
BRANCH  26  27
ATOM     27  C   UNL     1      -2.950  13.187  22.022  0.00  0.00    +0.000 A 
ATOM     28  C   UNL     1      -3.977  13.879  21.414  0.00  0.00    +0.000 A 
ATOM     29  N   UNL     1      -5.093  13.343  21.967  0.00  0.00    +0.000 N 
ATOM     30  N   UNL     1      -4.799  12.425  22.900  0.00  0.00    +0.000 NA
ATOM     31  N   UNL     1      -3.478  12.304  22.931  0.00  0.00    +0.000 NA
BRANCH  29  32
ATOM     32  S   UNL     1      -6.648  13.868  21.655  0.00  0.00    +0.000 S 
BRANCH  32  33
ATOM     33  C   UNL     1      -6.790  13.378  19.946  0.00  0.00    +0.000 A 
ATOM     34  C   UNL     1      -6.944  12.036  19.584  0.00  0.00    +0.000 A 
ATOM     35  C   UNL     1      -7.021  11.671  18.240  0.00  0.00    +0.000 A 
ATOM     36  C   UNL     1      -6.960  12.647  17.248  0.00  0.00    +0.000 A 
ATOM     37  C   UNL     1      -6.841  13.990  17.600  0.00  0.00    +0.000 A 
ATOM     38  C   UNL     1      -6.760  14.355  18.946  0.00  0.00    +0.000 A 
ENDBRANCH  32  33
ENDBRANCH  29  32
ENDBRANCH  26  27
ENDBRANCH  25  26
ENDBRANCH   4  25
TORSDOF 8
ENDMDL
MODEL 6
REMARK VINA RESULT:      -8.6      0.875      1.464
REMARK  Name = 
REMARK  10 active torsions:
REMARK  status: ('A' for Active; 'I' for Inactive)
REMARK    1  A    between atoms: C_1  and  C_2
REMARK    2  A    between atoms: C_2  and  C_3
REMARK    3  A    between atoms: C_2  and  N_4
REMARK    4  A    between atoms: C_5  and  C_7
REMARK    5  A    between atoms: C_12  and  C_13
REMARK    6  A    between atoms: C_16  and  O_17
REMARK    7  A    between atoms: O_17  and  C_18
REMARK    8  A    between atoms: C_18  and  C_19
REMARK    9  A    between atoms: N_21  and  S_22
REMARK   10  A    between atoms: S_22  and  C_23
REMARK                            x       y       z     vdW  Elec       q    Type
REMARK                         _______ _______ _______ _____ _____    ______ ____
ROOT
ATOM      1  C   UNL     1       0.714   9.327  21.172  0.00  0.00    +0.000 A 
ATOM      2  C   UNL     1      -0.049   9.282  22.345  0.00  0.00    +0.000 A 
ATOM      3  C   UNL     1      -0.575  10.441  22.903  0.00  0.00    +0.000 A 
ATOM      4  C   UNL     1      -0.322  11.679  22.319  0.00  0.00    +0.000 A 
ATOM      5  C   UNL     1       0.384  11.739  21.117  0.00  0.00    +0.000 A 
ATOM      6  C   UNL     1       0.905  10.570  20.549  0.00  0.00    +0.000 A 
ENDROOT
BRANCH   1  12
ATOM      7  C   UNL     1       3.386   4.663  18.593  0.00  0.00    +0.000 A 
ATOM      8  C   UNL     1       2.968   3.980  19.742  0.00  0.00    +0.000 A 
ATOM      9  C   UNL     1       2.247   4.629  20.745  0.00  0.00    +0.000 A 
ATOM     10  C   UNL     1       1.970   5.977  20.530  0.00  0.00    +0.000 A 
ATOM     11  N   UNL     1       1.306   6.902  21.280  0.00  0.00    +0.000 N 
ATOM     12  C   UNL     1       1.312   8.111  20.620  0.00  0.00    +0.000 A 
ATOM     13  N   UNL     1       1.947   7.989  19.468  0.00  0.00    +0.000 NA
ATOM     14  C   UNL     1       2.359   6.680  19.401  0.00  0.00    +0.000 A 
ATOM     15  C   UNL     1       3.078   6.020  18.402  0.00  0.00    +0.000 A 
ATOM     16  H   UNL     1       0.892   6.722  22.180  0.00  0.00    +0.000 HD
BRANCH   7  18
ATOM     17  N   UNL     1       4.686   4.627  16.506  0.00  0.00    +0.000 N 
ATOM     18  C   UNL     1       4.201   3.928  17.584  0.00  0.00    +0.000 C 
ATOM     19  N   UNL     1       4.425   2.674  17.775  0.00  0.00    +0.000 NA
ATOM     20  H   UNL     1       4.490   5.623  16.516  0.00  0.00    +0.000 HD
ATOM     21  H   UNL     1       4.961   2.299  16.993  0.00  0.00    +0.000 HD
BRANCH  17  23
ATOM     22  C   UNL     1       5.585   4.318  14.282  0.00  0.00    +0.000 C 
ATOM     23  C   UNL     1       5.909   4.319  15.777  0.00  0.00    +0.000 C 
ATOM     24  C   UNL     1       6.997   5.353  16.065  0.00  0.00    +0.000 C 
ENDBRANCH  17  23
ENDBRANCH   7  18
ENDBRANCH   1  12
BRANCH   4  25
ATOM     25  O   UNL     1      -0.716  12.872  22.863  0.00  0.00    +0.000 OA
BRANCH  25  26
ATOM     26  C   UNL     1      -2.123  12.942  23.150  0.00  0.00    +0.000 C 
BRANCH  26  27
ATOM     27  C   UNL     1      -2.934  13.098  21.922  0.00  0.00    +0.000 A 
ATOM     28  C   UNL     1      -3.906  12.274  21.394  0.00  0.00    +0.000 A 
ATOM     29  N   UNL     1      -4.265  12.902  20.245  0.00  0.00    +0.000 N 
ATOM     30  N   UNL     1      -3.534  14.006  20.028  0.00  0.00    +0.000 NA
ATOM     31  N   UNL     1      -2.720  14.150  21.067  0.00  0.00    +0.000 NA
BRANCH  29  32
ATOM     32  S   UNL     1      -5.364  12.298  19.142  0.00  0.00    +0.000 S 
BRANCH  32  33
ATOM     33  C   UNL     1      -4.238  11.554  17.977  0.00  0.00    +0.000 A 
ATOM     34  C   UNL     1      -2.970  11.116  18.368  0.00  0.00    +0.000 A 
ATOM     35  C   UNL     1      -2.092  10.567  17.434  0.00  0.00    +0.000 A 
ATOM     36  C   UNL     1      -2.482  10.436  16.103  0.00  0.00    +0.000 A 
ATOM     37  C   UNL     1      -3.758  10.838  15.711  0.00  0.00    +0.000 A 
ATOM     38  C   UNL     1      -4.635  11.392  16.646  0.00  0.00    +0.000 A 
ENDBRANCH  32  33
ENDBRANCH  29  32
ENDBRANCH  26  27
ENDBRANCH  25  26
ENDBRANCH   4  25
TORSDOF 8
ENDMDL
MODEL 7
REMARK VINA RESULT:      -8.5      1.969      2.611
REMARK  Name = 
REMARK  10 active torsions:
REMARK  status: ('A' for Active; 'I' for Inactive)
REMARK    1  A    between atoms: C_1  and  C_2
REMARK    2  A    between atoms: C_2  and  C_3
REMARK    3  A    between atoms: C_2  and  N_4
REMARK    4  A    between atoms: C_5  and  C_7
REMARK    5  A    between atoms: C_12  and  C_13
REMARK    6  A    between atoms: C_16  and  O_17
REMARK    7  A    between atoms: O_17  and  C_18
REMARK    8  A    between atoms: C_18  and  C_19
REMARK    9  A    between atoms: N_21  and  S_22
REMARK   10  A    between atoms: S_22  and  C_23
REMARK                            x       y       z     vdW  Elec       q    Type
REMARK                         _______ _______ _______ _____ _____    ______ ____
ROOT
ATOM      1  C   UNL     1       0.580   9.934  19.792  0.00  0.00    +0.000 A 
ATOM      2  C   UNL     1      -0.394  10.351  18.877  0.00  0.00    +0.000 A 
ATOM      3  C   UNL     1      -1.149  11.496  19.105  0.00  0.00    +0.000 A 
ATOM      4  C   UNL     1      -0.971  12.232  20.273  0.00  0.00    +0.000 A 
ATOM      5  C   UNL     1       0.035  11.867  21.168  0.00  0.00    +0.000 A 
ATOM      6  C   UNL     1       0.803  10.721  20.932  0.00  0.00    +0.000 A 
ENDROOT
BRANCH   1  12
ATOM      7  C   UNL     1       3.905   5.144  18.546  0.00  0.00    +0.000 A 
ATOM      8  C   UNL     1       3.381   4.655  19.750  0.00  0.00    +0.000 A 
ATOM      9  C   UNL     1       2.484   5.409  20.506  0.00  0.00    +0.000 A 
ATOM     10  C   UNL     1       2.146   6.659  19.993  0.00  0.00    +0.000 A 
ATOM     11  N   UNL     1       1.321   7.641  20.455  0.00  0.00    +0.000 N 
ATOM     12  C   UNL     1       1.332   8.698  19.572  0.00  0.00    +0.000 A 
ATOM     13  N   UNL     1       2.128   8.422  18.554  0.00  0.00    +0.000 NA
ATOM     14  C   UNL     1       2.636   7.169  18.802  0.00  0.00    +0.000 A 
ATOM     15  C   UNL     1       3.531   6.404  18.050  0.00  0.00    +0.000 A 
ATOM     16  H   UNL     1       0.801   7.597  21.316  0.00  0.00    +0.000 HD
BRANCH   7  18
ATOM     17  N   UNL     1       4.896   4.354  16.439  0.00  0.00    +0.000 N 
ATOM     18  C   UNL     1       4.901   4.313  17.812  0.00  0.00    +0.000 C 
ATOM     19  N   UNL     1       5.730   3.605  18.497  0.00  0.00    +0.000 NA
ATOM     20  H   UNL     1       4.233   5.005  16.031  0.00  0.00    +0.000 HD
ATOM     21  H   UNL     1       6.323   3.066  17.866  0.00  0.00    +0.000 HD
BRANCH  17  23
ATOM     22  C   UNL     1       5.578   4.161  14.127  0.00  0.00    +0.000 C 
ATOM     23  C   UNL     1       6.053   4.143  15.581  0.00  0.00    +0.000 C 
ATOM     24  C   UNL     1       7.101   5.236  15.791  0.00  0.00    +0.000 C 
ENDBRANCH  17  23
ENDBRANCH   7  18
ENDBRANCH   1  12
BRANCH   4  25
ATOM     25  O   UNL     1      -1.744  13.308  20.619  0.00  0.00    +0.000 OA
BRANCH  25  26
ATOM     26  C   UNL     1      -1.997  13.410  22.030  0.00  0.00    +0.000 C 
BRANCH  26  27
ATOM     27  C   UNL     1      -3.383  13.026  22.376  0.00  0.00    +0.000 A 
ATOM     28  C   UNL     1      -4.560  13.248  21.692  0.00  0.00    +0.000 A 
ATOM     29  N   UNL     1      -5.506  12.712  22.504  0.00  0.00    +0.000 N 
ATOM     30  N   UNL     1      -4.979  12.241  23.645  0.00  0.00    +0.000 NA
ATOM     31  N   UNL     1      -3.665  12.412  23.571  0.00  0.00    +0.000 NA
BRANCH  29  32
ATOM     32  S   UNL     1      -7.149  12.771  22.208  0.00  0.00    +0.000 S 
BRANCH  32  33
ATOM     33  C   UNL     1      -7.143  12.511  20.444  0.00  0.00    +0.000 A 
ATOM     34  C   UNL     1      -6.851  11.259  19.895  0.00  0.00    +0.000 A 
ATOM     35  C   UNL     1      -6.820  11.085  18.511  0.00  0.00    +0.000 A 
ATOM     36  C   UNL     1      -7.098  12.157  17.666  0.00  0.00    +0.000 A 
ATOM     37  C   UNL     1      -7.423  13.400  18.206  0.00  0.00    +0.000 A 
ATOM     38  C   UNL     1      -7.450  13.575  19.591  0.00  0.00    +0.000 A 
ENDBRANCH  32  33
ENDBRANCH  29  32
ENDBRANCH  26  27
ENDBRANCH  25  26
ENDBRANCH   4  25
TORSDOF 8
ENDMDL
MODEL 8
REMARK VINA RESULT:      -8.4      7.640     10.174
REMARK  Name = 
REMARK  10 active torsions:
REMARK  status: ('A' for Active; 'I' for Inactive)
REMARK    1  A    between atoms: C_1  and  C_2
REMARK    2  A    between atoms: C_2  and  C_3
REMARK    3  A    between atoms: C_2  and  N_4
REMARK    4  A    between atoms: C_5  and  C_7
REMARK    5  A    between atoms: C_12  and  C_13
REMARK    6  A    between atoms: C_16  and  O_17
REMARK    7  A    between atoms: O_17  and  C_18
REMARK    8  A    between atoms: C_18  and  C_19
REMARK    9  A    between atoms: N_21  and  S_22
REMARK   10  A    between atoms: S_22  and  C_23
REMARK                            x       y       z     vdW  Elec       q    Type
REMARK                         _______ _______ _______ _____ _____    ______ ____
ROOT
ATOM      1  C   UNL     1       9.008  10.522  18.242  0.00  0.00    +0.000 A 
ATOM      2  C   UNL     1       8.478  11.645  17.598  0.00  0.00    +0.000 A 
ATOM      3  C   UNL     1       9.073  12.895  17.728  0.00  0.00    +0.000 A 
ATOM      4  C   UNL     1      10.195  13.056  18.535  0.00  0.00    +0.000 A 
ATOM      5  C   UNL     1      10.775  11.939  19.136  0.00  0.00    +0.000 A 
ATOM      6  C   UNL     1      10.181  10.679  18.996  0.00  0.00    +0.000 A 
ENDROOT
BRANCH   1  12
ATOM      7  C   UNL     1       6.092   5.385  17.429  0.00  0.00    +0.000 A 
ATOM      8  C   UNL     1       6.979   4.903  18.400  0.00  0.00    +0.000 A 
ATOM      9  C   UNL     1       7.936   5.734  18.981  0.00  0.00    +0.000 A 
ATOM     10  C   UNL     1       7.951   7.056  18.541  0.00  0.00    +0.000 A 
ATOM     11  N   UNL     1       8.732   8.121  18.879  0.00  0.00    +0.000 N 
ATOM     12  C   UNL     1       8.345   9.220  18.146  0.00  0.00    +0.000 A 
ATOM     13  N   UNL     1       7.334   8.900  17.358  0.00  0.00    +0.000 NA
ATOM     14  C   UNL     1       7.082   7.569  17.591  0.00  0.00    +0.000 A 
ATOM     15  C   UNL     1       6.125   6.728  17.018  0.00  0.00    +0.000 A 
ATOM     16  H   UNL     1       9.483   8.093  19.550  0.00  0.00    +0.000 HD
BRANCH   7  18
ATOM     17  N   UNL     1       4.197   3.831  17.617  0.00  0.00    +0.000 N 
ATOM     18  C   UNL     1       5.128   4.433  16.808  0.00  0.00    +0.000 C 
ATOM     19  N   UNL     1       5.203   4.228  15.538  0.00  0.00    +0.000 NA
ATOM     20  H   UNL     1       4.208   4.134  18.585  0.00  0.00    +0.000 HD
ATOM     21  H   UNL     1       4.510   3.533  15.262  0.00  0.00    +0.000 HD
BRANCH  17  23
ATOM     22  C   UNL     1       2.624   2.003  17.807  0.00  0.00    +0.000 C 
ATOM     23  C   UNL     1       2.874   3.385  17.201  0.00  0.00    +0.000 C 
ATOM     24  C   UNL     1       1.792   4.355  17.673  0.00  0.00    +0.000 C 
ENDBRANCH  17  23
ENDBRANCH   7  18
ENDBRANCH   1  12
BRANCH   4  25
ATOM     25  O   UNL     1      10.776  14.268  18.796  0.00  0.00    +0.000 OA
BRANCH  25  26
ATOM     26  C   UNL     1       9.843  15.360  18.847  0.00  0.00    +0.000 C 
BRANCH  26  27
ATOM     27  C   UNL     1       9.226  15.502  20.185  0.00  0.00    +0.000 A 
ATOM     28  C   UNL     1       9.797  15.408  21.437  0.00  0.00    +0.000 A 
ATOM     29  N   UNL     1       8.748  15.584  22.279  0.00  0.00    +0.000 N 
ATOM     30  N   UNL     1       7.589  15.719  21.615  0.00  0.00    +0.000 NA
ATOM     31  N   UNL     1       7.873  15.689  20.319  0.00  0.00    +0.000 NA
BRANCH  29  32
ATOM     32  S   UNL     1       8.845  15.484  23.944  0.00  0.00    +0.000 S 
BRANCH  32  33
ATOM     33  C   UNL     1       7.970  13.952  24.200  0.00  0.00    +0.000 A 
ATOM     34  C   UNL     1       8.511  12.728  23.792  0.00  0.00    +0.000 A 
ATOM     35  C   UNL     1       7.795  11.545  23.973  0.00  0.00    +0.000 A 
ATOM     36  C   UNL     1       6.542  11.572  24.579  0.00  0.00    +0.000 A 
ATOM     37  C   UNL     1       6.010  12.783  25.020  0.00  0.00    +0.000 A 
ATOM     38  C   UNL     1       6.725  13.969  24.835  0.00  0.00    +0.000 A 
ENDBRANCH  32  33
ENDBRANCH  29  32
ENDBRANCH  26  27
ENDBRANCH  25  26
ENDBRANCH   4  25
TORSDOF 8
ENDMDL
MODEL 9
REMARK VINA RESULT:      -8.3      7.531     10.379
REMARK  Name = 
REMARK  10 active torsions:
REMARK  status: ('A' for Active; 'I' for Inactive)
REMARK    1  A    between atoms: C_1  and  C_2
REMARK    2  A    between atoms: C_2  and  C_3
REMARK    3  A    between atoms: C_2  and  N_4
REMARK    4  A    between atoms: C_5  and  C_7
REMARK    5  A    between atoms: C_12  and  C_13
REMARK    6  A    between atoms: C_16  and  O_17
REMARK    7  A    between atoms: O_17  and  C_18
REMARK    8  A    between atoms: C_18  and  C_19
REMARK    9  A    between atoms: N_21  and  S_22
REMARK   10  A    between atoms: S_22  and  C_23
REMARK                            x       y       z     vdW  Elec       q    Type
REMARK                         _______ _______ _______ _____ _____    ______ ____
ROOT
ATOM      1  C   UNL     1       8.941  10.560  18.110  0.00  0.00    +0.000 A 
ATOM      2  C   UNL     1      10.222  10.765  18.636  0.00  0.00    +0.000 A 
ATOM      3  C   UNL     1      10.826  12.016  18.588  0.00  0.00    +0.000 A 
ATOM      4  C   UNL     1      10.174  13.086  17.982  0.00  0.00    +0.000 A 
ATOM      5  C   UNL     1       8.873  12.918  17.507  0.00  0.00    +0.000 A 
ATOM      6  C   UNL     1       8.261  11.660  17.565  0.00  0.00    +0.000 A 
ENDROOT
BRANCH   1  12
ATOM      7  C   UNL     1       6.247   5.258  17.691  0.00  0.00    +0.000 A 
ATOM      8  C   UNL     1       7.156   4.886  18.690  0.00  0.00    +0.000 A 
ATOM      9  C   UNL     1       8.079   5.798  19.202  0.00  0.00    +0.000 A 
ATOM     10  C   UNL     1       8.035   7.083  18.667  0.00  0.00    +0.000 A 
ATOM     11  N   UNL     1       8.771   8.203  18.922  0.00  0.00    +0.000 N 
ATOM     12  C   UNL     1       8.334   9.228  18.113  0.00  0.00    +0.000 A 
ATOM     13  N   UNL     1       7.336   8.808  17.357  0.00  0.00    +0.000 NA
ATOM     14  C   UNL     1       7.142   7.488  17.687  0.00  0.00    +0.000 A 
ATOM     15  C   UNL     1       6.221   6.567  17.183  0.00  0.00    +0.000 A 
ATOM     16  H   UNL     1       9.523   8.256  19.589  0.00  0.00    +0.000 HD
BRANCH   7  18
ATOM     17  N   UNL     1       4.167   3.956  17.836  0.00  0.00    +0.000 N 
ATOM     18  C   UNL     1       5.323   4.222  17.146  0.00  0.00    +0.000 C 
ATOM     19  N   UNL     1       5.644   3.634  16.046  0.00  0.00    +0.000 NA
ATOM     20  H   UNL     1       4.007   4.540  18.651  0.00  0.00    +0.000 HD
ATOM     21  H   UNL     1       4.942   2.932  15.816  0.00  0.00    +0.000 HD
BRANCH  17  23
ATOM     22  C   UNL     1       2.669   2.059  17.741  0.00  0.00    +0.000 C 
ATOM     23  C   UNL     1       2.919   3.486  17.250  0.00  0.00    +0.000 C 
ATOM     24  C   UNL     1       1.748   4.380  17.657  0.00  0.00    +0.000 C 
ENDBRANCH  17  23
ENDBRANCH   7  18
ENDBRANCH   1  12
BRANCH   4  25
ATOM     25  O   UNL     1      10.741  14.320  17.804  0.00  0.00    +0.000 OA
BRANCH  25  26
ATOM     26  C   UNL     1       9.938  15.404  18.299  0.00  0.00    +0.000 C 
BRANCH  26  27
ATOM     27  C   UNL     1       9.987  15.503  19.775  0.00  0.00    +0.000 A 
ATOM     28  C   UNL     1       8.961  15.492  20.696  0.00  0.00    +0.000 A 
ATOM     29  N   UNL     1       9.597  15.655  21.883  0.00  0.00    +0.000 N 
ATOM     30  N   UNL     1      10.920  15.819  21.724  0.00  0.00    +0.000 NA
ATOM     31  N   UNL     1      11.177  15.708  20.427  0.00  0.00    +0.000 NA
BRANCH  29  32
ATOM     32  S   UNL     1       8.825  15.802  23.357  0.00  0.00    +0.000 S 
BRANCH  32  33
ATOM     33  C   UNL     1       7.939  14.255  23.384  0.00  0.00    +0.000 A 
ATOM     34  C   UNL     1       6.547  14.212  23.257  0.00  0.00    +0.000 A 
ATOM     35  C   UNL     1       5.870  12.993  23.313  0.00  0.00    +0.000 A 
ATOM     36  C   UNL     1       6.581  11.807  23.480  0.00  0.00    +0.000 A 
ATOM     37  C   UNL     1       7.971  11.838  23.573  0.00  0.00    +0.000 A 
ATOM     38  C   UNL     1       8.648  13.058  23.521  0.00  0.00    +0.000 A 
ENDBRANCH  32  33
ENDBRANCH  29  32
ENDBRANCH  26  27
ENDBRANCH  25  26
ENDBRANCH   4  25
TORSDOF 8
ENDMDL
