MODEL 1
REMARK VINA RESULT:      -8.6      0.000      0.000
REMARK  Name = 
REMARK  7 active torsions:
REMARK  status: ('A' for Active; 'I' for Inactive)
REMARK    1  A    between atoms: C_4  and  C_5
REMARK    2  A    between atoms: C_10  and  C_11
REMARK    3  A    between atoms: C_15  and  C_16
REMARK    4  A    between atoms: C_16  and  O_17
REMARK    5  A    between atoms: O_17  and  C_18
REMARK    6  A    between atoms: C_18  and  C_19
REMARK    7  A    between atoms: N_24  and  C_25
REMARK                            x       y       z     vdW  Elec       q    Type
REMARK                         _______ _______ _______ _____ _____    ______ ____
ROOT
ATOM      1  C   UNL     1       0.978  10.003  18.517  0.00  0.00    +0.000 C 
ATOM      2  O   UNL     1       1.421   9.897  17.377  0.00  0.00    +0.000 OA
ATOM      3  N   UNL     1       1.230   9.117  19.549  0.00  0.00    +0.000 N 
ATOM      4  C   UNL     1       2.027   8.009  19.352  0.00  0.00    +0.000 A 
ATOM      5  C   UNL     1       3.169   7.902  18.544  0.00  0.00    +0.000 A 
ATOM      6  C   UNL     1       3.553   6.573  18.580  0.00  0.00    +0.000 A 
ATOM      7  N   UNL     1       2.537   5.945  19.310  0.00  0.00    +0.000 N 
ATOM      8  N   UNL     1       1.776   6.865  19.983  0.00  0.00    +0.000 NA
ATOM      9  H   UNL     1       0.564   9.014  20.301  0.00  0.00    +0.000 HD
ENDROOT
BRANCH   1  13
ATOM     10  O   UNL     1      -0.249  14.653  18.367  0.00  0.00    +0.000 OA
ATOM     11  C   UNL     1      -0.322  13.437  18.401  0.00  0.00    +0.000 C 
ATOM     12  C   UNL     1       0.753  12.493  18.865  0.00  0.00    +0.000 C 
ATOM     13  C   UNL     1       0.047  11.134  18.904  0.00  0.00    +0.000 C 
ATOM     14  C   UNL     1      -1.093  11.300  17.905  0.00  0.00    +0.000 C 
ATOM     15  N   UNL     1      -1.403  12.700  17.972  0.00  0.00    +0.000 N 
ATOM     16  H   UNL     1      -2.161  13.151  17.477  0.00  0.00    +0.000 HD
ENDBRANCH   1  13
BRANCH   7  17
ATOM     17  C   UNL     1       2.185   4.562  19.388  0.00  0.00    +0.000 A 
ATOM     18  C   UNL     1       2.094   3.763  18.237  0.00  0.00    +0.000 A 
ATOM     19  C   UNL     1       1.833   2.396  18.341  0.00  0.00    +0.000 A 
ATOM     20  C   UNL     1       1.602   1.826  19.589  0.00  0.00    +0.000 A 
ATOM     21  C   UNL     1       1.613   2.630  20.728  0.00  0.00    +0.000 A 
ATOM     22 CL   UNL     1       1.285   1.926  22.264  0.00  0.00    +0.000 Cl
ATOM     23  C   UNL     1       1.895   3.994  20.637  0.00  0.00    +0.000 A 
ENDBRANCH   7  17
BRANCH   6  24
ATOM     24  C   UNL     1       4.723   5.956  17.936  0.00  0.00    +0.000 A 
ATOM     25  C   UNL     1       5.804   5.443  18.664  0.00  0.00    +0.000 A 
ATOM     26  C   UNL     1       6.842   4.763  18.021  0.00  0.00    +0.000 A 
ATOM     27  C   UNL     1       6.862   4.665  16.631  0.00  0.00    +0.000 A 
ATOM     28  C   UNL     1       5.847   5.256  15.873  0.00  0.00    +0.000 A 
ATOM     29  C   UNL     1       4.777   5.879  16.537  0.00  0.00    +0.000 A 
BRANCH  28  30
ATOM     30  C   UNL     1       5.891   5.262  14.369  0.00  0.00    +0.000 C 
BRANCH  30  31
ATOM     31  O   UNL     1       5.284   4.052  13.923  0.00  0.00    +0.000 OA
BRANCH  31  32
ATOM     32  C   UNL     1       5.842   3.578  12.694  0.00  0.00    +0.000 C 
BRANCH  32  33
ATOM     33  C   UNL     1       4.774   3.141  11.688  0.00  0.00    +0.000 C 
ATOM     34  F   UNL     1       3.545   3.020  12.233  0.00  0.00    +0.000 F 
ATOM     35  F   UNL     1       4.682   4.032  10.670  0.00  0.00    +0.000 F 
ATOM     36  F   UNL     1       5.095   1.944  11.141  0.00  0.00    +0.000 F 
ENDBRANCH  32  33
ENDBRANCH  31  32
ENDBRANCH  30  31
ENDBRANCH  28  30
ENDBRANCH   6  24
TORSDOF 7
ENDMDL
MODEL 2
REMARK VINA RESULT:      -8.6      1.084      1.309
REMARK  Name = 
REMARK  7 active torsions:
REMARK  status: ('A' for Active; 'I' for Inactive)
REMARK    1  A    between atoms: C_4  and  C_5
REMARK    2  A    between atoms: C_10  and  C_11
REMARK    3  A    between atoms: C_15  and  C_16
REMARK    4  A    between atoms: C_16  and  O_17
REMARK    5  A    between atoms: O_17  and  C_18
REMARK    6  A    between atoms: C_18  and  C_19
REMARK    7  A    between atoms: N_24  and  C_25
REMARK                            x       y       z     vdW  Elec       q    Type
REMARK                         _______ _______ _______ _____ _____    ______ ____
ROOT
ATOM      1  C   UNL     1       1.012  10.109  18.301  0.00  0.00    +0.000 C 
ATOM      2  O   UNL     1       1.502   9.960  17.185  0.00  0.00    +0.000 OA
ATOM      3  N   UNL     1       1.206   9.254  19.370  0.00  0.00    +0.000 N 
ATOM      4  C   UNL     1       1.994   8.129  19.245  0.00  0.00    +0.000 A 
ATOM      5  C   UNL     1       3.166   7.979  18.490  0.00  0.00    +0.000 A 
ATOM      6  C   UNL     1       3.528   6.646  18.585  0.00  0.00    +0.000 A 
ATOM      7  N   UNL     1       2.472   6.058  19.291  0.00  0.00    +0.000 N 
ATOM      8  N   UNL     1       1.697   7.010  19.901  0.00  0.00    +0.000 NA
ATOM      9  H   UNL     1       0.508   9.186  20.097  0.00  0.00    +0.000 HD
ENDROOT
BRANCH   1  13
ATOM     10  O   UNL     1      -3.424  11.888  18.853  0.00  0.00    +0.000 OA
ATOM     11  C   UNL     1      -2.232  11.686  19.000  0.00  0.00    +0.000 C 
ATOM     12  C   UNL     1      -1.302  11.068  17.991  0.00  0.00    +0.000 C 
ATOM     13  C   UNL     1       0.084  11.267  18.611  0.00  0.00    +0.000 C 
ATOM     14  C   UNL     1      -0.208  11.377  20.103  0.00  0.00    +0.000 C 
ATOM     15  N   UNL     1      -1.523  11.952  20.150  0.00  0.00    +0.000 N 
ATOM     16  H   UNL     1      -2.009  12.221  20.994  0.00  0.00    +0.000 HD
ENDBRANCH   1  13
BRANCH   7  17
ATOM     17  C   UNL     1       2.094   4.684  19.399  0.00  0.00    +0.000 A 
ATOM     18  C   UNL     1       2.021   3.853  18.270  0.00  0.00    +0.000 A 
ATOM     19  C   UNL     1       1.734   2.494  18.405  0.00  0.00    +0.000 A 
ATOM     20  C   UNL     1       1.461   1.964  19.663  0.00  0.00    +0.000 A 
ATOM     21  C   UNL     1       1.455   2.800  20.778  0.00  0.00    +0.000 A 
ATOM     22 CL   UNL     1       1.076   2.146  22.324  0.00  0.00    +0.000 Cl
ATOM     23  C   UNL     1       1.763   4.157  20.655  0.00  0.00    +0.000 A 
ENDBRANCH   7  17
BRANCH   6  24
ATOM     24  C   UNL     1       4.714   5.991  18.012  0.00  0.00    +0.000 A 
ATOM     25  C   UNL     1       5.663   5.325  18.797  0.00  0.00    +0.000 A 
ATOM     26  C   UNL     1       6.714   4.620  18.205  0.00  0.00    +0.000 A 
ATOM     27  C   UNL     1       6.884   4.643  16.822  0.00  0.00    +0.000 A 
ATOM     28  C   UNL     1       6.009   5.384  16.022  0.00  0.00    +0.000 A 
ATOM     29  C   UNL     1       4.921   6.034  16.626  0.00  0.00    +0.000 A 
BRANCH  28  30
ATOM     30  C   UNL     1       6.225   5.519  14.539  0.00  0.00    +0.000 C 
BRANCH  30  31
ATOM     31  O   UNL     1       6.724   4.269  14.068  0.00  0.00    +0.000 OA
BRANCH  31  32
ATOM     32  C   UNL     1       5.691   3.427  13.547  0.00  0.00    +0.000 C 
BRANCH  32  33
ATOM     33  C   UNL     1       5.824   3.190  12.040  0.00  0.00    +0.000 C 
ATOM     34  F   UNL     1       4.801   3.707  11.327  0.00  0.00    +0.000 F 
ATOM     35  F   UNL     1       6.969   3.743  11.568  0.00  0.00    +0.000 F 
ATOM     36  F   UNL     1       5.880   1.865  11.768  0.00  0.00    +0.000 F 
ENDBRANCH  32  33
ENDBRANCH  31  32
ENDBRANCH  30  31
ENDBRANCH  28  30
ENDBRANCH   6  24
TORSDOF 7
ENDMDL
MODEL 3
REMARK VINA RESULT:      -8.5      1.465      1.860
REMARK  Name = 
REMARK  7 active torsions:
REMARK  status: ('A' for Active; 'I' for Inactive)
REMARK    1  A    between atoms: C_4  and  C_5
REMARK    2  A    between atoms: C_10  and  C_11
REMARK    3  A    between atoms: C_15  and  C_16
REMARK    4  A    between atoms: C_16  and  O_17
REMARK    5  A    between atoms: O_17  and  C_18
REMARK    6  A    between atoms: C_18  and  C_19
REMARK    7  A    between atoms: N_24  and  C_25
REMARK                            x       y       z     vdW  Elec       q    Type
REMARK                         _______ _______ _______ _____ _____    ______ ____
ROOT
ATOM      1  C   UNL     1       1.154   9.890  18.332  0.00  0.00    +0.000 C 
ATOM      2  O   UNL     1       1.696   9.776  17.236  0.00  0.00    +0.000 OA
ATOM      3  N   UNL     1       1.330   9.023  19.395  0.00  0.00    +0.000 N 
ATOM      4  C   UNL     1       2.160   7.927  19.287  0.00  0.00    +0.000 A 
ATOM      5  C   UNL     1       3.369   7.830  18.583  0.00  0.00    +0.000 A 
ATOM      6  C   UNL     1       3.772   6.509  18.673  0.00  0.00    +0.000 A 
ATOM      7  N   UNL     1       2.706   5.873  19.322  0.00  0.00    +0.000 N 
ATOM      8  N   UNL     1       1.874   6.788  19.912  0.00  0.00    +0.000 NA
ATOM      9  H   UNL     1       0.603   8.919  20.089  0.00  0.00    +0.000 HD
ENDROOT
BRANCH   1  13
ATOM     10  O   UNL     1      -3.361  11.501  18.744  0.00  0.00    +0.000 OA
ATOM     11  C   UNL     1      -2.168  11.341  18.930  0.00  0.00    +0.000 C 
ATOM     12  C   UNL     1      -1.182  10.767  17.950  0.00  0.00    +0.000 C 
ATOM     13  C   UNL     1       0.174  11.010  18.618  0.00  0.00    +0.000 C 
ATOM     14  C   UNL     1      -0.173  11.096  20.100  0.00  0.00    +0.000 C 
ATOM     15  N   UNL     1      -1.509  11.622  20.107  0.00  0.00    +0.000 N 
ATOM     16  H   UNL     1      -2.034  11.866  20.936  0.00  0.00    +0.000 HD
ENDBRANCH   1  13
BRANCH   7  17
ATOM     17  C   UNL     1       2.372   4.485  19.391  0.00  0.00    +0.000 A 
ATOM     18  C   UNL     1       1.221   4.041  20.061  0.00  0.00    +0.000 A 
ATOM     19  C   UNL     1       0.865   2.692  20.045  0.00  0.00    +0.000 A 
ATOM     20  C   UNL     1       1.687   1.765  19.409  0.00  0.00    +0.000 A 
ATOM     21  C   UNL     1       2.871   2.189  18.809  0.00  0.00    +0.000 A 
ATOM     22 CL   UNL     1       3.901   1.033  18.060  0.00  0.00    +0.000 Cl
ATOM     23  C   UNL     1       3.224   3.541  18.800  0.00  0.00    +0.000 A 
ENDBRANCH   7  17
BRANCH   6  24
ATOM     24  C   UNL     1       5.003   5.904  18.143  0.00  0.00    +0.000 A 
ATOM     25  C   UNL     1       6.019   5.407  18.969  0.00  0.00    +0.000 A 
ATOM     26  C   UNL     1       7.120   4.739  18.429  0.00  0.00    +0.000 A 
ATOM     27  C   UNL     1       7.268   4.634  17.046  0.00  0.00    +0.000 A 
ATOM     28  C   UNL     1       6.320   5.209  16.195  0.00  0.00    +0.000 A 
ATOM     29  C   UNL     1       5.186   5.821  16.754  0.00  0.00    +0.000 A 
BRANCH  28  30
ATOM     30  C   UNL     1       6.503   5.209  14.702  0.00  0.00    +0.000 C 
BRANCH  30  31
ATOM     31  O   UNL     1       5.351   4.589  14.135  0.00  0.00    +0.000 OA
BRANCH  31  32
ATOM     32  C   UNL     1       5.627   3.282  13.622  0.00  0.00    +0.000 C 
BRANCH  32  33
ATOM     33  C   UNL     1       5.729   3.255  12.094  0.00  0.00    +0.000 C 
ATOM     34  F   UNL     1       6.732   4.020  11.613  0.00  0.00    +0.000 F 
ATOM     35  F   UNL     1       5.934   1.990  11.651  0.00  0.00    +0.000 F 
ATOM     36  F   UNL     1       4.579   3.693  11.530  0.00  0.00    +0.000 F 
ENDBRANCH  32  33
ENDBRANCH  31  32
ENDBRANCH  30  31
ENDBRANCH  28  30
ENDBRANCH   6  24
TORSDOF 7
ENDMDL
MODEL 4
REMARK VINA RESULT:      -8.4      1.404      1.729
REMARK  Name = 
REMARK  7 active torsions:
REMARK  status: ('A' for Active; 'I' for Inactive)
REMARK    1  A    between atoms: C_4  and  C_5
REMARK    2  A    between atoms: C_10  and  C_11
REMARK    3  A    between atoms: C_15  and  C_16
REMARK    4  A    between atoms: C_16  and  O_17
REMARK    5  A    between atoms: O_17  and  C_18
REMARK    6  A    between atoms: C_18  and  C_19
REMARK    7  A    between atoms: N_24  and  C_25
REMARK                            x       y       z     vdW  Elec       q    Type
REMARK                         _______ _______ _______ _____ _____    ______ ____
ROOT
ATOM      1  C   UNL     1       0.451  10.038  18.659  0.00  0.00    +0.000 C 
ATOM      2  O   UNL     1       0.780   9.762  17.508  0.00  0.00    +0.000 OA
ATOM      3  N   UNL     1       0.865   9.351  19.786  0.00  0.00    +0.000 N 
ATOM      4  C   UNL     1       1.708   8.264  19.684  0.00  0.00    +0.000 A 
ATOM      5  C   UNL     1       2.764   8.076  18.780  0.00  0.00    +0.000 A 
ATOM      6  C   UNL     1       3.235   6.791  18.988  0.00  0.00    +0.000 A 
ATOM      7  N   UNL     1       2.342   6.249  19.920  0.00  0.00    +0.000 N 
ATOM      8  N   UNL     1       1.597   7.232  20.516  0.00  0.00    +0.000 NA
ATOM      9  H   UNL     1       0.289   9.346  20.615  0.00  0.00    +0.000 HD
ENDROOT
BRANCH   1  13
ATOM     10  O   UNL     1      -1.278  13.373  21.665  0.00  0.00    +0.000 OA
ATOM     11  C   UNL     1      -0.914  12.808  20.649  0.00  0.00    +0.000 C 
ATOM     12  C   UNL     1      -0.761  11.324  20.461  0.00  0.00    +0.000 C 
ATOM     13  C   UNL     1      -0.505  11.174  18.959  0.00  0.00    +0.000 C 
ATOM     14  C   UNL     1       0.077  12.527  18.564  0.00  0.00    +0.000 C 
ATOM     15  N   UNL     1      -0.532  13.442  19.488  0.00  0.00    +0.000 N 
ATOM     16  H   UNL     1      -0.415  14.446  19.473  0.00  0.00    +0.000 HD
ENDBRANCH   1  13
BRANCH   7  17
ATOM     17  C   UNL     1       2.090   4.884  20.261  0.00  0.00    +0.000 A 
ATOM     18  C   UNL     1       2.465   4.358  21.507  0.00  0.00    +0.000 A 
ATOM     19  C   UNL     1       2.134   3.048  21.855  0.00  0.00    +0.000 A 
ATOM     20  C   UNL     1       1.476   2.232  20.939  0.00  0.00    +0.000 A 
ATOM     21  C   UNL     1       1.170   2.724  19.671  0.00  0.00    +0.000 A 
ATOM     22 CL   UNL     1       0.393   1.698  18.529  0.00  0.00    +0.000 Cl
ATOM     23  C   UNL     1       1.477   4.041  19.322  0.00  0.00    +0.000 A 
ENDBRANCH   7  17
BRANCH   6  24
ATOM     24  C   UNL     1       4.369   6.129  18.325  0.00  0.00    +0.000 A 
ATOM     25  C   UNL     1       5.392   5.489  19.036  0.00  0.00    +0.000 A 
ATOM     26  C   UNL     1       6.391   4.775  18.368  0.00  0.00    +0.000 A 
ATOM     27  C   UNL     1       6.433   4.765  16.974  0.00  0.00    +0.000 A 
ATOM     28  C   UNL     1       5.483   5.480  16.240  0.00  0.00    +0.000 A 
ATOM     29  C   UNL     1       4.448   6.138  16.925  0.00  0.00    +0.000 A 
BRANCH  28  30
ATOM     30  C   UNL     1       5.561   5.579  14.741  0.00  0.00    +0.000 C 
BRANCH  30  31
ATOM     31  O   UNL     1       5.192   4.307  14.212  0.00  0.00    +0.000 OA
BRANCH  31  32
ATOM     32  C   UNL     1       6.315   3.569  13.723  0.00  0.00    +0.000 C 
BRANCH  32  33
ATOM     33  C   UNL     1       6.366   3.514  12.193  0.00  0.00    +0.000 C 
ATOM     34  F   UNL     1       5.149   3.595  11.616  0.00  0.00    +0.000 F 
ATOM     35  F   UNL     1       7.118   4.531  11.703  0.00  0.00    +0.000 F 
ATOM     36  F   UNL     1       6.938   2.360  11.776  0.00  0.00    +0.000 F 
ENDBRANCH  32  33
ENDBRANCH  31  32
ENDBRANCH  30  31
ENDBRANCH  28  30
ENDBRANCH   6  24
TORSDOF 7
ENDMDL
MODEL 5
REMARK VINA RESULT:      -8.4      3.667      5.411
REMARK  Name = 
REMARK  7 active torsions:
REMARK  status: ('A' for Active; 'I' for Inactive)
REMARK    1  A    between atoms: C_4  and  C_5
REMARK    2  A    between atoms: C_10  and  C_11
REMARK    3  A    between atoms: C_15  and  C_16
REMARK    4  A    between atoms: C_16  and  O_17
REMARK    5  A    between atoms: O_17  and  C_18
REMARK    6  A    between atoms: C_18  and  C_19
REMARK    7  A    between atoms: N_24  and  C_25
REMARK                            x       y       z     vdW  Elec       q    Type
REMARK                         _______ _______ _______ _____ _____    ______ ____
ROOT
ATOM      1  C   UNL     1       1.537  11.125  18.859  0.00  0.00    +0.000 C 
ATOM      2  O   UNL     1       1.339  10.628  19.964  0.00  0.00    +0.000 OA
ATOM      3  N   UNL     1       1.981  10.431  17.748  0.00  0.00    +0.000 N 
ATOM      4  C   UNL     1       2.244   9.079  17.815  0.00  0.00    +0.000 A 
ATOM      5  C   UNL     1       1.559   8.105  18.556  0.00  0.00    +0.000 A 
ATOM      6  C   UNL     1       2.261   6.923  18.394  0.00  0.00    +0.000 A 
ATOM      7  N   UNL     1       3.396   7.298  17.665  0.00  0.00    +0.000 N 
ATOM      8  N   UNL     1       3.232   8.539  17.106  0.00  0.00    +0.000 NA
ATOM      9  H   UNL     1       2.492  10.912  17.022  0.00  0.00    +0.000 HD
ENDROOT
BRANCH   1  13
ATOM     10  O   UNL     1       1.464  15.664  20.452  0.00  0.00    +0.000 OA
ATOM     11  C   UNL     1       1.623  14.691  19.736  0.00  0.00    +0.000 C 
ATOM     12  C   UNL     1       0.952  13.354  19.888  0.00  0.00    +0.000 C 
ATOM     13  C   UNL     1       1.342  12.607  18.610  0.00  0.00    +0.000 C 
ATOM     14  C   UNL     1       2.639  13.287  18.186  0.00  0.00    +0.000 C 
ATOM     15  N   UNL     1       2.493  14.631  18.670  0.00  0.00    +0.000 N 
ATOM     16  H   UNL     1       3.151  15.381  18.509  0.00  0.00    +0.000 HD
ENDBRANCH   1  13
BRANCH   7  17
ATOM     17  C   UNL     1       4.640   6.618  17.492  0.00  0.00    +0.000 A 
ATOM     18  C   UNL     1       5.490   6.355  18.579  0.00  0.00    +0.000 A 
ATOM     19  C   UNL     1       6.660   5.615  18.404  0.00  0.00    +0.000 A 
ATOM     20  C   UNL     1       7.023   5.181  17.132  0.00  0.00    +0.000 A 
ATOM     21  C   UNL     1       6.223   5.506  16.037  0.00  0.00    +0.000 A 
ATOM     22 CL   UNL     1       6.699   5.001  14.462  0.00  0.00    +0.000 Cl
ATOM     23  C   UNL     1       5.039   6.227  16.206  0.00  0.00    +0.000 A 
ENDBRANCH   7  17
BRANCH   6  24
ATOM     24  C   UNL     1       1.924   5.594  18.929  0.00  0.00    +0.000 A 
ATOM     25  C   UNL     1       1.380   5.409  20.206  0.00  0.00    +0.000 A 
ATOM     26  C   UNL     1       0.968   4.144  20.633  0.00  0.00    +0.000 A 
ATOM     27  C   UNL     1       1.177   3.028  19.824  0.00  0.00    +0.000 A 
ATOM     28  C   UNL     1       1.809   3.170  18.586  0.00  0.00    +0.000 A 
ATOM     29  C   UNL     1       2.158   4.457  18.143  0.00  0.00    +0.000 A 
BRANCH  28  30
ATOM     30  C   UNL     1       2.146   1.976  17.734  0.00  0.00    +0.000 C 
BRANCH  30  31
ATOM     31  O   UNL     1       3.554   1.773  17.827  0.00  0.00    +0.000 OA
BRANCH  31  32
ATOM     32  C   UNL     1       3.923   0.998  18.972  0.00  0.00    +0.000 C 
BRANCH  32  33
ATOM     33  C   UNL     1       4.569   1.842  20.075  0.00  0.00    +0.000 C 
ATOM     34  F   UNL     1       3.711   2.177  21.061  0.00  0.00    +0.000 F 
ATOM     35  F   UNL     1       5.603   1.174  20.644  0.00  0.00    +0.000 F 
ATOM     36  F   UNL     1       5.071   2.991  19.564  0.00  0.00    +0.000 F 
ENDBRANCH  32  33
ENDBRANCH  31  32
ENDBRANCH  30  31
ENDBRANCH  28  30
ENDBRANCH   6  24
TORSDOF 7
ENDMDL
MODEL 6
REMARK VINA RESULT:      -8.3      4.104      5.974
REMARK  Name = 
REMARK  7 active torsions:
REMARK  status: ('A' for Active; 'I' for Inactive)
REMARK    1  A    between atoms: C_4  and  C_5
REMARK    2  A    between atoms: C_10  and  C_11
REMARK    3  A    between atoms: C_15  and  C_16
REMARK    4  A    between atoms: C_16  and  O_17
REMARK    5  A    between atoms: O_17  and  C_18
REMARK    6  A    between atoms: C_18  and  C_19
REMARK    7  A    between atoms: N_24  and  C_25
REMARK                            x       y       z     vdW  Elec       q    Type
REMARK                         _______ _______ _______ _____ _____    ______ ____
ROOT
ATOM      1  C   UNL     1       1.236   9.547  19.888  0.00  0.00    +0.000 C 
ATOM      2  O   UNL     1       1.325   8.722  20.793  0.00  0.00    +0.000 OA
ATOM      3  N   UNL     1       1.648   9.337  18.584  0.00  0.00    +0.000 N 
ATOM      4  C   UNL     1       2.210   8.137  18.202  0.00  0.00    +0.000 A 
ATOM      5  C   UNL     1       1.878   6.850  18.651  0.00  0.00    +0.000 A 
ATOM      6  C   UNL     1       2.790   5.985  18.072  0.00  0.00    +0.000 A 
ATOM      7  N   UNL     1       3.689   6.831  17.411  0.00  0.00    +0.000 N 
ATOM      8  N   UNL     1       3.172   8.094  17.285  0.00  0.00    +0.000 NA
ATOM      9  H   UNL     1       1.923  10.120  18.009  0.00  0.00    +0.000 HD
ENDROOT
BRANCH   1  13
ATOM     10  O   UNL     1      -0.465  13.730  18.229  0.00  0.00    +0.000 OA
ATOM     11  C   UNL     1      -0.296  12.743  18.923  0.00  0.00    +0.000 C 
ATOM     12  C   UNL     1       0.925  11.866  18.940  0.00  0.00    +0.000 C 
ATOM     13  C   UNL     1       0.684  10.936  20.133  0.00  0.00    +0.000 C 
ATOM     14  C   UNL     1      -0.834  10.928  20.274  0.00  0.00    +0.000 C 
ATOM     15  N   UNL     1      -1.227  12.224  19.795  0.00  0.00    +0.000 N 
ATOM     16  H   UNL     1      -2.171  12.584  19.803  0.00  0.00    +0.000 HD
ENDBRANCH   1  13
BRANCH   7  17
ATOM     17  C   UNL     1       5.012   6.572  16.937  0.00  0.00    +0.000 A 
ATOM     18  C   UNL     1       6.136   7.152  17.546  0.00  0.00    +0.000 A 
ATOM     19  C   UNL     1       7.424   6.820  17.123  0.00  0.00    +0.000 A 
ATOM     20  C   UNL     1       7.600   5.951  16.050  0.00  0.00    +0.000 A 
ATOM     21  C   UNL     1       6.486   5.434  15.391  0.00  0.00    +0.000 A 
ATOM     22 CL   UNL     1       6.710   4.393  14.039  0.00  0.00    +0.000 Cl
ATOM     23  C   UNL     1       5.194   5.742  15.821  0.00  0.00    +0.000 A 
ENDBRANCH   7  17
BRANCH   6  24
ATOM     24  C   UNL     1       2.840   4.519  18.187  0.00  0.00    +0.000 A 
ATOM     25  C   UNL     1       2.092   3.670  17.362  0.00  0.00    +0.000 A 
ATOM     26  C   UNL     1       2.254   2.283  17.428  0.00  0.00    +0.000 A 
ATOM     27  C   UNL     1       3.100   1.719  18.382  0.00  0.00    +0.000 A 
ATOM     28  C   UNL     1       3.781   2.540  19.285  0.00  0.00    +0.000 A 
ATOM     29  C   UNL     1       3.659   3.933  19.163  0.00  0.00    +0.000 A 
BRANCH  28  30
ATOM     30  C   UNL     1       4.618   1.962  20.393  0.00  0.00    +0.000 C 
BRANCH  30  31
ATOM     31  O   UNL     1       3.914   2.181  21.614  0.00  0.00    +0.000 OA
BRANCH  31  32
ATOM     32  C   UNL     1       2.576   1.676  21.574  0.00  0.00    +0.000 C 
BRANCH  32  33
ATOM     33  C   UNL     1       1.523   2.778  21.716  0.00  0.00    +0.000 C 
ATOM     34  F   UNL     1       2.052   3.990  21.986  0.00  0.00    +0.000 F 
ATOM     35  F   UNL     1       0.797   2.896  20.576  0.00  0.00    +0.000 F 
ATOM     36  F   UNL     1       0.654   2.484  22.712  0.00  0.00    +0.000 F 
ENDBRANCH  32  33
ENDBRANCH  31  32
ENDBRANCH  30  31
ENDBRANCH  28  30
ENDBRANCH   6  24
TORSDOF 7
ENDMDL
MODEL 7
REMARK VINA RESULT:      -8.3      1.570      1.846
REMARK  Name = 
REMARK  7 active torsions:
REMARK  status: ('A' for Active; 'I' for Inactive)
REMARK    1  A    between atoms: C_4  and  C_5
REMARK    2  A    between atoms: C_10  and  C_11
REMARK    3  A    between atoms: C_15  and  C_16
REMARK    4  A    between atoms: C_16  and  O_17
REMARK    5  A    between atoms: O_17  and  C_18
REMARK    6  A    between atoms: C_18  and  C_19
REMARK    7  A    between atoms: N_24  and  C_25
REMARK                            x       y       z     vdW  Elec       q    Type
REMARK                         _______ _______ _______ _____ _____    ______ ____
ROOT
ATOM      1  C   UNL     1       0.838   9.650  18.497  0.00  0.00    +0.000 C 
ATOM      2  O   UNL     1       1.186   9.668  17.320  0.00  0.00    +0.000 OA
ATOM      3  N   UNL     1       1.313   8.765  19.448  0.00  0.00    +0.000 N 
ATOM      4  C   UNL     1       2.247   7.805  19.119  0.00  0.00    +0.000 A 
ATOM      5  C   UNL     1       3.312   7.914  18.214  0.00  0.00    +0.000 A 
ATOM      6  C   UNL     1       3.893   6.661  18.137  0.00  0.00    +0.000 A 
ATOM      7  N   UNL     1       3.054   5.849  18.909  0.00  0.00    +0.000 N 
ATOM      8  N   UNL     1       2.228   6.607  19.698  0.00  0.00    +0.000 NA
ATOM      9  H   UNL     1       0.742   8.525  20.246  0.00  0.00    +0.000 HD
ENDROOT
BRANCH   1  13
ATOM     10  O   UNL     1      -1.305  11.895  22.174  0.00  0.00    +0.000 OA
ATOM     11  C   UNL     1      -0.840  11.663  21.072  0.00  0.00    +0.000 C 
ATOM     12  C   UNL     1      -0.572  10.304  20.486  0.00  0.00    +0.000 C 
ATOM     13  C   UNL     1      -0.212  10.604  19.028  0.00  0.00    +0.000 C 
ATOM     14  C   UNL     1       0.298  12.040  19.079  0.00  0.00    +0.000 C 
ATOM     15  N   UNL     1      -0.430  12.621  20.172  0.00  0.00    +0.000 N 
ATOM     16  H   UNL     1      -0.383  13.592  20.451  0.00  0.00    +0.000 HD
ENDBRANCH   1  13
BRANCH   7  17
ATOM     17  C   UNL     1       2.921   4.426  18.932  0.00  0.00    +0.000 A 
ATOM     18  C   UNL     1       1.844   3.780  18.304  0.00  0.00    +0.000 A 
ATOM     19  C   UNL     1       1.777   2.387  18.263  0.00  0.00    +0.000 A 
ATOM     20  C   UNL     1       2.755   1.626  18.899  0.00  0.00    +0.000 A 
ATOM     21  C   UNL     1       3.783   2.263  19.591  0.00  0.00    +0.000 A 
ATOM     22 CL   UNL     1       4.965   1.317  20.409  0.00  0.00    +0.000 Cl
ATOM     23  C   UNL     1       3.871   3.656  19.618  0.00  0.00    +0.000 A 
ENDBRANCH   7  17
BRANCH   6  24
ATOM     24  C   UNL     1       5.078   6.263  17.361  0.00  0.00    +0.000 A 
ATOM     25  C   UNL     1       6.341   6.834  17.564  0.00  0.00    +0.000 A 
ATOM     26  C   UNL     1       7.463   6.349  16.886  0.00  0.00    +0.000 A 
ATOM     27  C   UNL     1       7.326   5.346  15.929  0.00  0.00    +0.000 A 
ATOM     28  C   UNL     1       6.062   4.828  15.634  0.00  0.00    +0.000 A 
ATOM     29  C   UNL     1       4.953   5.279  16.369  0.00  0.00    +0.000 A 
BRANCH  28  30
ATOM     30  C   UNL     1       5.862   3.822  14.533  0.00  0.00    +0.000 C 
BRANCH  30  31
ATOM     31  O   UNL     1       6.389   4.392  13.337  0.00  0.00    +0.000 OA
BRANCH  31  32
ATOM     32  C   UNL     1       6.449   3.452  12.261  0.00  0.00    +0.000 C 
BRANCH  32  33
ATOM     33  C   UNL     1       5.068   3.112  11.693  0.00  0.00    +0.000 C 
ATOM     34  F   UNL     1       4.747   3.840  10.602  0.00  0.00    +0.000 F 
ATOM     35  F   UNL     1       5.003   1.804  11.343  0.00  0.00    +0.000 F 
ATOM     36  F   UNL     1       4.105   3.324  12.621  0.00  0.00    +0.000 F 
ENDBRANCH  32  33
ENDBRANCH  31  32
ENDBRANCH  30  31
ENDBRANCH  28  30
ENDBRANCH   6  24
TORSDOF 7
ENDMDL
MODEL 8
REMARK VINA RESULT:      -8.3      3.130      4.882
REMARK  Name = 
REMARK  7 active torsions:
REMARK  status: ('A' for Active; 'I' for Inactive)
REMARK    1  A    between atoms: C_4  and  C_5
REMARK    2  A    between atoms: C_10  and  C_11
REMARK    3  A    between atoms: C_15  and  C_16
REMARK    4  A    between atoms: C_16  and  O_17
REMARK    5  A    between atoms: O_17  and  C_18
REMARK    6  A    between atoms: C_18  and  C_19
REMARK    7  A    between atoms: N_24  and  C_25
REMARK                            x       y       z     vdW  Elec       q    Type
REMARK                         _______ _______ _______ _____ _____    ______ ____
ROOT
ATOM      1  C   UNL     1       1.368  11.174  18.902  0.00  0.00    +0.000 C 
ATOM      2  O   UNL     1       1.357  10.795  20.070  0.00  0.00    +0.000 OA
ATOM      3  N   UNL     1       1.705  10.384  17.818  0.00  0.00    +0.000 N 
ATOM      4  C   UNL     1       2.068   9.064  17.988  0.00  0.00    +0.000 A 
ATOM      5  C   UNL     1       1.559   8.144  18.916  0.00  0.00    +0.000 A 
ATOM      6  C   UNL     1       2.312   6.991  18.780  0.00  0.00    +0.000 A 
ATOM      7  N   UNL     1       3.310   7.343  17.862  0.00  0.00    +0.000 N 
ATOM      8  N   UNL     1       2.986   8.502  17.206  0.00  0.00    +0.000 NA
ATOM      9  H   UNL     1       2.079  10.807  16.981  0.00  0.00    +0.000 HD
ENDROOT
BRANCH   1  13
ATOM     10  O   UNL     1       0.414  15.715  20.171  0.00  0.00    +0.000 OA
ATOM     11  C   UNL     1       0.831  14.748  19.559  0.00  0.00    +0.000 C 
ATOM     12  C   UNL     1       0.318  13.338  19.664  0.00  0.00    +0.000 C 
ATOM     13  C   UNL     1       1.040  12.605  18.531  0.00  0.00    +0.000 C 
ATOM     14  C   UNL     1       2.298  13.440  18.316  0.00  0.00    +0.000 C 
ATOM     15  N   UNL     1       1.892  14.768  18.681  0.00  0.00    +0.000 N 
ATOM     16  H   UNL     1       2.468  15.594  18.600  0.00  0.00    +0.000 HD
ENDBRANCH   1  13
BRANCH   7  17
ATOM     17  C   UNL     1       4.564   6.716  17.586  0.00  0.00    +0.000 A 
ATOM     18  C   UNL     1       5.522   6.519  18.593  0.00  0.00    +0.000 A 
ATOM     19  C   UNL     1       6.705   5.829  18.323  0.00  0.00    +0.000 A 
ATOM     20  C   UNL     1       6.967   5.380  17.032  0.00  0.00    +0.000 A 
ATOM     21  C   UNL     1       6.054   5.641  16.011  0.00  0.00    +0.000 A 
ATOM     22 CL   UNL     1       6.404   5.119  14.409  0.00  0.00    +0.000 Cl
ATOM     23  C   UNL     1       4.858   6.311  16.276  0.00  0.00    +0.000 A 
ENDBRANCH   7  17
BRANCH   6  24
ATOM     24  C   UNL     1       2.143   5.715  19.493  0.00  0.00    +0.000 A 
ATOM     25  C   UNL     1       2.506   5.545  20.834  0.00  0.00    +0.000 A 
ATOM     26  C   UNL     1       2.225   4.352  21.507  0.00  0.00    +0.000 A 
ATOM     27  C   UNL     1       1.657   3.278  20.823  0.00  0.00    +0.000 A 
ATOM     28  C   UNL     1       1.377   3.387  19.458  0.00  0.00    +0.000 A 
ATOM     29  C   UNL     1       1.605   4.613  18.812  0.00  0.00    +0.000 A 
BRANCH  28  30
ATOM     30  C   UNL     1       0.864   2.215  18.666  0.00  0.00    +0.000 C 
BRANCH  30  31
ATOM     31  O   UNL     1       1.714   2.066  17.531  0.00  0.00    +0.000 OA
BRANCH  31  32
ATOM     32  C   UNL     1       3.060   1.747  17.892  0.00  0.00    +0.000 C 
BRANCH  32  33
ATOM     33  C   UNL     1       4.061   2.822  17.458  0.00  0.00    +0.000 C 
ATOM     34  F   UNL     1       3.501   3.806  16.723  0.00  0.00    +0.000 F 
ATOM     35  F   UNL     1       4.640   3.400  18.538  0.00  0.00    +0.000 F 
ATOM     36  F   UNL     1       5.055   2.277  16.716  0.00  0.00    +0.000 F 
ENDBRANCH  32  33
ENDBRANCH  31  32
ENDBRANCH  30  31
ENDBRANCH  28  30
ENDBRANCH   6  24
TORSDOF 7
ENDMDL
MODEL 9
REMARK VINA RESULT:      -8.3      3.461      5.213
REMARK  Name = 
REMARK  7 active torsions:
REMARK  status: ('A' for Active; 'I' for Inactive)
REMARK    1  A    between atoms: C_4  and  C_5
REMARK    2  A    between atoms: C_10  and  C_11
REMARK    3  A    between atoms: C_15  and  C_16
REMARK    4  A    between atoms: C_16  and  O_17
REMARK    5  A    between atoms: O_17  and  C_18
REMARK    6  A    between atoms: C_18  and  C_19
REMARK    7  A    between atoms: N_24  and  C_25
REMARK                            x       y       z     vdW  Elec       q    Type
REMARK                         _______ _______ _______ _____ _____    ______ ____
ROOT
ATOM      1  C   UNL     1       1.624  11.313  18.801  0.00  0.00    +0.000 C 
ATOM      2  O   UNL     1       1.478  10.851  19.929  0.00  0.00    +0.000 OA
ATOM      3  N   UNL     1       1.997  10.581  17.688  0.00  0.00    +0.000 N 
ATOM      4  C   UNL     1       2.242   9.227  17.780  0.00  0.00    +0.000 A 
ATOM      5  C   UNL     1       1.584   8.286  18.584  0.00  0.00    +0.000 A 
ATOM      6  C   UNL     1       2.257   7.088  18.419  0.00  0.00    +0.000 A 
ATOM      7  N   UNL     1       3.357   7.424  17.620  0.00  0.00    +0.000 N 
ATOM      8  N   UNL     1       3.182   8.651  17.035  0.00  0.00    +0.000 NA
ATOM      9  H   UNL     1       2.476  11.034  16.923  0.00  0.00    +0.000 HD
ENDROOT
BRANCH   1  13
ATOM     10  O   UNL     1      -0.633  15.482  19.625  0.00  0.00    +0.000 OA
ATOM     11  C   UNL     1       0.237  14.667  19.374  0.00  0.00    +0.000 C 
ATOM     12  C   UNL     1       0.026  13.266  18.869  0.00  0.00    +0.000 C 
ATOM     13  C   UNL     1       1.439  12.791  18.521  0.00  0.00    +0.000 C 
ATOM     14  C   UNL     1       2.330  13.653  19.408  0.00  0.00    +0.000 C 
ATOM     15  N   UNL     1       1.587  14.874  19.553  0.00  0.00    +0.000 N 
ATOM     16  H   UNL     1       1.914  15.699  20.036  0.00  0.00    +0.000 HD
ENDBRANCH   1  13
BRANCH   7  17
ATOM     17  C   UNL     1       4.580   6.719  17.401  0.00  0.00    +0.000 A 
ATOM     18  C   UNL     1       4.919   6.215  16.135  0.00  0.00    +0.000 A 
ATOM     19  C   UNL     1       6.156   5.605  15.920  0.00  0.00    +0.000 A 
ATOM     20  C   UNL     1       7.041   5.439  16.982  0.00  0.00    +0.000 A 
ATOM     21  C   UNL     1       6.678   5.867  18.257  0.00  0.00    +0.000 A 
ATOM     22 CL   UNL     1       7.760   5.622  19.572  0.00  0.00    +0.000 Cl
ATOM     23  C   UNL     1       5.452   6.499  18.477  0.00  0.00    +0.000 A 
ENDBRANCH   7  17
BRANCH   6  24
ATOM     24  C   UNL     1       1.929   5.781  19.009  0.00  0.00    +0.000 A 
ATOM     25  C   UNL     1       1.488   5.637  20.330  0.00  0.00    +0.000 A 
ATOM     26  C   UNL     1       1.079   4.393  20.817  0.00  0.00    +0.000 A 
ATOM     27  C   UNL     1       1.188   3.256  20.018  0.00  0.00    +0.000 A 
ATOM     28  C   UNL     1       1.720   3.355  18.730  0.00  0.00    +0.000 A 
ATOM     29  C   UNL     1       2.066   4.622  18.232  0.00  0.00    +0.000 A 
BRANCH  28  30
ATOM     30  C   UNL     1       1.951   2.135  17.880  0.00  0.00    +0.000 C 
BRANCH  30  31
ATOM     31  O   UNL     1       3.362   1.963  17.761  0.00  0.00    +0.000 OA
BRANCH  31  32
ATOM     32  C   UNL     1       3.898   1.110  18.778  0.00  0.00    +0.000 C 
BRANCH  32  33
ATOM     33  C   UNL     1       4.523   1.892  19.937  0.00  0.00    +0.000 C 
ATOM     34  F   UNL     1       3.636   2.218  20.900  0.00  0.00    +0.000 F 
ATOM     35  F   UNL     1       5.511   1.170  20.522  0.00  0.00    +0.000 F 
ATOM     36  F   UNL     1       5.081   3.042  19.491  0.00  0.00    +0.000 F 
ENDBRANCH  32  33
ENDBRANCH  31  32
ENDBRANCH  30  31
ENDBRANCH  28  30
ENDBRANCH   6  24
TORSDOF 7
ENDMDL
