MODEL 1
REMARK VINA RESULT:      -9.0      0.000      0.000
REMARK  Name = 
REMARK  3 active torsions:
REMARK  status: ('A' for Active; 'I' for Inactive)
REMARK    1  A    between atoms: S_2  and  O_4
REMARK    2  A    between atoms: S_2  and  C_11
REMARK    3  A    between atoms: O_4  and  C_5
REMARK                            x       y       z     vdW  Elec       q    Type
REMARK                         _______ _______ _______ _____ _____    ______ ____
ROOT
ATOM      1  C   UNL     1       5.370   5.527  16.973  0.00  0.00    +0.000 A 
ATOM      2  C   UNL     1       4.921   6.852  17.105  0.00  0.00    +0.000 A 
ATOM      3  C   UNL     1       3.694   7.134  17.691  0.00  0.00    +0.000 A 
ATOM      4  C   UNL     1       2.999   6.040  18.193  0.00  0.00    +0.000 A 
ATOM      5  N   UNL     1       2.018   6.006  19.158  0.00  0.00    +0.000 N 
ATOM      6  C   UNL     1       1.869   4.712  19.584  0.00  0.00    +0.000 A 
ATOM      7  C   UNL     1       1.448   4.164  20.788  0.00  0.00    +0.000 A 
ATOM      8  C   UNL     1       1.340   2.782  20.772  0.00  0.00    +0.000 A 
ATOM      9  N   UNL     1       1.462   2.006  19.670  0.00  0.00    +0.000 NA
ATOM     10  C   UNL     1       1.931   2.568  18.525  0.00  0.00    +0.000 A 
ATOM     11  C   UNL     1       2.304   3.915  18.524  0.00  0.00    +0.000 A 
ATOM     12  C   UNL     1       3.306   4.712  17.880  0.00  0.00    +0.000 A 
ATOM     13  C   UNL     1       4.539   4.429  17.231  0.00  0.00    +0.000 A 
ATOM     14  H   UNL     1       1.680   6.821  19.651  0.00  0.00    +0.000 HD
ENDROOT
BRANCH   1  16
ATOM     15  O   UNL     1       7.456   4.004  16.881  0.00  0.00    +0.000 OA
ATOM     16  S   UNL     1       7.143   5.414  16.680  0.00  0.00    +0.000 S 
ATOM     17  O   UNL     1       7.710   6.438  17.548  0.00  0.00    +0.000 OA
BRANCH  16  18
ATOM     18  O   UNL     1       7.486   5.795  15.127  0.00  0.00    +0.000 OA
BRANCH  18  19
ATOM     19  C   UNL     1       7.006   4.973  14.115  0.00  0.00    +0.000 A 
ATOM     20  C   UNL     1       7.748   4.899  12.933  0.00  0.00    +0.000 A 
ATOM     21  C   UNL     1       7.298   4.114  11.860  0.00  0.00    +0.000 A 
ATOM     22  C   UNL     1       6.107   3.396  11.963  0.00  0.00    +0.000 A 
ATOM     23  C   UNL     1       5.375   3.447  13.143  0.00  0.00    +0.000 A 
ATOM     24  C   UNL     1       5.826   4.224  14.213  0.00  0.00    +0.000 A 
ENDBRANCH  18  19
ENDBRANCH  16  18
ENDBRANCH   1  16
TORSDOF 3
ENDMDL
MODEL 2
REMARK VINA RESULT:      -8.8      0.748      1.243
REMARK  Name = 
REMARK  3 active torsions:
REMARK  status: ('A' for Active; 'I' for Inactive)
REMARK    1  A    between atoms: S_2  and  O_4
REMARK    2  A    between atoms: S_2  and  C_11
REMARK    3  A    between atoms: O_4  and  C_5
REMARK                            x       y       z     vdW  Elec       q    Type
REMARK                         _______ _______ _______ _____ _____    ______ ____
ROOT
ATOM      1  C   UNL     1       5.101   5.449  16.449  0.00  0.00    +0.000 A 
ATOM      2  C   UNL     1       4.802   6.805  16.670  0.00  0.00    +0.000 A 
ATOM      3  C   UNL     1       3.754   7.179  17.501  0.00  0.00    +0.000 A 
ATOM      4  C   UNL     1       3.090   6.138  18.140  0.00  0.00    +0.000 A 
ATOM      5  N   UNL     1       2.335   6.171  19.291  0.00  0.00    +0.000 N 
ATOM      6  C   UNL     1       2.171   4.887  19.742  0.00  0.00    +0.000 A 
ATOM      7  C   UNL     1       1.967   4.357  21.008  0.00  0.00    +0.000 A 
ATOM      8  C   UNL     1       1.743   2.990  21.019  0.00  0.00    +0.000 A 
ATOM      9  N   UNL     1       1.565   2.224  19.918  0.00  0.00    +0.000 NA
ATOM     10  C   UNL     1       1.828   2.762  18.698  0.00  0.00    +0.000 A 
ATOM     11  C   UNL     1       2.304   4.073  18.615  0.00  0.00    +0.000 A 
ATOM     12  C   UNL     1       3.212   4.795  17.773  0.00  0.00    +0.000 A 
ATOM     13  C   UNL     1       4.253   4.420  16.879  0.00  0.00    +0.000 A 
ATOM     14  H   UNL     1       2.179   7.003  19.842  0.00  0.00    +0.000 HD
ENDROOT
BRANCH   1  16
ATOM     15  O   UNL     1       6.996   3.765  15.951  0.00  0.00    +0.000 OA
ATOM     16  S   UNL     1       6.756   5.194  15.789  0.00  0.00    +0.000 S 
ATOM     17  O   UNL     1       7.572   6.175  16.494  0.00  0.00    +0.000 OA
BRANCH  16  18
ATOM     18  O   UNL     1       6.788   5.538  14.191  0.00  0.00    +0.000 OA
BRANCH  18  19
ATOM     19  C   UNL     1       6.458   4.538  13.285  0.00  0.00    +0.000 A 
ATOM     20  C   UNL     1       5.115   4.158  13.201  0.00  0.00    +0.000 A 
ATOM     21  C   UNL     1       4.722   3.128  12.331  0.00  0.00    +0.000 A 
ATOM     22  C   UNL     1       5.665   2.477  11.538  0.00  0.00    +0.000 A 
ATOM     23  C   UNL     1       6.999   2.865  11.600  0.00  0.00    +0.000 A 
ATOM     24  C   UNL     1       7.390   3.893  12.461  0.00  0.00    +0.000 A 
ENDBRANCH  18  19
ENDBRANCH  16  18
ENDBRANCH   1  16
TORSDOF 3
ENDMDL
MODEL 3
REMARK VINA RESULT:      -8.8      1.187      1.811
REMARK  Name = 
REMARK  3 active torsions:
REMARK  status: ('A' for Active; 'I' for Inactive)
REMARK    1  A    between atoms: S_2  and  O_4
REMARK    2  A    between atoms: S_2  and  C_11
REMARK    3  A    between atoms: O_4  and  C_5
REMARK                            x       y       z     vdW  Elec       q    Type
REMARK                         _______ _______ _______ _____ _____    ______ ____
ROOT
ATOM      1  C   UNL     1       4.056   6.302  17.122  0.00  0.00    +0.000 A 
ATOM      2  C   UNL     1       3.617   7.512  17.689  0.00  0.00    +0.000 A 
ATOM      3  C   UNL     1       2.729   7.520  18.756  0.00  0.00    +0.000 A 
ATOM      4  C   UNL     1       2.377   6.273  19.258  0.00  0.00    +0.000 A 
ATOM      5  N   UNL     1       1.890   5.947  20.503  0.00  0.00    +0.000 N 
ATOM      6  C   UNL     1       2.015   4.593  20.680  0.00  0.00    +0.000 A 
ATOM      7  C   UNL     1       2.168   3.806  21.813  0.00  0.00    +0.000 A 
ATOM      8  C   UNL     1       2.153   2.444  21.561  0.00  0.00    +0.000 A 
ATOM      9  N   UNL     1       1.855   1.879  20.367  0.00  0.00    +0.000 NA
ATOM     10  C   UNL     1       1.769   2.676  19.271  0.00  0.00    +0.000 A 
ATOM     11  C   UNL     1       2.021   4.045  19.396  0.00  0.00    +0.000 A 
ATOM     12  C   UNL     1       2.611   5.069  18.586  0.00  0.00    +0.000 A 
ATOM     13  C   UNL     1       3.479   5.071  17.459  0.00  0.00    +0.000 A 
ATOM     14  H   UNL     1       1.736   6.616  21.244  0.00  0.00    +0.000 HD
ENDROOT
BRANCH   1  16
ATOM     15  O   UNL     1       6.474   7.205  17.008  0.00  0.00    +0.000 OA
ATOM     16  S   UNL     1       5.550   6.490  16.136  0.00  0.00    +0.000 S 
ATOM     17  O   UNL     1       5.080   7.086  14.893  0.00  0.00    +0.000 OA
BRANCH  16  18
ATOM     18  O   UNL     1       6.196   5.025  15.803  0.00  0.00    +0.000 OA
BRANCH  18  19
ATOM     19  C   UNL     1       6.468   4.700  14.480  0.00  0.00    +0.000 A 
ATOM     20  C   UNL     1       5.625   3.777  13.853  0.00  0.00    +0.000 A 
ATOM     21  C   UNL     1       5.867   3.380  12.528  0.00  0.00    +0.000 A 
ATOM     22  C   UNL     1       6.949   3.905  11.821  0.00  0.00    +0.000 A 
ATOM     23  C   UNL     1       7.778   4.839  12.432  0.00  0.00    +0.000 A 
ATOM     24  C   UNL     1       7.534   5.239  13.747  0.00  0.00    +0.000 A 
ENDBRANCH  18  19
ENDBRANCH  16  18
ENDBRANCH   1  16
TORSDOF 3
ENDMDL
MODEL 4
REMARK VINA RESULT:      -8.8      1.180      1.581
REMARK  Name = 
REMARK  3 active torsions:
REMARK  status: ('A' for Active; 'I' for Inactive)
REMARK    1  A    between atoms: S_2  and  O_4
REMARK    2  A    between atoms: S_2  and  C_11
REMARK    3  A    between atoms: O_4  and  C_5
REMARK                            x       y       z     vdW  Elec       q    Type
REMARK                         _______ _______ _______ _____ _____    ______ ____
ROOT
ATOM      1  C   UNL     1       4.062   6.313  17.147  0.00  0.00    +0.000 A 
ATOM      2  C   UNL     1       3.648   7.526  17.724  0.00  0.00    +0.000 A 
ATOM      3  C   UNL     1       2.762   7.543  18.792  0.00  0.00    +0.000 A 
ATOM      4  C   UNL     1       2.386   6.299  19.285  0.00  0.00    +0.000 A 
ATOM      5  N   UNL     1       1.894   5.972  20.528  0.00  0.00    +0.000 N 
ATOM      6  C   UNL     1       1.994   4.615  20.694  0.00  0.00    +0.000 A 
ATOM      7  C   UNL     1       2.132   3.816  21.821  0.00  0.00    +0.000 A 
ATOM      8  C   UNL     1       2.090   2.456  21.557  0.00  0.00    +0.000 A 
ATOM      9  N   UNL     1       1.780   1.907  20.360  0.00  0.00    +0.000 NA
ATOM     10  C   UNL     1       1.708   2.715  19.270  0.00  0.00    +0.000 A 
ATOM     11  C   UNL     1       1.987   4.077  19.406  0.00  0.00    +0.000 A 
ATOM     12  C   UNL     1       2.595   5.096  18.603  0.00  0.00    +0.000 A 
ATOM     13  C   UNL     1       3.462   5.090  17.475  0.00  0.00    +0.000 A 
ATOM     14  H   UNL     1       1.755   6.638  21.275  0.00  0.00    +0.000 HD
ENDROOT
BRANCH   1  16
ATOM     15  O   UNL     1       6.481   7.213  17.018  0.00  0.00    +0.000 OA
ATOM     16  S   UNL     1       5.558   6.479  16.160  0.00  0.00    +0.000 S 
ATOM     17  O   UNL     1       5.091   7.049  14.903  0.00  0.00    +0.000 OA
BRANCH  16  18
ATOM     18  O   UNL     1       6.204   5.007  15.859  0.00  0.00    +0.000 OA
BRANCH  18  19
ATOM     19  C   UNL     1       6.449   4.642  14.541  0.00  0.00    +0.000 A 
ATOM     20  C   UNL     1       7.536   5.238  13.895  0.00  0.00    +0.000 A 
ATOM     21  C   UNL     1       7.816   4.938  12.552  0.00  0.00    +0.000 A 
ATOM     22  C   UNL     1       7.015   4.039  11.849  0.00  0.00    +0.000 A 
ATOM     23  C   UNL     1       5.945   3.426  12.492  0.00  0.00    +0.000 A 
ATOM     24  C   UNL     1       5.670   3.719  13.829  0.00  0.00    +0.000 A 
ENDBRANCH  18  19
ENDBRANCH  16  18
ENDBRANCH   1  16
TORSDOF 3
ENDMDL
MODEL 5
REMARK VINA RESULT:      -8.7      0.642      1.228
REMARK  Name = 
REMARK  3 active torsions:
REMARK  status: ('A' for Active; 'I' for Inactive)
REMARK    1  A    between atoms: S_2  and  O_4
REMARK    2  A    between atoms: S_2  and  C_11
REMARK    3  A    between atoms: O_4  and  C_5
REMARK                            x       y       z     vdW  Elec       q    Type
REMARK                         _______ _______ _______ _____ _____    ______ ____
ROOT
ATOM      1  C   UNL     1       5.422   5.676  17.179  0.00  0.00    +0.000 A 
ATOM      2  C   UNL     1       4.895   6.978  17.243  0.00  0.00    +0.000 A 
ATOM      3  C   UNL     1       3.607   7.205  17.710  0.00  0.00    +0.000 A 
ATOM      4  C   UNL     1       2.925   6.084  18.168  0.00  0.00    +0.000 A 
ATOM      5  N   UNL     1       1.863   6.014  19.041  0.00  0.00    +0.000 N 
ATOM      6  C   UNL     1       1.741   4.720  19.478  0.00  0.00    +0.000 A 
ATOM      7  C   UNL     1       1.239   4.170  20.649  0.00  0.00    +0.000 A 
ATOM      8  C   UNL     1       1.204   2.784  20.652  0.00  0.00    +0.000 A 
ATOM      9  N   UNL     1       1.465   1.999  19.581  0.00  0.00    +0.000 NA
ATOM     10  C   UNL     1       2.007   2.567  18.472  0.00  0.00    +0.000 A 
ATOM     11  C   UNL     1       2.311   3.931  18.478  0.00  0.00    +0.000 A 
ATOM     12  C   UNL     1       3.326   4.769  17.911  0.00  0.00    +0.000 A 
ATOM     13  C   UNL     1       4.627   4.541  17.383  0.00  0.00    +0.000 A 
ATOM     14  H   UNL     1       1.441   6.817  19.485  0.00  0.00    +0.000 HD
ENDROOT
BRANCH   1  16
ATOM     15  O   UNL     1       7.675   5.352  18.402  0.00  0.00    +0.000 OA
ATOM     16  S   UNL     1       7.217   5.650  17.051  0.00  0.00    +0.000 S 
ATOM     17  O   UNL     1       7.543   6.919  16.413  0.00  0.00    +0.000 OA
BRANCH  16  18
ATOM     18  O   UNL     1       7.697   4.433  16.070  0.00  0.00    +0.000 OA
BRANCH  18  19
ATOM     19  C   UNL     1       7.318   4.462  14.734  0.00  0.00    +0.000 A 
ATOM     20  C   UNL     1       6.217   3.687  14.356  0.00  0.00    +0.000 A 
ATOM     21  C   UNL     1       5.805   3.646  13.015  0.00  0.00    +0.000 A 
ATOM     22  C   UNL     1       6.486   4.379  12.045  0.00  0.00    +0.000 A 
ATOM     23  C   UNL     1       7.569   5.169  12.417  0.00  0.00    +0.000 A 
ATOM     24  C   UNL     1       7.975   5.215  13.752  0.00  0.00    +0.000 A 
ENDBRANCH  18  19
ENDBRANCH  16  18
ENDBRANCH   1  16
TORSDOF 3
ENDMDL
MODEL 6
REMARK VINA RESULT:      -8.6      5.659      7.870
REMARK  Name = 
REMARK  3 active torsions:
REMARK  status: ('A' for Active; 'I' for Inactive)
REMARK    1  A    between atoms: S_2  and  O_4
REMARK    2  A    between atoms: S_2  and  C_11
REMARK    3  A    between atoms: O_4  and  C_5
REMARK                            x       y       z     vdW  Elec       q    Type
REMARK                         _______ _______ _______ _____ _____    ______ ____
ROOT
ATOM      1  C   UNL     1       1.488   8.926  19.819  0.00  0.00    +0.000 A 
ATOM      2  C   UNL     1       1.994   9.072  18.515  0.00  0.00    +0.000 A 
ATOM      3  C   UNL     1       2.512   7.985  17.825  0.00  0.00    +0.000 A 
ATOM      4  C   UNL     1       2.423   6.759  18.474  0.00  0.00    +0.000 A 
ATOM      5  N   UNL     1       2.443   5.492  17.938  0.00  0.00    +0.000 N 
ATOM      6  C   UNL     1       1.980   4.611  18.881  0.00  0.00    +0.000 A 
ATOM      7  C   UNL     1       1.337   3.385  18.783  0.00  0.00    +0.000 A 
ATOM      8  C   UNL     1       1.129   2.758  20.001  0.00  0.00    +0.000 A 
ATOM      9  N   UNL     1       1.631   3.177  21.186  0.00  0.00    +0.000 NA
ATOM     10  C   UNL     1       2.204   4.407  21.253  0.00  0.00    +0.000 A 
ATOM     11  C   UNL     1       2.230   5.216  20.114  0.00  0.00    +0.000 A 
ATOM     12  C   UNL     1       2.139   6.618  19.836  0.00  0.00    +0.000 A 
ATOM     13  C   UNL     1       1.659   7.747  20.556  0.00  0.00    +0.000 A 
ATOM     14  H   UNL     1       2.515   5.296  16.949  0.00  0.00    +0.000 HD
ENDROOT
BRANCH   1  16
ATOM     15  O   UNL     1       1.275  11.133  21.147  0.00  0.00    +0.000 OA
ATOM     16  S   UNL     1       0.424  10.291  20.315  0.00  0.00    +0.000 S 
ATOM     17  O   UNL     1      -0.754   9.636  20.871  0.00  0.00    +0.000 OA
BRANCH  16  18
ATOM     18  O   UNL     1      -0.030  11.160  19.006  0.00  0.00    +0.000 OA
BRANCH  18  19
ATOM     19  C   UNL     1      -1.319  11.002  18.513  0.00  0.00    +0.000 A 
ATOM     20  C   UNL     1      -1.524  10.021  17.539  0.00  0.00    +0.000 A 
ATOM     21  C   UNL     1      -2.797   9.835  16.975  0.00  0.00    +0.000 A 
ATOM     22  C   UNL     1      -3.871  10.626  17.382  0.00  0.00    +0.000 A 
ATOM     23  C   UNL     1      -3.678  11.589  18.366  0.00  0.00    +0.000 A 
ATOM     24  C   UNL     1      -2.414  11.770  18.932  0.00  0.00    +0.000 A 
ENDBRANCH  18  19
ENDBRANCH  16  18
ENDBRANCH   1  16
TORSDOF 3
ENDMDL
MODEL 7
REMARK VINA RESULT:      -8.6      5.658      7.894
REMARK  Name = 
REMARK  3 active torsions:
REMARK  status: ('A' for Active; 'I' for Inactive)
REMARK    1  A    between atoms: S_2  and  O_4
REMARK    2  A    between atoms: S_2  and  C_11
REMARK    3  A    between atoms: O_4  and  C_5
REMARK                            x       y       z     vdW  Elec       q    Type
REMARK                         _______ _______ _______ _____ _____    ______ ____
ROOT
ATOM      1  C   UNL     1       1.499   8.942  19.808  0.00  0.00    +0.000 A 
ATOM      2  C   UNL     1       1.996   9.080  18.500  0.00  0.00    +0.000 A 
ATOM      3  C   UNL     1       2.511   7.988  17.814  0.00  0.00    +0.000 A 
ATOM      4  C   UNL     1       2.428   6.767  18.472  0.00  0.00    +0.000 A 
ATOM      5  N   UNL     1       2.447   5.496  17.944  0.00  0.00    +0.000 N 
ATOM      6  C   UNL     1       1.992   4.621  18.897  0.00  0.00    +0.000 A 
ATOM      7  C   UNL     1       1.350   3.394  18.812  0.00  0.00    +0.000 A 
ATOM      8  C   UNL     1       1.151   2.774  20.036  0.00  0.00    +0.000 A 
ATOM      9  N   UNL     1       1.660   3.203  21.214  0.00  0.00    +0.000 NA
ATOM     10  C   UNL     1       2.232   4.434  21.269  0.00  0.00    +0.000 A 
ATOM     11  C   UNL     1       2.249   5.235  20.124  0.00  0.00    +0.000 A 
ATOM     12  C   UNL     1       2.154   6.635  19.837  0.00  0.00    +0.000 A 
ATOM     13  C   UNL     1       1.677   7.768  20.552  0.00  0.00    +0.000 A 
ATOM     14  H   UNL     1       2.513   5.294  16.957  0.00  0.00    +0.000 HD
ENDROOT
BRANCH   1  16
ATOM     15  O   UNL     1       1.288  11.148  21.136  0.00  0.00    +0.000 OA
ATOM     16  S   UNL     1       0.437  10.308  20.302  0.00  0.00    +0.000 S 
ATOM     17  O   UNL     1      -0.743   9.656  20.855  0.00  0.00    +0.000 OA
BRANCH  16  18
ATOM     18  O   UNL     1      -0.012  11.179  18.992  0.00  0.00    +0.000 OA
BRANCH  18  19
ATOM     19  C   UNL     1      -1.277  10.975  18.456  0.00  0.00    +0.000 A 
ATOM     20  C   UNL     1      -2.307  11.814  18.889  0.00  0.00    +0.000 A 
ATOM     21  C   UNL     1      -3.616  11.637  18.411  0.00  0.00    +0.000 A 
ATOM     22  C   UNL     1      -3.901  10.625  17.496  0.00  0.00    +0.000 A 
ATOM     23  C   UNL     1      -2.877   9.800  17.044  0.00  0.00    +0.000 A 
ATOM     24  C   UNL     1      -1.574   9.980  17.515  0.00  0.00    +0.000 A 
ENDBRANCH  18  19
ENDBRANCH  16  18
ENDBRANCH   1  16
TORSDOF 3
ENDMDL
MODEL 8
REMARK VINA RESULT:      -8.2      5.090      7.971
REMARK  Name = 
REMARK  3 active torsions:
REMARK  status: ('A' for Active; 'I' for Inactive)
REMARK    1  A    between atoms: S_2  and  O_4
REMARK    2  A    between atoms: S_2  and  C_11
REMARK    3  A    between atoms: O_4  and  C_5
REMARK                            x       y       z     vdW  Elec       q    Type
REMARK                         _______ _______ _______ _____ _____    ______ ____
ROOT
ATOM      1  C   UNL     1       1.639   7.393  20.213  0.00  0.00    +0.000 A 
ATOM      2  C   UNL     1       1.500   6.180  20.908  0.00  0.00    +0.000 A 
ATOM      3  C   UNL     1       2.292   5.083  20.596  0.00  0.00    +0.000 A 
ATOM      4  C   UNL     1       3.261   5.296  19.622  0.00  0.00    +0.000 A 
ATOM      5  N   UNL     1       4.425   4.598  19.392  0.00  0.00    +0.000 N 
ATOM      6  C   UNL     1       5.233   5.352  18.580  0.00  0.00    +0.000 A 
ATOM      7  C   UNL     1       6.611   5.418  18.429  0.00  0.00    +0.000 A 
ATOM      8  C   UNL     1       7.027   6.254  17.405  0.00  0.00    +0.000 A 
ATOM      9  N   UNL     1       6.208   6.843  16.503  0.00  0.00    +0.000 NA
ATOM     10  C   UNL     1       4.867   6.805  16.716  0.00  0.00    +0.000 A 
ATOM     11  C   UNL     1       4.372   6.191  17.869  0.00  0.00    +0.000 A 
ATOM     12  C   UNL     1       3.275   6.402  18.767  0.00  0.00    +0.000 A 
ATOM     13  C   UNL     1       2.424   7.503  19.057  0.00  0.00    +0.000 A 
ATOM     14  H   UNL     1       4.734   3.813  19.947  0.00  0.00    +0.000 HD
ENDROOT
BRANCH   1  16
ATOM     15  O   UNL     1       1.811   9.016  22.216  0.00  0.00    +0.000 OA
ATOM     16  S   UNL     1       0.916   8.790  21.088  0.00  0.00    +0.000 S 
ATOM     17  O   UNL     1      -0.470   8.396  21.299  0.00  0.00    +0.000 OA
BRANCH  16  18
ATOM     18  O   UNL     1       0.942  10.125  20.143  0.00  0.00    +0.000 OA
BRANCH  18  19
ATOM     19  C   UNL     1      -0.203  10.463  19.432  0.00  0.00    +0.000 A 
ATOM     20  C   UNL     1      -0.406   9.842  18.197  0.00  0.00    +0.000 A 
ATOM     21  C   UNL     1      -1.526  10.166  17.414  0.00  0.00    +0.000 A 
ATOM     22  C   UNL     1      -2.449  11.110  17.863  0.00  0.00    +0.000 A 
ATOM     23  C   UNL     1      -2.265  11.717  19.100  0.00  0.00    +0.000 A 
ATOM     24  C   UNL     1      -1.155  11.389  19.881  0.00  0.00    +0.000 A 
ENDBRANCH  18  19
ENDBRANCH  16  18
ENDBRANCH   1  16
TORSDOF 3
ENDMDL
MODEL 9
REMARK VINA RESULT:      -8.2      3.844      5.991
REMARK  Name = 
REMARK  3 active torsions:
REMARK  status: ('A' for Active; 'I' for Inactive)
REMARK    1  A    between atoms: S_2  and  O_4
REMARK    2  A    between atoms: S_2  and  C_11
REMARK    3  A    between atoms: O_4  and  C_5
REMARK                            x       y       z     vdW  Elec       q    Type
REMARK                         _______ _______ _______ _____ _____    ______ ____
ROOT
ATOM      1  C   UNL     1       2.942   6.205  19.611  0.00  0.00    +0.000 A 
ATOM      2  C   UNL     1       2.381   7.273  18.888  0.00  0.00    +0.000 A 
ATOM      3  C   UNL     1       3.004   7.770  17.751  0.00  0.00    +0.000 A 
ATOM      4  C   UNL     1       4.154   7.100  17.351  0.00  0.00    +0.000 A 
ATOM      5  N   UNL     1       4.743   7.058  16.107  0.00  0.00    +0.000 N 
ATOM      6  C   UNL     1       5.634   6.016  16.080  0.00  0.00    +0.000 A 
ATOM      7  C   UNL     1       6.109   5.216  15.051  0.00  0.00    +0.000 A 
ATOM      8  C   UNL     1       7.099   4.326  15.439  0.00  0.00    +0.000 A 
ATOM      9  N   UNL     1       7.697   4.312  16.653  0.00  0.00    +0.000 NA
ATOM     10  C   UNL     1       7.168   5.068  17.651  0.00  0.00    +0.000 A 
ATOM     11  C   UNL     1       6.008   5.809  17.409  0.00  0.00    +0.000 A 
ATOM     12  C   UNL     1       4.851   6.197  18.160  0.00  0.00    +0.000 A 
ATOM     13  C   UNL     1       4.234   5.728  19.352  0.00  0.00    +0.000 A 
ATOM     14  H   UNL     1       4.376   7.527  15.291  0.00  0.00    +0.000 HD
ENDROOT
BRANCH   1  16
ATOM     15  O   UNL     1       0.741   6.411  20.949  0.00  0.00    +0.000 OA
ATOM     16  S   UNL     1       1.759   5.397  20.700  0.00  0.00    +0.000 S 
ATOM     17  O   UNL     1       2.578   4.875  21.786  0.00  0.00    +0.000 OA
BRANCH  16  18
ATOM     18  O   UNL     1       1.048   4.141  19.931  0.00  0.00    +0.000 OA
BRANCH  18  19
ATOM     19  C   UNL     1       1.803   3.388  19.041  0.00  0.00    +0.000 A 
ATOM     20  C   UNL     1       2.515   2.300  19.553  0.00  0.00    +0.000 A 
ATOM     21  C   UNL     1       3.326   1.521  18.711  0.00  0.00    +0.000 A 
ATOM     22  C   UNL     1       3.426   1.823  17.354  0.00  0.00    +0.000 A 
ATOM     23  C   UNL     1       2.704   2.891  16.833  0.00  0.00    +0.000 A 
ATOM     24  C   UNL     1       1.893   3.661  17.669  0.00  0.00    +0.000 A 
ENDBRANCH  18  19
ENDBRANCH  16  18
ENDBRANCH   1  16
TORSDOF 3
ENDMDL
