MODEL 1
REMARK VINA RESULT:      -6.4      0.000      0.000
REMARK  Name = 
REMARK  15 active torsions:
REMARK  status: ('A' for Active; 'I' for Inactive)
REMARK    1  A    between atoms: C_1  and  C_2
REMARK    2  A    between atoms: C_2  and  C_3
REMARK    3  A    between atoms: C_3  and  C_4
REMARK    4  A    between atoms: C_4  and  C_5
REMARK    5  A    between atoms: C_5  and  C_6
REMARK    6  A    between atoms: C_6  and  C_7
REMARK    7  A    between atoms: C_7  and  C_8
REMARK    8  A    between atoms: C_8  and  C_9
REMARK    9  A    between atoms: C_9  and  C_10
REMARK   10  A    between atoms: C_10  and  C_11
REMARK   11  A    between atoms: C_11  and  C_12
REMARK   12  A    between atoms: C_12  and  C_13
REMARK   13  A    between atoms: C_13  and  C_14
REMARK   14  A    between atoms: N_20  and  C_21
REMARK   15  A    between atoms: N_20  and  C_22
REMARK                            x       y       z     vdW  Elec       q    Type
REMARK                         _______ _______ _______ _____ _____    ______ ____
ROOT
ATOM      1  C   UNL     1       6.565   6.792  17.483  0.00  0.00    +0.000 C 
ENDROOT
BRANCH   1   2
ATOM      2  C   UNL     1       7.822   7.358  18.134  0.00  0.00    +0.000 C 
BRANCH   2   3
ATOM      3  C   UNL     1       8.093   8.767  17.613  0.00  0.00    +0.000 C 
BRANCH   3   4
ATOM      4  C   UNL     1       8.786   9.619  18.670  0.00  0.00    +0.000 C 
BRANCH   4   5
ATOM      5  C   UNL     1       8.987  11.044  18.163  0.00  0.00    +0.000 C 
BRANCH   5   6
ATOM      6  C   UNL     1      10.448  11.286  17.798  0.00  0.00    +0.000 C 
BRANCH   6   7
ATOM      7  C   UNL     1      11.042  12.406  18.647  0.00  0.00    +0.000 C 
BRANCH   7   8
ATOM      8  C   UNL     1      11.507  11.870  19.998  0.00  0.00    +0.000 C 
BRANCH   8   9
ATOM      9  C   UNL     1      10.440  12.083  21.068  0.00  0.00    +0.000 C 
BRANCH   9  10
ATOM     10  C   UNL     1      10.006  13.546  21.120  0.00  0.00    +0.000 C 
BRANCH  10  12
ATOM     11  C   UNL     1       8.029  14.387  19.816  0.00  0.00    +0.000 C 
ATOM     12  C   UNL     1       8.485  13.672  21.077  0.00  0.00    +0.000 C 
ENDBRANCH  10  12
ENDBRANCH   9  10
ENDBRANCH   8   9
ENDBRANCH   7   8
ENDBRANCH   6   7
ENDBRANCH   5   6
ENDBRANCH   4   5
ENDBRANCH   3   4
ENDBRANCH   2   3
ENDBRANCH   1   2
BRANCH   1  13
ATOM     13  C   UNL     1       6.655   5.279  17.309  0.00  0.00    +0.000 C 
BRANCH  13  14
ATOM     14  C   UNL     1       5.372   4.716  16.719  0.00  0.00    +0.000 C 
ATOM     15  O   UNL     1       5.139   4.812  15.510  0.00  0.00    +0.000 OA
ATOM     16  N   UNL     1       4.493   4.085  17.617  0.00  0.00    +0.000 N 
ATOM     17  C   UNL     1       3.327   3.420  17.044  0.00  0.00    +0.000 C 
ATOM     18  C   UNL     1       2.009   3.871  17.666  0.00  0.00    +0.000 C 
ATOM     19  C   UNL     1       1.809   3.283  19.057  0.00  0.00    +0.000 C 
ATOM     20  N   UNL     1       2.358   4.159  20.196  0.00  0.00    +0.000 N 
ATOM     21  C   UNL     1       2.491   3.283  21.453  0.00  0.00    +0.000 C 
ATOM     22  C   UNL     1       1.337   5.264  20.523  0.00  0.00    +0.000 C 
ATOM     23  C   UNL     1       3.720   4.833  19.895  0.00  0.00    +0.000 C 
ATOM     24  C   UNL     1       4.699   3.960  19.080  0.00  0.00    +0.000 C 
ENDBRANCH  13  14
ENDBRANCH   1  13
TORSDOF 12
ENDMDL
MODEL 2
REMARK VINA RESULT:      -6.3      4.304     10.533
REMARK  Name = 
REMARK  15 active torsions:
REMARK  status: ('A' for Active; 'I' for Inactive)
REMARK    1  A    between atoms: C_1  and  C_2
REMARK    2  A    between atoms: C_2  and  C_3
REMARK    3  A    between atoms: C_3  and  C_4
REMARK    4  A    between atoms: C_4  and  C_5
REMARK    5  A    between atoms: C_5  and  C_6
REMARK    6  A    between atoms: C_6  and  C_7
REMARK    7  A    between atoms: C_7  and  C_8
REMARK    8  A    between atoms: C_8  and  C_9
REMARK    9  A    between atoms: C_9  and  C_10
REMARK   10  A    between atoms: C_10  and  C_11
REMARK   11  A    between atoms: C_11  and  C_12
REMARK   12  A    between atoms: C_12  and  C_13
REMARK   13  A    between atoms: C_13  and  C_14
REMARK   14  A    between atoms: N_20  and  C_21
REMARK   15  A    between atoms: N_20  and  C_22
REMARK                            x       y       z     vdW  Elec       q    Type
REMARK                         _______ _______ _______ _____ _____    ______ ____
ROOT
ATOM      1  C   UNL     1       8.622   8.965  18.641  0.00  0.00    +0.000 C 
ENDROOT
BRANCH   1   2
ATOM      2  C   UNL     1       7.562   8.583  17.615  0.00  0.00    +0.000 C 
BRANCH   2   3
ATOM      3  C   UNL     1       7.536   7.070  17.425  0.00  0.00    +0.000 C 
BRANCH   3   4
ATOM      4  C   UNL     1       7.897   6.348  18.719  0.00  0.00    +0.000 C 
BRANCH   4   5
ATOM      5  C   UNL     1       6.725   5.502  19.207  0.00  0.00    +0.000 C 
BRANCH   5   6
ATOM      6  C   UNL     1       5.473   5.786  18.382  0.00  0.00    +0.000 C 
BRANCH   6   7
ATOM      7  C   UNL     1       4.900   4.495  17.804  0.00  0.00    +0.000 C 
BRANCH   7   8
ATOM      8  C   UNL     1       4.981   4.504  16.280  0.00  0.00    +0.000 C 
BRANCH   8   9
ATOM      9  C   UNL     1       6.324   3.963  15.800  0.00  0.00    +0.000 C 
BRANCH   9  10
ATOM     10  C   UNL     1       6.685   4.540  14.432  0.00  0.00    +0.000 C 
BRANCH  10  12
ATOM     11  C   UNL     1       6.859   3.894  12.010  0.00  0.00    +0.000 C 
ATOM     12  C   UNL     1       6.086   3.703  13.305  0.00  0.00    +0.000 C 
ENDBRANCH  10  12
ENDBRANCH   9  10
ENDBRANCH   8   9
ENDBRANCH   7   8
ENDBRANCH   6   7
ENDBRANCH   5   6
ENDBRANCH   4   5
ENDBRANCH   3   4
ENDBRANCH   2   3
ENDBRANCH   1   2
BRANCH   1  13
ATOM     13  C   UNL     1       9.213  10.343  18.355  0.00  0.00    +0.000 C 
BRANCH  13  14
ATOM     14  C   UNL     1       9.563  11.070  19.643  0.00  0.00    +0.000 C 
ATOM     15  O   UNL     1       9.280  10.580  20.740  0.00  0.00    +0.000 OA
ATOM     16  N   UNL     1      10.224  12.304  19.507  0.00  0.00    +0.000 N 
ATOM     17  C   UNL     1      10.688  12.944  20.733  0.00  0.00    +0.000 C 
ATOM     18  C   UNL     1      10.203  14.382  20.884  0.00  0.00    +0.000 C 
ATOM     19  C   UNL     1      10.954  15.334  19.962  0.00  0.00    +0.000 C 
ATOM     20  N   UNL     1      10.299  15.522  18.583  0.00  0.00    +0.000 N 
ATOM     21  C   UNL     1      11.349  16.123  17.632  0.00  0.00    +0.000 C 
ATOM     22  C   UNL     1       9.157  16.547  18.700  0.00  0.00    +0.000 C 
ATOM     23  C   UNL     1       9.724  14.226  17.957  0.00  0.00    +0.000 C 
ATOM     24  C   UNL     1      10.568  12.959  18.222  0.00  0.00    +0.000 C 
ENDBRANCH  13  14
ENDBRANCH   1  13
TORSDOF 12
ENDMDL
MODEL 3
REMARK VINA RESULT:      -6.2      2.069      3.038
REMARK  Name = 
REMARK  15 active torsions:
REMARK  status: ('A' for Active; 'I' for Inactive)
REMARK    1  A    between atoms: C_1  and  C_2
REMARK    2  A    between atoms: C_2  and  C_3
REMARK    3  A    between atoms: C_3  and  C_4
REMARK    4  A    between atoms: C_4  and  C_5
REMARK    5  A    between atoms: C_5  and  C_6
REMARK    6  A    between atoms: C_6  and  C_7
REMARK    7  A    between atoms: C_7  and  C_8
REMARK    8  A    between atoms: C_8  and  C_9
REMARK    9  A    between atoms: C_9  and  C_10
REMARK   10  A    between atoms: C_10  and  C_11
REMARK   11  A    between atoms: C_11  and  C_12
REMARK   12  A    between atoms: C_12  and  C_13
REMARK   13  A    between atoms: C_13  and  C_14
REMARK   14  A    between atoms: N_20  and  C_21
REMARK   15  A    between atoms: N_20  and  C_22
REMARK                            x       y       z     vdW  Elec       q    Type
REMARK                         _______ _______ _______ _____ _____    ______ ____
ROOT
ATOM      1  C   UNL     1       7.989   8.549  17.710  0.00  0.00    +0.000 C 
ENDROOT
BRANCH   1   2
ATOM      2  C   UNL     1       8.746   9.442  18.685  0.00  0.00    +0.000 C 
BRANCH   2   3
ATOM      3  C   UNL     1       9.372  10.618  17.942  0.00  0.00    +0.000 C 
BRANCH   3   4
ATOM      4  C   UNL     1      10.183  11.497  18.887  0.00  0.00    +0.000 C 
BRANCH   4   5
ATOM      5  C   UNL     1       9.937  11.095  20.338  0.00  0.00    +0.000 C 
BRANCH   5   6
ATOM      6  C   UNL     1      10.126  12.287  21.270  0.00  0.00    +0.000 C 
BRANCH   6   7
ATOM      7  C   UNL     1       9.158  13.412  20.914  0.00  0.00    +0.000 C 
BRANCH   7   8
ATOM      8  C   UNL     1       8.096  13.573  21.998  0.00  0.00    +0.000 C 
BRANCH   8   9
ATOM      9  C   UNL     1       8.196  12.457  23.034  0.00  0.00    +0.000 C 
BRANCH   9  10
ATOM     10  C   UNL     1       6.823  11.851  23.315  0.00  0.00    +0.000 C 
BRANCH  10  12
ATOM     11  C   UNL     1       5.895  11.173  25.550  0.00  0.00    +0.000 C 
ATOM     12  C   UNL     1       6.267  12.340  24.649  0.00  0.00    +0.000 C 
ENDBRANCH  10  12
ENDBRANCH   9  10
ENDBRANCH   8   9
ENDBRANCH   7   8
ENDBRANCH   6   7
ENDBRANCH   5   6
ENDBRANCH   4   5
ENDBRANCH   3   4
ENDBRANCH   2   3
ENDBRANCH   1   2
BRANCH   1  13
ATOM     13  C   UNL     1       7.882   7.116  18.226  0.00  0.00    +0.000 C 
BRANCH  13  14
ATOM     14  C   UNL     1       7.293   6.195  17.170  0.00  0.00    +0.000 C 
ATOM     15  O   UNL     1       7.592   6.326  15.980  0.00  0.00    +0.000 OA
ATOM     16  N   UNL     1       6.412   5.198  17.629  0.00  0.00    +0.000 N 
ATOM     17  C   UNL     1       5.949   4.223  16.649  0.00  0.00    +0.000 C 
ATOM     18  C   UNL     1       4.429   4.100  16.589  0.00  0.00    +0.000 C 
ATOM     19  C   UNL     1       3.875   3.338  17.786  0.00  0.00    +0.000 C 
ATOM     20  N   UNL     1       3.507   4.228  18.985  0.00  0.00    +0.000 N 
ATOM     21  C   UNL     1       3.392   3.332  20.230  0.00  0.00    +0.000 C 
ATOM     22  C   UNL     1       2.120   4.850  18.748  0.00  0.00    +0.000 C 
ATOM     23  C   UNL     1       4.509   5.375  19.271  0.00  0.00    +0.000 C 
ATOM     24  C   UNL     1       5.990   5.004  19.037  0.00  0.00    +0.000 C 
ENDBRANCH  13  14
ENDBRANCH   1  13
TORSDOF 12
ENDMDL
MODEL 4
REMARK VINA RESULT:      -6.2      1.390      2.387
REMARK  Name = 
REMARK  15 active torsions:
REMARK  status: ('A' for Active; 'I' for Inactive)
REMARK    1  A    between atoms: C_1  and  C_2
REMARK    2  A    between atoms: C_2  and  C_3
REMARK    3  A    between atoms: C_3  and  C_4
REMARK    4  A    between atoms: C_4  and  C_5
REMARK    5  A    between atoms: C_5  and  C_6
REMARK    6  A    between atoms: C_6  and  C_7
REMARK    7  A    between atoms: C_7  and  C_8
REMARK    8  A    between atoms: C_8  and  C_9
REMARK    9  A    between atoms: C_9  and  C_10
REMARK   10  A    between atoms: C_10  and  C_11
REMARK   11  A    between atoms: C_11  and  C_12
REMARK   12  A    between atoms: C_12  and  C_13
REMARK   13  A    between atoms: C_13  and  C_14
REMARK   14  A    between atoms: N_20  and  C_21
REMARK   15  A    between atoms: N_20  and  C_22
REMARK                            x       y       z     vdW  Elec       q    Type
REMARK                         _______ _______ _______ _____ _____    ______ ____
ROOT
ATOM      1  C   UNL     1       8.067   8.624  17.864  0.00  0.00    +0.000 C 
ENDROOT
BRANCH   1   2
ATOM      2  C   UNL     1       8.826   9.480  18.872  0.00  0.00    +0.000 C 
BRANCH   2   3
ATOM      3  C   UNL     1       9.018  10.890  18.323  0.00  0.00    +0.000 C 
BRANCH   3   4
ATOM      4  C   UNL     1      10.483  11.160  18.002  0.00  0.00    +0.000 C 
BRANCH   4   5
ATOM      5  C   UNL     1      11.216  11.680  19.236  0.00  0.00    +0.000 C 
BRANCH   5   6
ATOM      6  C   UNL     1      11.790  13.069  18.978  0.00  0.00    +0.000 C 
BRANCH   6   7
ATOM      7  C   UNL     1      11.099  14.113  19.850  0.00  0.00    +0.000 C 
BRANCH   7   8
ATOM      8  C   UNL     1      10.229  13.442  20.909  0.00  0.00    +0.000 C 
BRANCH   8   9
ATOM      9  C   UNL     1       8.774  13.880  20.781  0.00  0.00    +0.000 C 
BRANCH   9  10
ATOM     10  C   UNL     1       8.615  14.921  19.675  0.00  0.00    +0.000 C 
BRANCH  10  12
ATOM     11  C   UNL     1       7.114  16.905  19.319  0.00  0.00    +0.000 C 
ATOM     12  C   UNL     1       8.137  16.256  20.238  0.00  0.00    +0.000 C 
ENDBRANCH  10  12
ENDBRANCH   9  10
ENDBRANCH   8   9
ENDBRANCH   7   8
ENDBRANCH   6   7
ENDBRANCH   5   6
ENDBRANCH   4   5
ENDBRANCH   3   4
ENDBRANCH   2   3
ENDBRANCH   1   2
BRANCH   1  13
ATOM     13  C   UNL     1       7.829   7.212  18.391  0.00  0.00    +0.000 C 
BRANCH  13  14
ATOM     14  C   UNL     1       7.312   6.295  17.294  0.00  0.00    +0.000 C 
ATOM     15  O   UNL     1       7.645   6.469  16.118  0.00  0.00    +0.000 OA
ATOM     16  N   UNL     1       6.457   5.254  17.697  0.00  0.00    +0.000 N 
ATOM     17  C   UNL     1       6.067   4.286  16.678  0.00  0.00    +0.000 C 
ATOM     18  C   UNL     1       4.556   4.106  16.564  0.00  0.00    +0.000 C 
ATOM     19  C   UNL     1       3.994   3.291  17.722  0.00  0.00    +0.000 C 
ATOM     20  N   UNL     1       3.551   4.135  18.929  0.00  0.00    +0.000 N 
ATOM     21  C   UNL     1       3.431   3.203  20.147  0.00  0.00    +0.000 C 
ATOM     22  C   UNL     1       2.148   4.708  18.660  0.00  0.00    +0.000 C 
ATOM     23  C   UNL     1       4.496   5.313  19.277  0.00  0.00    +0.000 C 
ATOM     24  C   UNL     1       5.998   5.006  19.085  0.00  0.00    +0.000 C 
ENDBRANCH  13  14
ENDBRANCH   1  13
TORSDOF 12
ENDMDL
MODEL 5
REMARK VINA RESULT:      -6.1      1.546      2.416
REMARK  Name = 
REMARK  15 active torsions:
REMARK  status: ('A' for Active; 'I' for Inactive)
REMARK    1  A    between atoms: C_1  and  C_2
REMARK    2  A    between atoms: C_2  and  C_3
REMARK    3  A    between atoms: C_3  and  C_4
REMARK    4  A    between atoms: C_4  and  C_5
REMARK    5  A    between atoms: C_5  and  C_6
REMARK    6  A    between atoms: C_6  and  C_7
REMARK    7  A    between atoms: C_7  and  C_8
REMARK    8  A    between atoms: C_8  and  C_9
REMARK    9  A    between atoms: C_9  and  C_10
REMARK   10  A    between atoms: C_10  and  C_11
REMARK   11  A    between atoms: C_11  and  C_12
REMARK   12  A    between atoms: C_12  and  C_13
REMARK   13  A    between atoms: C_13  and  C_14
REMARK   14  A    between atoms: N_20  and  C_21
REMARK   15  A    between atoms: N_20  and  C_22
REMARK                            x       y       z     vdW  Elec       q    Type
REMARK                         _______ _______ _______ _____ _____    ______ ____
ROOT
ATOM      1  C   UNL     1       8.076   8.040  18.058  0.00  0.00    +0.000 C 
ENDROOT
BRANCH   1   2
ATOM      2  C   UNL     1       8.407   9.524  17.959  0.00  0.00    +0.000 C 
BRANCH   2   3
ATOM      3  C   UNL     1       9.225   9.961  19.170  0.00  0.00    +0.000 C 
BRANCH   3   4
ATOM      4  C   UNL     1       9.758  11.378  18.991  0.00  0.00    +0.000 C 
BRANCH   4   5
ATOM      5  C   UNL     1      11.132  11.521  19.640  0.00  0.00    +0.000 C 
BRANCH   5   6
ATOM      6  C   UNL     1      12.043  12.400  18.789  0.00  0.00    +0.000 C 
BRANCH   6   7
ATOM      7  C   UNL     1      11.332  12.845  17.515  0.00  0.00    +0.000 C 
BRANCH   7   8
ATOM      8  C   UNL     1      11.223  14.366  17.460  0.00  0.00    +0.000 C 
BRANCH   8   9
ATOM      9  C   UNL     1      11.053  14.954  18.857  0.00  0.00    +0.000 C 
BRANCH   9  10
ATOM     10  C   UNL     1       9.584  15.250  19.147  0.00  0.00    +0.000 C 
BRANCH  10  12
ATOM     11  C   UNL     1       7.595  14.286  17.951  0.00  0.00    +0.000 C 
ATOM     12  C   UNL     1       8.758  15.260  17.864  0.00  0.00    +0.000 C 
ENDBRANCH  10  12
ENDBRANCH   9  10
ENDBRANCH   8   9
ENDBRANCH   7   8
ENDBRANCH   6   7
ENDBRANCH   5   6
ENDBRANCH   4   5
ENDBRANCH   3   4
ENDBRANCH   2   3
ENDBRANCH   1   2
BRANCH   1  13
ATOM     13  C   UNL     1       6.724   7.721  17.426  0.00  0.00    +0.000 C 
BRANCH  13  14
ATOM     14  C   UNL     1       6.677   6.288  16.921  0.00  0.00    +0.000 C 
ATOM     15  O   UNL     1       7.340   5.943  15.938  0.00  0.00    +0.000 OA
ATOM     16  N   UNL     1       5.856   5.398  17.636  0.00  0.00    +0.000 N 
ATOM     17  C   UNL     1       5.909   3.993  17.248  0.00  0.00    +0.000 C 
ATOM     18  C   UNL     1       4.537   3.400  16.939  0.00  0.00    +0.000 C 
ATOM     19  C   UNL     1       3.733   3.142  18.206  0.00  0.00    +0.000 C 
ATOM     20  N   UNL     1       2.847   4.323  18.641  0.00  0.00    +0.000 N 
ATOM     21  C   UNL     1       2.454   4.110  20.112  0.00  0.00    +0.000 C 
ATOM     22  C   UNL     1       1.546   4.309  17.819  0.00  0.00    +0.000 C 
ATOM     23  C   UNL     1       3.505   5.717  18.483  0.00  0.00    +0.000 C 
ATOM     24  C   UNL     1       5.015   5.752  18.805  0.00  0.00    +0.000 C 
ENDBRANCH  13  14
ENDBRANCH   1  13
TORSDOF 12
ENDMDL
MODEL 6
REMARK VINA RESULT:      -6.1      4.045     10.699
REMARK  Name = 
REMARK  15 active torsions:
REMARK  status: ('A' for Active; 'I' for Inactive)
REMARK    1  A    between atoms: C_1  and  C_2
REMARK    2  A    between atoms: C_2  and  C_3
REMARK    3  A    between atoms: C_3  and  C_4
REMARK    4  A    between atoms: C_4  and  C_5
REMARK    5  A    between atoms: C_5  and  C_6
REMARK    6  A    between atoms: C_6  and  C_7
REMARK    7  A    between atoms: C_7  and  C_8
REMARK    8  A    between atoms: C_8  and  C_9
REMARK    9  A    between atoms: C_9  and  C_10
REMARK   10  A    between atoms: C_10  and  C_11
REMARK   11  A    between atoms: C_11  and  C_12
REMARK   12  A    between atoms: C_12  and  C_13
REMARK   13  A    between atoms: C_13  and  C_14
REMARK   14  A    between atoms: N_20  and  C_21
REMARK   15  A    between atoms: N_20  and  C_22
REMARK                            x       y       z     vdW  Elec       q    Type
REMARK                         _______ _______ _______ _____ _____    ______ ____
ROOT
ATOM      1  C   UNL     1       8.636   8.898  18.185  0.00  0.00    +0.000 C 
ENDROOT
BRANCH   1   2
ATOM      2  C   UNL     1       7.361   8.321  17.580  0.00  0.00    +0.000 C 
BRANCH   2   3
ATOM      3  C   UNL     1       7.378   6.798  17.675  0.00  0.00    +0.000 C 
BRANCH   3   4
ATOM      4  C   UNL     1       6.430   6.174  16.658  0.00  0.00    +0.000 C 
BRANCH   4   5
ATOM      5  C   UNL     1       6.065   4.750  17.067  0.00  0.00    +0.000 C 
BRANCH   5   6
ATOM      6  C   UNL     1       4.622   4.432  16.691  0.00  0.00    +0.000 C 
BRANCH   6   7
ATOM      7  C   UNL     1       3.648   5.253  17.530  0.00  0.00    +0.000 C 
BRANCH   7   8
ATOM      8  C   UNL     1       2.954   4.374  18.567  0.00  0.00    +0.000 C 
BRANCH   8   9
ATOM      9  C   UNL     1       2.839   5.094  19.907  0.00  0.00    +0.000 C 
BRANCH   9  10
ATOM     10  C   UNL     1       1.449   4.900  20.510  0.00  0.00    +0.000 C 
BRANCH  10  12
ATOM     11  C   UNL     1       1.709   2.681  21.661  0.00  0.00    +0.000 C 
ATOM     12  C   UNL     1       1.049   3.427  20.513  0.00  0.00    +0.000 C 
ENDBRANCH  10  12
ENDBRANCH   9  10
ENDBRANCH   8   9
ENDBRANCH   7   8
ENDBRANCH   6   7
ENDBRANCH   5   6
ENDBRANCH   4   5
ENDBRANCH   3   4
ENDBRANCH   2   3
ENDBRANCH   1   2
BRANCH   1  13
ATOM     13  C   UNL     1       8.626  10.424  18.168  0.00  0.00    +0.000 C 
BRANCH  13  14
ATOM     14  C   UNL     1       9.338  10.992  19.384  0.00  0.00    +0.000 C 
ATOM     15  O   UNL     1       9.130  10.530  20.511  0.00  0.00    +0.000 OA
ATOM     16  N   UNL     1      10.238  12.047  19.148  0.00  0.00    +0.000 N 
ATOM     17  C   UNL     1      11.030  12.508  20.284  0.00  0.00    +0.000 C 
ATOM     18  C   UNL     1      10.923  14.011  20.524  0.00  0.00    +0.000 C 
ATOM     19  C   UNL     1      11.717  14.806  19.496  0.00  0.00    +0.000 C 
ATOM     20  N   UNL     1      10.911  15.202  18.247  0.00  0.00    +0.000 N 
ATOM     21  C   UNL     1      11.904  15.590  17.139  0.00  0.00    +0.000 C 
ATOM     22  C   UNL     1      10.073  16.454  18.560  0.00  0.00    +0.000 C 
ATOM     23  C   UNL     1       9.957  14.101  17.717  0.00  0.00    +0.000 C 
ATOM     24  C   UNL     1      10.513  12.665  17.829  0.00  0.00    +0.000 C 
ENDBRANCH  13  14
ENDBRANCH   1  13
TORSDOF 12
ENDMDL
MODEL 7
REMARK VINA RESULT:      -6.0      4.563     11.075
REMARK  Name = 
REMARK  15 active torsions:
REMARK  status: ('A' for Active; 'I' for Inactive)
REMARK    1  A    between atoms: C_1  and  C_2
REMARK    2  A    between atoms: C_2  and  C_3
REMARK    3  A    between atoms: C_3  and  C_4
REMARK    4  A    between atoms: C_4  and  C_5
REMARK    5  A    between atoms: C_5  and  C_6
REMARK    6  A    between atoms: C_6  and  C_7
REMARK    7  A    between atoms: C_7  and  C_8
REMARK    8  A    between atoms: C_8  and  C_9
REMARK    9  A    between atoms: C_9  and  C_10
REMARK   10  A    between atoms: C_10  and  C_11
REMARK   11  A    between atoms: C_11  and  C_12
REMARK   12  A    between atoms: C_12  and  C_13
REMARK   13  A    between atoms: C_13  and  C_14
REMARK   14  A    between atoms: N_20  and  C_21
REMARK   15  A    between atoms: N_20  and  C_22
REMARK                            x       y       z     vdW  Elec       q    Type
REMARK                         _______ _______ _______ _____ _____    ______ ____
ROOT
ATOM      1  C   UNL     1       8.246   9.021  18.552  0.00  0.00    +0.000 C 
ENDROOT
BRANCH   1   2
ATOM      2  C   UNL     1       7.852   8.236  17.306  0.00  0.00    +0.000 C 
BRANCH   2   3
ATOM      3  C   UNL     1       7.730   6.752  17.638  0.00  0.00    +0.000 C 
BRANCH   3   4
ATOM      4  C   UNL     1       6.281   6.369  17.917  0.00  0.00    +0.000 C 
BRANCH   4   5
ATOM      5  C   UNL     1       5.498   6.244  16.613  0.00  0.00    +0.000 C 
BRANCH   5   6
ATOM      6  C   UNL     1       4.569   5.035  16.654  0.00  0.00    +0.000 C 
BRANCH   6   7
ATOM      7  C   UNL     1       5.277   3.788  16.133  0.00  0.00    +0.000 C 
BRANCH   7   8
ATOM      8  C   UNL     1       6.150   4.127  14.927  0.00  0.00    +0.000 C 
BRANCH   8   9
ATOM      9  C   UNL     1       5.388   3.916  13.623  0.00  0.00    +0.000 C 
BRANCH   9  10
ATOM     10  C   UNL     1       6.336   3.501  12.500  0.00  0.00    +0.000 C 
BRANCH  10  12
ATOM     11  C   UNL     1       6.776   1.468  11.089  0.00  0.00    +0.000 C 
ATOM     12  C   UNL     1       5.715   2.416  11.625  0.00  0.00    +0.000 C 
ENDBRANCH  10  12
ENDBRANCH   9  10
ENDBRANCH   8   9
ENDBRANCH   7   8
ENDBRANCH   6   7
ENDBRANCH   5   6
ENDBRANCH   4   5
ENDBRANCH   3   4
ENDBRANCH   2   3
ENDBRANCH   1   2
BRANCH   1  13
ATOM     13  C   UNL     1       9.131  10.216  18.208  0.00  0.00    +0.000 C 
BRANCH  13  14
ATOM     14  C   UNL     1       9.633  10.908  19.465  0.00  0.00    +0.000 C 
ATOM     15  O   UNL     1       9.294  10.510  20.583  0.00  0.00    +0.000 OA
ATOM     16  N   UNL     1      10.497  12.002  19.276  0.00  0.00    +0.000 N 
ATOM     17  C   UNL     1      11.094  12.587  20.471  0.00  0.00    +0.000 C 
ATOM     18  C   UNL     1      10.872  14.093  20.582  0.00  0.00    +0.000 C 
ATOM     19  C   UNL     1      11.757  14.869  19.616  0.00  0.00    +0.000 C 
ATOM     20  N   UNL     1      11.114  15.128  18.242  0.00  0.00    +0.000 N 
ATOM     21  C   UNL     1      12.230  15.506  17.254  0.00  0.00    +0.000 C 
ATOM     22  C   UNL     1      10.172  16.341  18.344  0.00  0.00    +0.000 C 
ATOM     23  C   UNL     1      10.306  13.934  17.671  0.00  0.00    +0.000 C 
ATOM     24  C   UNL     1      10.920  12.548  17.964  0.00  0.00    +0.000 C 
ENDBRANCH  13  14
ENDBRANCH   1  13
TORSDOF 12
ENDMDL
MODEL 8
REMARK VINA RESULT:      -6.0      5.648      9.159
REMARK  Name = 
REMARK  15 active torsions:
REMARK  status: ('A' for Active; 'I' for Inactive)
REMARK    1  A    between atoms: C_1  and  C_2
REMARK    2  A    between atoms: C_2  and  C_3
REMARK    3  A    between atoms: C_3  and  C_4
REMARK    4  A    between atoms: C_4  and  C_5
REMARK    5  A    between atoms: C_5  and  C_6
REMARK    6  A    between atoms: C_6  and  C_7
REMARK    7  A    between atoms: C_7  and  C_8
REMARK    8  A    between atoms: C_8  and  C_9
REMARK    9  A    between atoms: C_9  and  C_10
REMARK   10  A    between atoms: C_10  and  C_11
REMARK   11  A    between atoms: C_11  and  C_12
REMARK   12  A    between atoms: C_12  and  C_13
REMARK   13  A    between atoms: C_13  and  C_14
REMARK   14  A    between atoms: N_20  and  C_21
REMARK   15  A    between atoms: N_20  and  C_22
REMARK                            x       y       z     vdW  Elec       q    Type
REMARK                         _______ _______ _______ _____ _____    ______ ____
ROOT
ATOM      1  C   UNL     1       3.478   7.838  17.889  0.00  0.00    +0.000 C 
ENDROOT
BRANCH   1   2
ATOM      2  C   UNL     1       3.994   6.410  18.012  0.00  0.00    +0.000 C 
BRANCH   2   3
ATOM      3  C   UNL     1       4.780   6.026  16.762  0.00  0.00    +0.000 C 
BRANCH   3   4
ATOM      4  C   UNL     1       4.525   4.574  16.376  0.00  0.00    +0.000 C 
BRANCH   4   5
ATOM      5  C   UNL     1       4.911   3.639  17.519  0.00  0.00    +0.000 C 
BRANCH   5   6
ATOM      6  C   UNL     1       3.691   2.883  18.034  0.00  0.00    +0.000 C 
BRANCH   6   7
ATOM      7  C   UNL     1       2.488   3.109  17.123  0.00  0.00    +0.000 C 
BRANCH   7   8
ATOM      8  C   UNL     1       1.373   3.834  17.870  0.00  0.00    +0.000 C 
BRANCH   8   9
ATOM      9  C   UNL     1       0.989   3.086  19.143  0.00  0.00    +0.000 C 
BRANCH   9  10
ATOM     10  C   UNL     1       0.857   4.049  20.321  0.00  0.00    +0.000 C 
BRANCH  10  12
ATOM     11  C   UNL     1       2.462   2.775  21.776  0.00  0.00    +0.000 C 
ATOM     12  C   UNL     1       2.150   4.115  21.128  0.00  0.00    +0.000 C 
ENDBRANCH  10  12
ENDBRANCH   9  10
ENDBRANCH   8   9
ENDBRANCH   7   8
ENDBRANCH   6   7
ENDBRANCH   5   6
ENDBRANCH   4   5
ENDBRANCH   3   4
ENDBRANCH   2   3
ENDBRANCH   1   2
BRANCH   1  13
ATOM     13  C   UNL     1       1.968   7.910  18.096  0.00  0.00    +0.000 C 
BRANCH  13  14
ATOM     14  C   UNL     1       1.627   8.315  19.522  0.00  0.00    +0.000 C 
ATOM     15  O   UNL     1       1.722   7.504  20.448  0.00  0.00    +0.000 OA
ATOM     16  N   UNL     1       1.216   9.647  19.715  0.00  0.00    +0.000 N 
ATOM     17  C   UNL     1       1.021  10.085  21.092  0.00  0.00    +0.000 C 
ATOM     18  C   UNL     1      -0.353  10.702  21.340  0.00  0.00    +0.000 C 
ATOM     19  C   UNL     1      -0.458  12.104  20.753  0.00  0.00    +0.000 C 
ATOM     20  N   UNL     1      -0.978  12.143  19.306  0.00  0.00    +0.000 N 
ATOM     21  C   UNL     1      -0.624  13.515  18.707  0.00  0.00    +0.000 C 
ATOM     22  C   UNL     1      -2.514  12.039  19.316  0.00  0.00    +0.000 C 
ATOM     23  C   UNL     1      -0.423  11.024  18.388  0.00  0.00    +0.000 C 
ATOM     24  C   UNL     1       1.056  10.661  18.646  0.00  0.00    +0.000 C 
ENDBRANCH  13  14
ENDBRANCH   1  13
TORSDOF 12
ENDMDL
MODEL 9
REMARK VINA RESULT:      -6.0      4.167      8.181
REMARK  Name = 
REMARK  15 active torsions:
REMARK  status: ('A' for Active; 'I' for Inactive)
REMARK    1  A    between atoms: C_1  and  C_2
REMARK    2  A    between atoms: C_2  and  C_3
REMARK    3  A    between atoms: C_3  and  C_4
REMARK    4  A    between atoms: C_4  and  C_5
REMARK    5  A    between atoms: C_5  and  C_6
REMARK    6  A    between atoms: C_6  and  C_7
REMARK    7  A    between atoms: C_7  and  C_8
REMARK    8  A    between atoms: C_8  and  C_9
REMARK    9  A    between atoms: C_9  and  C_10
REMARK   10  A    between atoms: C_10  and  C_11
REMARK   11  A    between atoms: C_11  and  C_12
REMARK   12  A    between atoms: C_12  and  C_13
REMARK   13  A    between atoms: C_13  and  C_14
REMARK   14  A    between atoms: N_20  and  C_21
REMARK   15  A    between atoms: N_20  and  C_22
REMARK                            x       y       z     vdW  Elec       q    Type
REMARK                         _______ _______ _______ _____ _____    ______ ____
ROOT
ATOM      1  C   UNL     1       2.154   5.593  20.296  0.00  0.00    +0.000 C 
ENDROOT
BRANCH   1   2
ATOM      2  C   UNL     1       0.957   4.661  20.447  0.00  0.00    +0.000 C 
BRANCH   2   3
ATOM      3  C   UNL     1       1.247   3.322  19.777  0.00  0.00    +0.000 C 
BRANCH   3   4
ATOM      4  C   UNL     1       1.489   3.496  18.283  0.00  0.00    +0.000 C 
BRANCH   4   5
ATOM      5  C   UNL     1       2.549   2.513  17.793  0.00  0.00    +0.000 C 
BRANCH   5   6
ATOM      6  C   UNL     1       3.511   3.195  16.825  0.00  0.00    +0.000 C 
BRANCH   6   7
ATOM      7  C   UNL     1       4.094   4.463  17.441  0.00  0.00    +0.000 C 
BRANCH   7   8
ATOM      8  C   UNL     1       5.078   4.119  18.556  0.00  0.00    +0.000 C 
BRANCH   8   9
ATOM      9  C   UNL     1       5.948   5.321  18.909  0.00  0.00    +0.000 C 
BRANCH   9  10
ATOM     10  C   UNL     1       5.926   6.357  17.787  0.00  0.00    +0.000 C 
BRANCH  10  12
ATOM     11  C   UNL     1       7.842   7.980  17.693  0.00  0.00    +0.000 C 
ATOM     12  C   UNL     1       7.330   6.619  17.251  0.00  0.00    +0.000 C 
ENDBRANCH  10  12
ENDBRANCH   9  10
ENDBRANCH   8   9
ENDBRANCH   7   8
ENDBRANCH   6   7
ENDBRANCH   5   6
ENDBRANCH   4   5
ENDBRANCH   3   4
ENDBRANCH   2   3
ENDBRANCH   1   2
BRANCH   1  13
ATOM     13  C   UNL     1       1.775   7.045  20.570  0.00  0.00    +0.000 C 
BRANCH  13  14
ATOM     14  C   UNL     1       2.017   7.916  19.348  0.00  0.00    +0.000 C 
ATOM     15  O   UNL     1       2.801   7.559  18.464  0.00  0.00    +0.000 OA
ATOM     16  N   UNL     1       1.299   9.125  19.286  0.00  0.00    +0.000 N 
ATOM     17  C   UNL     1       1.416   9.902  18.058  0.00  0.00    +0.000 C 
ATOM     18  C   UNL     1       1.835  11.350  18.297  0.00  0.00    +0.000 C 
ATOM     19  C   UNL     1       0.691  12.185  18.856  0.00  0.00    +0.000 C 
ATOM     20  N   UNL     1       0.624  12.213  20.393  0.00  0.00    +0.000 N 
ATOM     21  C   UNL     1      -0.778  12.696  20.803  0.00  0.00    +0.000 C 
ATOM     22  C   UNL     1       1.631  13.247  20.926  0.00  0.00    +0.000 C 
ATOM     23  C   UNL     1       0.918  10.854  21.078  0.00  0.00    +0.000 C 
ATOM     24  C   UNL     1       0.365   9.625  20.324  0.00  0.00    +0.000 C 
ENDBRANCH  13  14
ENDBRANCH   1  13
TORSDOF 12
ENDMDL
