MODEL 1
REMARK VINA RESULT:      -7.8      0.000      0.000
REMARK  Name = 
REMARK  13 active torsions:
REMARK  status: ('A' for Active; 'I' for Inactive)
REMARK    1  A    between atoms: C_1  and  C_2
REMARK    2  A    between atoms: C_5  and  S_6
REMARK    3  A    between atoms: S_6  and  N_9
REMARK    4  A    between atoms: N_9  and  C_10
REMARK    5  A    between atoms: C_10  and  C_11
REMARK    6  A    between atoms: C_10  and  C_26
REMARK    7  A    between atoms: C_11  and  O_13
REMARK    8  A    between atoms: O_13  and  C_14
REMARK    9  A    between atoms: C_14  and  C_15
REMARK   10  A    between atoms: C_18  and  C_20
REMARK   11  A    between atoms: N_24  and  C_25
REMARK   12  A    between atoms: C_26  and  C_27
REMARK   13  A    between atoms: C_26  and  C_28
REMARK                            x       y       z     vdW  Elec       q    Type
REMARK                         _______ _______ _______ _____ _____    ______ ____
ROOT
ATOM      1  C   UNL     1       6.279   4.377  16.614  0.00  0.00    +0.000 C 
ENDROOT
BRANCH   1   2
ATOM      2  C   UNL     1       6.268   4.842  15.126  0.00  0.00    +0.000 C 
ATOM      3  C   UNL     1       5.963   3.756  14.080  0.00  0.00    +0.000 C 
ATOM      4  C   UNL     1       5.330   6.033  14.922  0.00  0.00    +0.000 C 
ENDBRANCH   1   2
BRANCH   1   5
ATOM      5  N   UNL     1       5.016   4.847  17.239  0.00  0.00    +0.000 NA
ATOM      6  H   UNL     1       4.924   5.842  17.438  0.00  0.00    +0.000 HD
BRANCH   5   7
ATOM      7  S   UNL     1       4.238   3.955  18.421  0.00  0.00    +0.000 S 
ATOM      8  O   UNL     1       5.295   3.461  19.277  0.00  0.00    +0.000 OA
ATOM      9  O   UNL     1       3.302   3.064  17.789  0.00  0.00    +0.000 OA
BRANCH   7  14
ATOM     10  C   UNL     1       0.513   7.872  21.118  0.00  0.00    +0.000 C 
ATOM     11  C   UNL     1       1.556   6.954  20.545  0.00  0.00    +0.000 A 
ATOM     12  C   UNL     1       2.386   7.376  19.499  0.00  0.00    +0.000 A 
ATOM     13  C   UNL     1       3.266   6.479  18.890  0.00  0.00    +0.000 A 
ATOM     14  C   UNL     1       3.321   5.158  19.342  0.00  0.00    +0.000 A 
ATOM     15  C   UNL     1       2.515   4.732  20.399  0.00  0.00    +0.000 A 
ATOM     16  C   UNL     1       1.636   5.631  21.001  0.00  0.00    +0.000 A 
ENDBRANCH   7  14
ENDBRANCH   5   7
ENDBRANCH   1   5
BRANCH   1  17
ATOM     17  C   UNL     1       7.571   4.743  17.362  0.00  0.00    +0.000 C 
ATOM     18  O   UNL     1       8.221   3.985  18.068  0.00  0.00    +0.000 OA
BRANCH  17  19
ATOM     19  O   UNL     1       7.862   6.059  17.199  0.00  0.00    +0.000 OA
BRANCH  19  20
ATOM     20  C   UNL     1       8.022   6.850  18.374  0.00  0.00    +0.000 C 
BRANCH  20  21
ATOM     21  C   UNL     1       7.861   8.289  17.914  0.00  0.00    +0.000 C 
ATOM     22  O   UNL     1       7.034   8.582  17.061  0.00  0.00    +0.000 OA
ATOM     23  N   UNL     1       8.675   9.160  18.611  0.00  0.00    +0.000 N 
ATOM     24  C   UNL     1       8.723  10.523  18.418  0.00  0.00    +0.000 C 
ATOM     25  O   UNL     1       8.193  11.091  17.466  0.00  0.00    +0.000 OA
ATOM     26  H   UNL     1       9.088   8.814  19.466  0.00  0.00    +0.000 HD
BRANCH  24  27
ATOM     27  C   UNL     1       9.552  11.239  19.387  0.00  0.00    +0.000 A 
ATOM     28  C   UNL     1       9.322  11.532  20.729  0.00  0.00    +0.000 A 
ATOM     29  C   UNL     1      10.433  12.245  21.238  0.00  0.00    +0.000 A 
ATOM     30  C   UNL     1      11.334  12.364  20.211  0.00  0.00    +0.000 A 
ATOM     31  N   UNL     1      10.789  11.788  19.092  0.00  0.00    +0.000 N 
ATOM     32  C   UNL     1      11.441  11.751  17.799  0.00  0.00    +0.000 C 
ENDBRANCH  24  27
ENDBRANCH  20  21
ENDBRANCH  19  20
ENDBRANCH  17  19
ENDBRANCH   1  17
TORSDOF 9
ENDMDL
MODEL 2
REMARK VINA RESULT:      -7.8      1.448      2.020
REMARK  Name = 
REMARK  13 active torsions:
REMARK  status: ('A' for Active; 'I' for Inactive)
REMARK    1  A    between atoms: C_1  and  C_2
REMARK    2  A    between atoms: C_5  and  S_6
REMARK    3  A    between atoms: S_6  and  N_9
REMARK    4  A    between atoms: N_9  and  C_10
REMARK    5  A    between atoms: C_10  and  C_11
REMARK    6  A    between atoms: C_10  and  C_26
REMARK    7  A    between atoms: C_11  and  O_13
REMARK    8  A    between atoms: O_13  and  C_14
REMARK    9  A    between atoms: C_14  and  C_15
REMARK   10  A    between atoms: C_18  and  C_20
REMARK   11  A    between atoms: N_24  and  C_25
REMARK   12  A    between atoms: C_26  and  C_27
REMARK   13  A    between atoms: C_26  and  C_28
REMARK                            x       y       z     vdW  Elec       q    Type
REMARK                         _______ _______ _______ _____ _____    ______ ____
ROOT
ATOM      1  C   UNL     1       5.798   5.104  17.345  0.00  0.00    +0.000 C 
ENDROOT
BRANCH   1   2
ATOM      2  C   UNL     1       5.479   5.027  15.821  0.00  0.00    +0.000 C 
ATOM      3  C   UNL     1       5.255   6.372  15.108  0.00  0.00    +0.000 C 
ATOM      4  C   UNL     1       6.535   4.215  15.070  0.00  0.00    +0.000 C 
ENDBRANCH   1   2
BRANCH   1   5
ATOM      5  N   UNL     1       4.915   6.141  17.935  0.00  0.00    +0.000 NA
ATOM      6  H   UNL     1       5.353   6.897  18.462  0.00  0.00    +0.000 HD
BRANCH   5   7
ATOM      7  S   UNL     1       3.440   5.751  18.621  0.00  0.00    +0.000 S 
ATOM      8  O   UNL     1       3.761   5.214  19.925  0.00  0.00    +0.000 OA
ATOM      9  O   UNL     1       2.670   5.000  17.665  0.00  0.00    +0.000 OA
BRANCH   7  14
ATOM     10  C   UNL     1       0.081  10.732  19.250  0.00  0.00    +0.000 C 
ATOM     11  C   UNL     1       1.045   9.585  19.132  0.00  0.00    +0.000 A 
ATOM     12  C   UNL     1       1.723   9.339  17.932  0.00  0.00    +0.000 A 
ATOM     13  C   UNL     1       2.520   8.201  17.791  0.00  0.00    +0.000 A 
ATOM     14  C   UNL     1       2.645   7.314  18.865  0.00  0.00    +0.000 A 
ATOM     15  C   UNL     1       1.991   7.561  20.074  0.00  0.00    +0.000 A 
ATOM     16  C   UNL     1       1.194   8.697  20.206  0.00  0.00    +0.000 A 
ENDBRANCH   7  14
ENDBRANCH   5   7
ENDBRANCH   1   5
BRANCH   1  17
ATOM     17  C   UNL     1       7.298   5.249  17.651  0.00  0.00    +0.000 C 
ATOM     18  O   UNL     1       8.008   4.384  18.144  0.00  0.00    +0.000 OA
BRANCH  17  19
ATOM     19  O   UNL     1       7.724   6.508  17.370  0.00  0.00    +0.000 OA
BRANCH  19  20
ATOM     20  C   UNL     1       8.203   7.299  18.456  0.00  0.00    +0.000 C 
BRANCH  20  21
ATOM     21  C   UNL     1       8.008   8.740  18.018  0.00  0.00    +0.000 C 
ATOM     22  O   UNL     1       7.012   9.070  17.388  0.00  0.00    +0.000 OA
ATOM     23  N   UNL     1       9.011   9.570  18.475  0.00  0.00    +0.000 N 
ATOM     24  C   UNL     1       9.079  10.928  18.248  0.00  0.00    +0.000 C 
ATOM     25  O   UNL     1       8.362  11.516  17.442  0.00  0.00    +0.000 OA
ATOM     26  H   UNL     1       9.604   9.210  19.210  0.00  0.00    +0.000 HD
BRANCH  24  27
ATOM     27  C   UNL     1      10.157  11.605  18.968  0.00  0.00    +0.000 A 
ATOM     28  C   UNL     1      11.529  11.370  18.966  0.00  0.00    +0.000 A 
ATOM     29  C   UNL     1      12.154  12.301  19.829  0.00  0.00    +0.000 A 
ATOM     30  C   UNL     1      11.162  13.103  20.334  0.00  0.00    +0.000 A 
ATOM     31  N   UNL     1       9.960  12.662  19.841  0.00  0.00    +0.000 N 
ATOM     32  C   UNL     1       8.679  13.248  20.181  0.00  0.00    +0.000 C 
ENDBRANCH  24  27
ENDBRANCH  20  21
ENDBRANCH  19  20
ENDBRANCH  17  19
ENDBRANCH   1  17
TORSDOF 9
ENDMDL
MODEL 3
REMARK VINA RESULT:      -7.4      4.432      8.256
REMARK  Name = 
REMARK  13 active torsions:
REMARK  status: ('A' for Active; 'I' for Inactive)
REMARK    1  A    between atoms: C_1  and  C_2
REMARK    2  A    between atoms: C_5  and  S_6
REMARK    3  A    between atoms: S_6  and  N_9
REMARK    4  A    between atoms: N_9  and  C_10
REMARK    5  A    between atoms: C_10  and  C_11
REMARK    6  A    between atoms: C_10  and  C_26
REMARK    7  A    between atoms: C_11  and  O_13
REMARK    8  A    between atoms: O_13  and  C_14
REMARK    9  A    between atoms: C_14  and  C_15
REMARK   10  A    between atoms: C_18  and  C_20
REMARK   11  A    between atoms: N_24  and  C_25
REMARK   12  A    between atoms: C_26  and  C_27
REMARK   13  A    between atoms: C_26  and  C_28
REMARK                            x       y       z     vdW  Elec       q    Type
REMARK                         _______ _______ _______ _____ _____    ______ ____
ROOT
ATOM      1  C   UNL     1       3.084   5.933  18.603  0.00  0.00    +0.000 C 
ENDROOT
BRANCH   1   2
ATOM      2  C   UNL     1       1.874   4.971  18.801  0.00  0.00    +0.000 C 
ATOM      3  C   UNL     1       1.803   3.766  17.848  0.00  0.00    +0.000 C 
ATOM      4  C   UNL     1       1.777   4.488  20.249  0.00  0.00    +0.000 C 
ENDBRANCH   1   2
BRANCH   1   5
ATOM      5  N   UNL     1       4.094   5.601  19.640  0.00  0.00    +0.000 NA
ATOM      6  H   UNL     1       4.355   6.330  20.302  0.00  0.00    +0.000 HD
BRANCH   5   7
ATOM      7  S   UNL     1       5.421   4.643  19.295  0.00  0.00    +0.000 S 
ATOM      8  O   UNL     1       4.992   3.290  19.577  0.00  0.00    +0.000 OA
ATOM      9  O   UNL     1       6.581   5.213  19.928  0.00  0.00    +0.000 OA
BRANCH   7  14
ATOM     10  C   UNL     1       6.685   4.651  13.388  0.00  0.00    +0.000 C 
ATOM     11  C   UNL     1       6.255   4.758  14.824  0.00  0.00    +0.000 A 
ATOM     12  C   UNL     1       6.790   5.745  15.661  0.00  0.00    +0.000 A 
ATOM     13  C   UNL     1       6.480   5.761  17.022  0.00  0.00    +0.000 A 
ATOM     14  C   UNL     1       5.621   4.789  17.542  0.00  0.00    +0.000 A 
ATOM     15  C   UNL     1       5.063   3.813  16.713  0.00  0.00    +0.000 A 
ATOM     16  C   UNL     1       5.379   3.801  15.355  0.00  0.00    +0.000 A 
ENDBRANCH   7  14
ENDBRANCH   5   7
ENDBRANCH   1   5
BRANCH   1  17
ATOM     17  C   UNL     1       2.682   7.414  18.512  0.00  0.00    +0.000 C 
ATOM     18  O   UNL     1       2.848   8.135  17.538  0.00  0.00    +0.000 OA
BRANCH  17  19
ATOM     19  O   UNL     1       2.181   7.848  19.697  0.00  0.00    +0.000 OA
BRANCH  19  20
ATOM     20  C   UNL     1       1.243   8.921  19.663  0.00  0.00    +0.000 C 
BRANCH  20  21
ATOM     21  C   UNL     1       0.958   9.251  21.119  0.00  0.00    +0.000 C 
ATOM     22  O   UNL     1       1.685   8.826  22.007  0.00  0.00    +0.000 OA
ATOM     23  N   UNL     1      -0.117  10.105  21.266  0.00  0.00    +0.000 N 
ATOM     24  C   UNL     1      -0.585  10.586  22.469  0.00  0.00    +0.000 C 
ATOM     25  O   UNL     1      -0.224  10.149  23.559  0.00  0.00    +0.000 OA
ATOM     26  H   UNL     1      -0.433  10.588  20.437  0.00  0.00    +0.000 HD
BRANCH  24  27
ATOM     27  C   UNL     1      -1.637  11.594  22.344  0.00  0.00    +0.000 A 
ATOM     28  C   UNL     1      -2.559  12.055  23.281  0.00  0.00    +0.000 A 
ATOM     29  C   UNL     1      -3.370  13.044  22.675  0.00  0.00    +0.000 A 
ATOM     30  C   UNL     1      -2.925  13.188  21.386  0.00  0.00    +0.000 A 
ATOM     31  N   UNL     1      -1.906  12.294  21.180  0.00  0.00    +0.000 N 
ATOM     32  C   UNL     1      -1.208  12.135  19.920  0.00  0.00    +0.000 C 
ENDBRANCH  24  27
ENDBRANCH  20  21
ENDBRANCH  19  20
ENDBRANCH  17  19
ENDBRANCH   1  17
TORSDOF 9
ENDMDL
MODEL 4
REMARK VINA RESULT:      -7.2      1.435      2.049
REMARK  Name = 
REMARK  13 active torsions:
REMARK  status: ('A' for Active; 'I' for Inactive)
REMARK    1  A    between atoms: C_1  and  C_2
REMARK    2  A    between atoms: C_5  and  S_6
REMARK    3  A    between atoms: S_6  and  N_9
REMARK    4  A    between atoms: N_9  and  C_10
REMARK    5  A    between atoms: C_10  and  C_11
REMARK    6  A    between atoms: C_10  and  C_26
REMARK    7  A    between atoms: C_11  and  O_13
REMARK    8  A    between atoms: O_13  and  C_14
REMARK    9  A    between atoms: C_14  and  C_15
REMARK   10  A    between atoms: C_18  and  C_20
REMARK   11  A    between atoms: N_24  and  C_25
REMARK   12  A    between atoms: C_26  and  C_27
REMARK   13  A    between atoms: C_26  and  C_28
REMARK                            x       y       z     vdW  Elec       q    Type
REMARK                         _______ _______ _______ _____ _____    ______ ____
ROOT
ATOM      1  C   UNL     1       5.847   4.783  16.261  0.00  0.00    +0.000 C 
ENDROOT
BRANCH   1   2
ATOM      2  C   UNL     1       6.313   4.100  14.939  0.00  0.00    +0.000 C 
ATOM      3  C   UNL     1       5.223   3.863  13.880  0.00  0.00    +0.000 C 
ATOM      4  C   UNL     1       7.489   4.848  14.310  0.00  0.00    +0.000 C 
ENDBRANCH   1   2
BRANCH   1   5
ATOM      5  N   UNL     1       4.590   4.119  16.688  0.00  0.00    +0.000 NA
ATOM      6  H   UNL     1       3.712   4.465  16.301  0.00  0.00    +0.000 HD
BRANCH   5   7
ATOM      7  S   UNL     1       4.356   3.615  18.266  0.00  0.00    +0.000 S 
ATOM      8  O   UNL     1       5.640   3.789  18.910  0.00  0.00    +0.000 OA
ATOM      9  O   UNL     1       3.686   2.342  18.252  0.00  0.00    +0.000 OA
BRANCH   7  14
ATOM     10  C   UNL     1       1.178   7.983  20.971  0.00  0.00    +0.000 C 
ATOM     11  C   UNL     1       1.828   6.848  20.231  0.00  0.00    +0.000 A 
ATOM     12  C   UNL     1       1.875   5.564  20.786  0.00  0.00    +0.000 A 
ATOM     13  C   UNL     1       2.588   4.545  20.150  0.00  0.00    +0.000 A 
ATOM     14  C   UNL     1       3.247   4.816  18.947  0.00  0.00    +0.000 A 
ATOM     15  C   UNL     1       3.189   6.088  18.373  0.00  0.00    +0.000 A 
ATOM     16  C   UNL     1       2.478   7.101  19.014  0.00  0.00    +0.000 A 
ENDBRANCH   7  14
ENDBRANCH   5   7
ENDBRANCH   1   5
BRANCH   1  17
ATOM     17  C   UNL     1       5.797   6.317  16.174  0.00  0.00    +0.000 C 
ATOM     18  O   UNL     1       5.083   6.962  15.420  0.00  0.00    +0.000 OA
BRANCH  17  19
ATOM     19  O   UNL     1       6.718   6.873  17.003  0.00  0.00    +0.000 OA
BRANCH  19  20
ATOM     20  C   UNL     1       6.926   8.281  16.908  0.00  0.00    +0.000 C 
BRANCH  20  21
ATOM     21  C   UNL     1       7.960   8.606  17.972  0.00  0.00    +0.000 C 
ATOM     22  O   UNL     1       8.428   7.722  18.676  0.00  0.00    +0.000 OA
ATOM     23  N   UNL     1       8.319   9.939  17.967  0.00  0.00    +0.000 N 
ATOM     24  C   UNL     1       9.249  10.509  18.809  0.00  0.00    +0.000 C 
ATOM     25  O   UNL     1       9.715   9.937  19.791  0.00  0.00    +0.000 OA
ATOM     26  H   UNL     1       8.061  10.480  17.154  0.00  0.00    +0.000 HD
BRANCH  24  27
ATOM     27  C   UNL     1       9.563  11.904  18.501  0.00  0.00    +0.000 A 
ATOM     28  C   UNL     1       8.730  12.952  18.118  0.00  0.00    +0.000 A 
ATOM     29  C   UNL     1       9.513  14.117  17.939  0.00  0.00    +0.000 A 
ATOM     30  C   UNL     1      10.809  13.774  18.231  0.00  0.00    +0.000 A 
ATOM     31  N   UNL     1      10.841  12.437  18.537  0.00  0.00    +0.000 N 
ATOM     32  C   UNL     1      12.049  11.709  18.867  0.00  0.00    +0.000 C 
ENDBRANCH  24  27
ENDBRANCH  20  21
ENDBRANCH  19  20
ENDBRANCH  17  19
ENDBRANCH   1  17
TORSDOF 9
ENDMDL
MODEL 5
REMARK VINA RESULT:      -7.1      4.787      8.153
REMARK  Name = 
REMARK  13 active torsions:
REMARK  status: ('A' for Active; 'I' for Inactive)
REMARK    1  A    between atoms: C_1  and  C_2
REMARK    2  A    between atoms: C_5  and  S_6
REMARK    3  A    between atoms: S_6  and  N_9
REMARK    4  A    between atoms: N_9  and  C_10
REMARK    5  A    between atoms: C_10  and  C_11
REMARK    6  A    between atoms: C_10  and  C_26
REMARK    7  A    between atoms: C_11  and  O_13
REMARK    8  A    between atoms: O_13  and  C_14
REMARK    9  A    between atoms: C_14  and  C_15
REMARK   10  A    between atoms: C_18  and  C_20
REMARK   11  A    between atoms: N_24  and  C_25
REMARK   12  A    between atoms: C_26  and  C_27
REMARK   13  A    between atoms: C_26  and  C_28
REMARK                            x       y       z     vdW  Elec       q    Type
REMARK                         _______ _______ _______ _____ _____    ______ ____
ROOT
ATOM      1  C   UNL     1       2.766   4.509  19.523  0.00  0.00    +0.000 C 
ENDROOT
BRANCH   1   2
ATOM      2  C   UNL     1       1.955   3.439  18.733  0.00  0.00    +0.000 C 
ATOM      3  C   UNL     1       1.279   3.921  17.438  0.00  0.00    +0.000 C 
ATOM      4  C   UNL     1       2.803   2.200  18.441  0.00  0.00    +0.000 C 
ENDBRANCH   1   2
BRANCH   1   5
ATOM      5  N   UNL     1       4.199   4.127  19.452  0.00  0.00    +0.000 NA
ATOM      6  H   UNL     1       4.578   3.554  20.206  0.00  0.00    +0.000 HD
BRANCH   5   7
ATOM      7  S   UNL     1       5.366   5.195  18.908  0.00  0.00    +0.000 S 
ATOM      8  O   UNL     1       6.527   4.937  19.731  0.00  0.00    +0.000 OA
ATOM      9  O   UNL     1       4.784   6.507  18.814  0.00  0.00    +0.000 OA
BRANCH   7  14
ATOM     10  C   UNL     1       6.612   4.029  13.113  0.00  0.00    +0.000 C 
ATOM     11  C   UNL     1       6.303   4.158  14.577  0.00  0.00    +0.000 A 
ATOM     12  C   UNL     1       4.982   4.106  15.039  0.00  0.00    +0.000 A 
ATOM     13  C   UNL     1       4.693   4.351  16.383  0.00  0.00    +0.000 A 
ATOM     14  C   UNL     1       5.736   4.637  17.268  0.00  0.00    +0.000 A 
ATOM     15  C   UNL     1       7.060   4.669  16.824  0.00  0.00    +0.000 A 
ATOM     16  C   UNL     1       7.341   4.427  15.480  0.00  0.00    +0.000 A 
ENDBRANCH   7  14
ENDBRANCH   5   7
ENDBRANCH   1   5
BRANCH   1  17
ATOM     17  C   UNL     1       2.215   4.780  20.933  0.00  0.00    +0.000 C 
ATOM     18  O   UNL     1       2.357   4.048  21.902  0.00  0.00    +0.000 OA
BRANCH  17  19
ATOM     19  O   UNL     1       1.473   5.917  20.946  0.00  0.00    +0.000 OA
BRANCH  19  20
ATOM     20  C   UNL     1       2.014   7.065  20.296  0.00  0.00    +0.000 C 
BRANCH  20  21
ATOM     21  C   UNL     1       1.314   8.253  20.933  0.00  0.00    +0.000 C 
ATOM     22  O   UNL     1       1.617   8.625  22.059  0.00  0.00    +0.000 OA
ATOM     23  N   UNL     1       0.409   8.852  20.079  0.00  0.00    +0.000 N 
ATOM     24  C   UNL     1      -0.351   9.959  20.383  0.00  0.00    +0.000 C 
ATOM     25  O   UNL     1      -0.457  10.417  21.519  0.00  0.00    +0.000 OA
ATOM     26  H   UNL     1       0.475   8.610  19.100  0.00  0.00    +0.000 HD
BRANCH  24  27
ATOM     27  C   UNL     1      -1.118  10.491  19.257  0.00  0.00    +0.000 A 
ATOM     28  C   UNL     1      -1.170  10.078  17.928  0.00  0.00    +0.000 A 
ATOM     29  C   UNL     1      -2.069  10.915  17.225  0.00  0.00    +0.000 A 
ATOM     30  C   UNL     1      -2.566  11.816  18.132  0.00  0.00    +0.000 A 
ATOM     31  N   UNL     1      -1.970  11.579  19.344  0.00  0.00    +0.000 N 
ATOM     32  C   UNL     1      -2.225  12.357  20.539  0.00  0.00    +0.000 C 
ENDBRANCH  24  27
ENDBRANCH  20  21
ENDBRANCH  19  20
ENDBRANCH  17  19
ENDBRANCH   1  17
TORSDOF 9
ENDMDL
MODEL 6
REMARK VINA RESULT:      -7.1      4.129      7.052
REMARK  Name = 
REMARK  13 active torsions:
REMARK  status: ('A' for Active; 'I' for Inactive)
REMARK    1  A    between atoms: C_1  and  C_2
REMARK    2  A    between atoms: C_5  and  S_6
REMARK    3  A    between atoms: S_6  and  N_9
REMARK    4  A    between atoms: N_9  and  C_10
REMARK    5  A    between atoms: C_10  and  C_11
REMARK    6  A    between atoms: C_10  and  C_26
REMARK    7  A    between atoms: C_11  and  O_13
REMARK    8  A    between atoms: O_13  and  C_14
REMARK    9  A    between atoms: C_14  and  C_15
REMARK   10  A    between atoms: C_18  and  C_20
REMARK   11  A    between atoms: N_24  and  C_25
REMARK   12  A    between atoms: C_26  and  C_27
REMARK   13  A    between atoms: C_26  and  C_28
REMARK                            x       y       z     vdW  Elec       q    Type
REMARK                         _______ _______ _______ _____ _____    ______ ____
ROOT
ATOM      1  C   UNL     1       2.262   5.142  19.773  0.00  0.00    +0.000 C 
ENDROOT
BRANCH   1   2
ATOM      2  C   UNL     1       1.320   4.086  20.427  0.00  0.00    +0.000 C 
ATOM      3  C   UNL     1       0.772   2.996  19.490  0.00  0.00    +0.000 C 
ATOM      4  C   UNL     1       1.975   3.435  21.646  0.00  0.00    +0.000 C 
ENDBRANCH   1   2
BRANCH   1   5
ATOM      5  N   UNL     1       3.660   4.727  20.049  0.00  0.00    +0.000 NA
ATOM      6  H   UNL     1       4.244   5.356  20.600  0.00  0.00    +0.000 HD
BRANCH   5   7
ATOM      7  S   UNL     1       4.590   3.953  18.894  0.00  0.00    +0.000 S 
ATOM      8  O   UNL     1       3.685   3.688  17.798  0.00  0.00    +0.000 OA
ATOM      9  O   UNL     1       5.334   2.898  19.530  0.00  0.00    +0.000 OA
BRANCH   7  14
ATOM     10  C   UNL     1       8.226   8.608  17.628  0.00  0.00    +0.000 C 
ATOM     11  C   UNL     1       7.387   7.375  17.813  0.00  0.00    +0.000 A 
ATOM     12  C   UNL     1       6.166   7.231  17.142  0.00  0.00    +0.000 A 
ATOM     13  C   UNL     1       5.334   6.143  17.415  0.00  0.00    +0.000 A 
ATOM     14  C   UNL     1       5.736   5.191  18.356  0.00  0.00    +0.000 A 
ATOM     15  C   UNL     1       6.962   5.312  19.015  0.00  0.00    +0.000 A 
ATOM     16  C   UNL     1       7.786   6.403  18.741  0.00  0.00    +0.000 A 
ENDBRANCH   7  14
ENDBRANCH   5   7
ENDBRANCH   1   5
BRANCH   1  17
ATOM     17  C   UNL     1       1.908   6.592  20.144  0.00  0.00    +0.000 C 
ATOM     18  O   UNL     1       1.378   6.947  21.187  0.00  0.00    +0.000 OA
BRANCH  17  19
ATOM     19  O   UNL     1       2.195   7.432  19.116  0.00  0.00    +0.000 OA
BRANCH  19  20
ATOM     20  C   UNL     1       1.141   8.259  18.627  0.00  0.00    +0.000 C 
BRANCH  20  21
ATOM     21  C   UNL     1       1.816   9.541  18.172  0.00  0.00    +0.000 C 
ATOM     22  O   UNL     1       2.583   9.537  17.218  0.00  0.00    +0.000 OA
ATOM     23  N   UNL     1       1.400  10.641  18.895  0.00  0.00    +0.000 N 
ATOM     24  C   UNL     1       1.830  11.933  18.685  0.00  0.00    +0.000 C 
ATOM     25  O   UNL     1       2.783  12.222  17.965  0.00  0.00    +0.000 OA
ATOM     26  H   UNL     1       0.564  10.533  19.452  0.00  0.00    +0.000 HD
BRANCH  24  27
ATOM     27  C   UNL     1       1.125  12.938  19.480  0.00  0.00    +0.000 A 
ATOM     28  C   UNL     1       1.538  13.654  20.601  0.00  0.00    +0.000 A 
ATOM     29  C   UNL     1       0.491  14.515  21.005  0.00  0.00    +0.000 A 
ATOM     30  C   UNL     1      -0.541  14.329  20.121  0.00  0.00    +0.000 A 
ATOM     31  N   UNL     1      -0.170  13.359  19.225  0.00  0.00    +0.000 N 
ATOM     32  C   UNL     1      -1.020  12.872  18.158  0.00  0.00    +0.000 C 
ENDBRANCH  24  27
ENDBRANCH  20  21
ENDBRANCH  19  20
ENDBRANCH  17  19
ENDBRANCH   1  17
TORSDOF 9
ENDMDL
MODEL 7
REMARK VINA RESULT:      -7.1      4.619      7.490
REMARK  Name = 
REMARK  13 active torsions:
REMARK  status: ('A' for Active; 'I' for Inactive)
REMARK    1  A    between atoms: C_1  and  C_2
REMARK    2  A    between atoms: C_5  and  S_6
REMARK    3  A    between atoms: S_6  and  N_9
REMARK    4  A    between atoms: N_9  and  C_10
REMARK    5  A    between atoms: C_10  and  C_11
REMARK    6  A    between atoms: C_10  and  C_26
REMARK    7  A    between atoms: C_11  and  O_13
REMARK    8  A    between atoms: O_13  and  C_14
REMARK    9  A    between atoms: C_14  and  C_15
REMARK   10  A    between atoms: C_18  and  C_20
REMARK   11  A    between atoms: N_24  and  C_25
REMARK   12  A    between atoms: C_26  and  C_27
REMARK   13  A    between atoms: C_26  and  C_28
REMARK                            x       y       z     vdW  Elec       q    Type
REMARK                         _______ _______ _______ _____ _____    ______ ____
ROOT
ATOM      1  C   UNL     1       3.351   4.603  18.879  0.00  0.00    +0.000 C 
ENDROOT
BRANCH   1   2
ATOM      2  C   UNL     1       2.570   3.322  18.455  0.00  0.00    +0.000 C 
ATOM      3  C   UNL     1       1.304   3.002  19.268  0.00  0.00    +0.000 C 
ATOM      4  C   UNL     1       2.234   3.343  16.963  0.00  0.00    +0.000 C 
ENDBRANCH   1   2
BRANCH   1   5
ATOM      5  N   UNL     1       4.776   4.221  19.054  0.00  0.00    +0.000 NA
ATOM      6  H   UNL     1       5.050   3.791  19.937  0.00  0.00    +0.000 HD
BRANCH   5   7
ATOM      7  S   UNL     1       6.018   5.183  18.480  0.00  0.00    +0.000 S 
ATOM      8  O   UNL     1       7.177   4.806  19.259  0.00  0.00    +0.000 OA
ATOM      9  O   UNL     1       5.559   6.546  18.422  0.00  0.00    +0.000 OA
BRANCH   7  14
ATOM     10  C   UNL     1       6.386   3.776  12.617  0.00  0.00    +0.000 C 
ATOM     11  C   UNL     1       6.401   4.005  14.102  0.00  0.00    +0.000 A 
ATOM     12  C   UNL     1       5.545   3.288  14.947  0.00  0.00    +0.000 A 
ATOM     13  C   UNL     1       5.476   3.594  16.308  0.00  0.00    +0.000 A 
ATOM     14  C   UNL     1       6.278   4.617  16.822  0.00  0.00    +0.000 A 
ATOM     15  C   UNL     1       7.151   5.324  15.994  0.00  0.00    +0.000 A 
ATOM     16  C   UNL     1       7.213   5.015  14.635  0.00  0.00    +0.000 A 
ENDBRANCH   7  14
ENDBRANCH   5   7
ENDBRANCH   1   5
BRANCH   1  17
ATOM     17  C   UNL     1       2.710   5.350  20.060  0.00  0.00    +0.000 C 
ATOM     18  O   UNL     1       2.702   4.967  21.221  0.00  0.00    +0.000 OA
BRANCH  17  19
ATOM     19  O   UNL     1       2.074   6.470  19.629  0.00  0.00    +0.000 OA
BRANCH  19  20
ATOM     20  C   UNL     1       2.454   6.996  18.359  0.00  0.00    +0.000 C 
BRANCH  20  21
ATOM     21  C   UNL     1       2.014   8.450  18.381  0.00  0.00    +0.000 C 
ATOM     22  O   UNL     1       2.103   9.143  17.376  0.00  0.00    +0.000 OA
ATOM     23  N   UNL     1       1.466   8.817  19.593  0.00  0.00    +0.000 N 
ATOM     24  C   UNL     1       0.965  10.066  19.889  0.00  0.00    +0.000 C 
ATOM     25  O   UNL     1       1.134  11.050  19.172  0.00  0.00    +0.000 OA
ATOM     26  H   UNL     1       1.204   8.070  20.222  0.00  0.00    +0.000 HD
BRANCH  24  27
ATOM     27  C   UNL     1       0.300  10.156  21.188  0.00  0.00    +0.000 A 
ATOM     28  C   UNL     1       0.539   9.463  22.372  0.00  0.00    +0.000 A 
ATOM     29  C   UNL     1      -0.373   9.912  23.356  0.00  0.00    +0.000 A 
ATOM     30  C   UNL     1      -1.145  10.883  22.770  0.00  0.00    +0.000 A 
ATOM     31  N   UNL     1      -0.760  11.005  21.459  0.00  0.00    +0.000 N 
ATOM     32  C   UNL     1      -1.376  11.914  20.514  0.00  0.00    +0.000 C 
ENDBRANCH  24  27
ENDBRANCH  20  21
ENDBRANCH  19  20
ENDBRANCH  17  19
ENDBRANCH   1  17
TORSDOF 9
ENDMDL
MODEL 8
REMARK VINA RESULT:      -7.1      4.377      7.074
REMARK  Name = 
REMARK  13 active torsions:
REMARK  status: ('A' for Active; 'I' for Inactive)
REMARK    1  A    between atoms: C_1  and  C_2
REMARK    2  A    between atoms: C_5  and  S_6
REMARK    3  A    between atoms: S_6  and  N_9
REMARK    4  A    between atoms: N_9  and  C_10
REMARK    5  A    between atoms: C_10  and  C_11
REMARK    6  A    between atoms: C_10  and  C_26
REMARK    7  A    between atoms: C_11  and  O_13
REMARK    8  A    between atoms: O_13  and  C_14
REMARK    9  A    between atoms: C_14  and  C_15
REMARK   10  A    between atoms: C_18  and  C_20
REMARK   11  A    between atoms: N_24  and  C_25
REMARK   12  A    between atoms: C_26  and  C_27
REMARK   13  A    between atoms: C_26  and  C_28
REMARK                            x       y       z     vdW  Elec       q    Type
REMARK                         _______ _______ _______ _____ _____    ______ ____
ROOT
ATOM      1  C   UNL     1       3.417   5.723  18.204  0.00  0.00    +0.000 C 
ENDROOT
BRANCH   1   2
ATOM      2  C   UNL     1       2.055   5.097  18.630  0.00  0.00    +0.000 C 
ATOM      3  C   UNL     1       1.698   3.748  17.984  0.00  0.00    +0.000 C 
ATOM      4  C   UNL     1       1.945   4.985  20.151  0.00  0.00    +0.000 C 
ENDBRANCH   1   2
BRANCH   1   5
ATOM      5  N   UNL     1       4.353   5.579  19.347  0.00  0.00    +0.000 NA
ATOM      6  H   UNL     1       4.618   6.421  19.856  0.00  0.00    +0.000 HD
BRANCH   5   7
ATOM      7  S   UNL     1       5.645   4.517  19.294  0.00  0.00    +0.000 S 
ATOM      8  O   UNL     1       5.105   3.246  19.723  0.00  0.00    +0.000 OA
ATOM      9  O   UNL     1       6.769   5.122  19.957  0.00  0.00    +0.000 OA
BRANCH   7  14
ATOM     10  C   UNL     1       6.499   4.668  13.315  0.00  0.00    +0.000 C 
ATOM     11  C   UNL     1       6.380   4.497  14.803  0.00  0.00    +0.000 A 
ATOM     12  C   UNL     1       5.390   3.674  15.353  0.00  0.00    +0.000 A 
ATOM     13  C   UNL     1       5.206   3.618  16.737  0.00  0.00    +0.000 A 
ATOM     14  C   UNL     1       6.028   4.382  17.570  0.00  0.00    +0.000 A 
ATOM     15  C   UNL     1       7.033   5.190  17.034  0.00  0.00    +0.000 A 
ATOM     16  C   UNL     1       7.210   5.244  15.652  0.00  0.00    +0.000 A 
ENDBRANCH   7  14
ENDBRANCH   5   7
ENDBRANCH   1   5
BRANCH   1  17
ATOM     17  C   UNL     1       3.285   7.141  17.622  0.00  0.00    +0.000 C 
ATOM     18  O   UNL     1       4.166   7.748  17.029  0.00  0.00    +0.000 OA
BRANCH  17  19
ATOM     19  O   UNL     1       2.072   7.671  17.923  0.00  0.00    +0.000 OA
BRANCH  19  20
ATOM     20  C   UNL     1       1.875   9.058  17.659  0.00  0.00    +0.000 C 
BRANCH  20  21
ATOM     21  C   UNL     1       1.338   9.640  18.956  0.00  0.00    +0.000 C 
ATOM     22  O   UNL     1       1.215   8.938  19.950  0.00  0.00    +0.000 OA
ATOM     23  N   UNL     1       1.104  10.998  18.867  0.00  0.00    +0.000 N 
ATOM     24  C   UNL     1       0.637  11.788  19.894  0.00  0.00    +0.000 C 
ATOM     25  O   UNL     1       0.184  11.337  20.944  0.00  0.00    +0.000 OA
ATOM     26  H   UNL     1       1.516  11.483  18.081  0.00  0.00    +0.000 HD
BRANCH  24  27
ATOM     27  C   UNL     1       0.620  13.219  19.593  0.00  0.00    +0.000 A 
ATOM     28  C   UNL     1      -0.285  13.973  18.850  0.00  0.00    +0.000 A 
ATOM     29  C   UNL     1       0.135  15.324  18.854  0.00  0.00    +0.000 A 
ATOM     30  C   UNL     1       1.278  15.383  19.610  0.00  0.00    +0.000 A 
ATOM     31  N   UNL     1       1.585  14.113  20.026  0.00  0.00    +0.000 N 
ATOM     32  C   UNL     1       2.748  13.779  20.822  0.00  0.00    +0.000 C 
ENDBRANCH  24  27
ENDBRANCH  20  21
ENDBRANCH  19  20
ENDBRANCH  17  19
ENDBRANCH   1  17
TORSDOF 9
ENDMDL
MODEL 9
REMARK VINA RESULT:      -7.1      4.705      6.560
REMARK  Name = 
REMARK  13 active torsions:
REMARK  status: ('A' for Active; 'I' for Inactive)
REMARK    1  A    between atoms: C_1  and  C_2
REMARK    2  A    between atoms: C_5  and  S_6
REMARK    3  A    between atoms: S_6  and  N_9
REMARK    4  A    between atoms: N_9  and  C_10
REMARK    5  A    between atoms: C_10  and  C_11
REMARK    6  A    between atoms: C_10  and  C_26
REMARK    7  A    between atoms: C_11  and  O_13
REMARK    8  A    between atoms: O_13  and  C_14
REMARK    9  A    between atoms: C_14  and  C_15
REMARK   10  A    between atoms: C_18  and  C_20
REMARK   11  A    between atoms: N_24  and  C_25
REMARK   12  A    between atoms: C_26  and  C_27
REMARK   13  A    between atoms: C_26  and  C_28
REMARK                            x       y       z     vdW  Elec       q    Type
REMARK                         _______ _______ _______ _____ _____    ______ ____
ROOT
ATOM      1  C   UNL     1       2.716   3.850  18.782  0.00  0.00    +0.000 C 
ENDROOT
BRANCH   1   2
ATOM      2  C   UNL     1       1.591   3.356  19.740  0.00  0.00    +0.000 C 
ATOM      3  C   UNL     1       1.144   4.349  20.828  0.00  0.00    +0.000 C 
ATOM      4  C   UNL     1       0.371   2.863  18.960  0.00  0.00    +0.000 C 
ENDBRANCH   1   2
BRANCH   1   5
ATOM      5  N   UNL     1       2.301   5.172  18.248  0.00  0.00    +0.000 NA
ATOM      6  H   UNL     1       1.863   5.198  17.327  0.00  0.00    +0.000 HD
BRANCH   5   7
ATOM      7  S   UNL     1       3.235   6.541  18.473  0.00  0.00    +0.000 S 
ATOM      8  O   UNL     1       3.761   6.858  17.163  0.00  0.00    +0.000 OA
ATOM      9  O   UNL     1       4.100   6.331  19.603  0.00  0.00    +0.000 OA
BRANCH   7  14
ATOM     10  C   UNL     1      -0.150  11.295  20.033  0.00  0.00    +0.000 C 
ATOM     11  C   UNL     1       0.553  10.028  19.635  0.00  0.00    +0.000 A 
ATOM     12  C   UNL     1       0.925   9.082  20.597  0.00  0.00    +0.000 A 
ATOM     13  C   UNL     1       1.687   7.968  20.235  0.00  0.00    +0.000 A 
ATOM     14  C   UNL     1       2.065   7.801  18.900  0.00  0.00    +0.000 A 
ATOM     15  C   UNL     1       1.681   8.727  17.928  0.00  0.00    +0.000 A 
ATOM     16  C   UNL     1       0.924   9.838  18.296  0.00  0.00    +0.000 A 
ENDBRANCH   7  14
ENDBRANCH   5   7
ENDBRANCH   1   5
BRANCH   1  17
ATOM     17  C   UNL     1       3.131   2.805  17.733  0.00  0.00    +0.000 C 
ATOM     18  O   UNL     1       2.405   1.936  17.272  0.00  0.00    +0.000 OA
BRANCH  17  19
ATOM     19  O   UNL     1       4.451   2.924  17.435  0.00  0.00    +0.000 OA
BRANCH  19  20
ATOM     20  C   UNL     1       5.299   3.510  18.421  0.00  0.00    +0.000 C 
BRANCH  20  21
ATOM     21  C   UNL     1       6.258   4.398  17.647  0.00  0.00    +0.000 C 
ATOM     22  O   UNL     1       7.054   5.117  18.236  0.00  0.00    +0.000 OA
ATOM     23  N   UNL     1       6.154   4.222  16.282  0.00  0.00    +0.000 N 
ATOM     24  C   UNL     1       6.914   4.880  15.340  0.00  0.00    +0.000 C 
ATOM     25  O   UNL     1       7.629   5.845  15.601  0.00  0.00    +0.000 OA
ATOM     26  H   UNL     1       5.659   3.401  15.963  0.00  0.00    +0.000 HD
BRANCH  24  27
ATOM     27  C   UNL     1       6.719   4.405  13.971  0.00  0.00    +0.000 A 
ATOM     28  C   UNL     1       5.807   3.487  13.457  0.00  0.00    +0.000 A 
ATOM     29  C   UNL     1       6.015   3.367  12.062  0.00  0.00    +0.000 A 
ATOM     30  C   UNL     1       7.037   4.223  11.738  0.00  0.00    +0.000 A 
ATOM     31  N   UNL     1       7.479   4.821  12.890  0.00  0.00    +0.000 N 
ATOM     32  C   UNL     1       8.575   5.767  12.945  0.00  0.00    +0.000 C 
ENDBRANCH  24  27
ENDBRANCH  20  21
ENDBRANCH  19  20
ENDBRANCH  17  19
ENDBRANCH   1  17
TORSDOF 9
ENDMDL
