MODEL 1
REMARK VINA RESULT:      -7.6      0.000      0.000
REMARK  Name = 
REMARK  4 active torsions:
REMARK  status: ('A' for Active; 'I' for Inactive)
REMARK    1  A    between atoms: C_2  and  C_3
REMARK    2  A    between atoms: C_3  and  C_4
REMARK    3  A    between atoms: N_6  and  C_7
REMARK    4  A    between atoms: C_12  and  C_13
REMARK                            x       y       z     vdW  Elec       q    Type
REMARK                         _______ _______ _______ _____ _____    ______ ____
ROOT
ATOM      1  C   UNL     1       4.157   4.253  17.209  0.00  0.00    +0.000 A 
ATOM      2  C   UNL     1       3.785   3.007  17.717  0.00  0.00    +0.000 A 
ATOM      3  C   UNL     1       2.939   2.898  18.825  0.00  0.00    +0.000 A 
ATOM      4  C   UNL     1       2.426   4.041  19.442  0.00  0.00    +0.000 A 
ATOM      5 CL   UNL     1       1.418   3.779  20.828  0.00  0.00    +0.000 Cl
ATOM      6  C   UNL     1       2.768   5.317  18.961  0.00  0.00    +0.000 A 
ATOM      7  C   UNL     1       3.679   5.403  17.874  0.00  0.00    +0.000 A 
ENDROOT
BRANCH   6   8
ATOM      8  C   UNL     1       2.193   6.535  19.533  0.00  0.00    +0.000 A 
ATOM      9  N   UNL     1       1.765   6.778  20.761  0.00  0.00    +0.000 NA
ATOM     10  C   UNL     1       1.319   8.084  20.706  0.00  0.00    +0.000 A 
ATOM     11  C   UNL     1       0.711   8.898  21.672  0.00  0.00    +0.000 A 
ATOM     12  C   UNL     1       0.364  10.205  21.303  0.00  0.00    +0.000 A 
ATOM     13 CL   UNL     1      -0.405  11.228  22.462  0.00  0.00    +0.000 Cl
ATOM     14  C   UNL     1       0.621  10.701  20.022  0.00  0.00    +0.000 A 
ATOM     15  C   UNL     1       1.231   9.900  19.048  0.00  0.00    +0.000 A 
ATOM     16  C   UNL     1       1.552   8.605  19.443  0.00  0.00    +0.000 A 
ATOM     17  O   UNL     1       2.132   7.626  18.694  0.00  0.00    +0.000 OA
ENDBRANCH   6   8
BRANCH   1  20
ATOM     18  C   UNL     1       6.386   4.488  16.058  0.00  0.00    +0.000 C 
ATOM     19  O   UNL     1       7.070   4.459  17.084  0.00  0.00    +0.000 OA
ATOM     20  N   UNL     1       4.988   4.395  16.052  0.00  0.00    +0.000 N 
ATOM     21  H   UNL     1       4.508   4.272  15.165  0.00  0.00    +0.000 HD
BRANCH  18  22
ATOM     22  C   UNL     1       7.130   4.679  14.728  0.00  0.00    +0.000 C 
BRANCH  22  24
ATOM     23  N   UNL     1       5.828   3.423  12.616  0.00  0.00    +0.000 NA
ATOM     24  C   UNL     1       6.419   3.992  13.574  0.00  0.00    +0.000 C 
ENDBRANCH  22  24
ENDBRANCH  18  22
ENDBRANCH   1  20
TORSDOF 4
ENDMDL
MODEL 2
REMARK VINA RESULT:      -7.4      1.161      1.542
REMARK  Name = 
REMARK  4 active torsions:
REMARK  status: ('A' for Active; 'I' for Inactive)
REMARK    1  A    between atoms: C_2  and  C_3
REMARK    2  A    between atoms: C_3  and  C_4
REMARK    3  A    between atoms: N_6  and  C_7
REMARK    4  A    between atoms: C_12  and  C_13
REMARK                            x       y       z     vdW  Elec       q    Type
REMARK                         _______ _______ _______ _____ _____    ______ ____
ROOT
ATOM      1  C   UNL     1       4.587   4.680  16.865  0.00  0.00    +0.000 A 
ATOM      2  C   UNL     1       4.490   3.546  17.672  0.00  0.00    +0.000 A 
ATOM      3  C   UNL     1       3.786   3.573  18.881  0.00  0.00    +0.000 A 
ATOM      4  C   UNL     1       3.141   4.738  19.301  0.00  0.00    +0.000 A 
ATOM      5 CL   UNL     1       2.332   4.658  20.832  0.00  0.00    +0.000 Cl
ATOM      6  C   UNL     1       3.205   5.903  18.517  0.00  0.00    +0.000 A 
ATOM      7  C   UNL     1       3.978   5.869  17.325  0.00  0.00    +0.000 A 
ENDROOT
BRANCH   6   8
ATOM      8  C   UNL     1       2.481   7.120  18.885  0.00  0.00    +0.000 A 
ATOM      9  N   UNL     1       2.087   8.135  18.133  0.00  0.00    +0.000 NA
ATOM     10  C   UNL     1       1.471   8.990  19.025  0.00  0.00    +0.000 A 
ATOM     11  C   UNL     1       0.892  10.255  18.848  0.00  0.00    +0.000 A 
ATOM     12  C   UNL     1       0.340  10.886  19.972  0.00  0.00    +0.000 A 
ATOM     13 CL   UNL     1      -0.363  12.453  19.794  0.00  0.00    +0.000 Cl
ATOM     14  C   UNL     1       0.347  10.282  21.232  0.00  0.00    +0.000 A 
ATOM     15  C   UNL     1       0.918   9.017  21.423  0.00  0.00    +0.000 A 
ATOM     16  C   UNL     1       1.467   8.425  20.290  0.00  0.00    +0.000 A 
ATOM     17  O   UNL     1       2.093   7.216  20.203  0.00  0.00    +0.000 OA
ENDBRANCH   6   8
BRANCH   1  20
ATOM     18  C   UNL     1       6.651   4.762  15.423  0.00  0.00    +0.000 C 
ATOM     19  O   UNL     1       7.458   4.864  16.350  0.00  0.00    +0.000 OA
ATOM     20  N   UNL     1       5.264   4.672  15.604  0.00  0.00    +0.000 N 
ATOM     21  H   UNL     1       4.680   4.437  14.807  0.00  0.00    +0.000 HD
BRANCH  18  22
ATOM     22  C   UNL     1       7.221   4.780  13.997  0.00  0.00    +0.000 C 
BRANCH  22  24
ATOM     23  N   UNL     1       5.758   3.165  12.269  0.00  0.00    +0.000 NA
ATOM     24  C   UNL     1       6.421   3.897  13.053  0.00  0.00    +0.000 C 
ENDBRANCH  22  24
ENDBRANCH  18  22
ENDBRANCH   1  20
TORSDOF 4
ENDMDL
MODEL 3
REMARK VINA RESULT:      -7.3      1.117      1.200
REMARK  Name = 
REMARK  4 active torsions:
REMARK  status: ('A' for Active; 'I' for Inactive)
REMARK    1  A    between atoms: C_2  and  C_3
REMARK    2  A    between atoms: C_3  and  C_4
REMARK    3  A    between atoms: N_6  and  C_7
REMARK    4  A    between atoms: C_12  and  C_13
REMARK                            x       y       z     vdW  Elec       q    Type
REMARK                         _______ _______ _______ _____ _____    ______ ____
ROOT
ATOM      1  C   UNL     1       4.169   4.110  17.076  0.00  0.00    +0.000 A 
ATOM      2  C   UNL     1       4.057   3.039  17.965  0.00  0.00    +0.000 A 
ATOM      3  C   UNL     1       3.470   3.198  19.224  0.00  0.00    +0.000 A 
ATOM      4  C   UNL     1       2.958   4.436  19.617  0.00  0.00    +0.000 A 
ATOM      5 CL   UNL     1       2.287   4.518  21.214  0.00  0.00    +0.000 Cl
ATOM      6  C   UNL     1       3.042   5.542  18.754  0.00  0.00    +0.000 A 
ATOM      7  C   UNL     1       3.699   5.372  17.505  0.00  0.00    +0.000 A 
ENDROOT
BRANCH   6   8
ATOM      8  C   UNL     1       2.451   6.836  19.099  0.00  0.00    +0.000 A 
ATOM      9  N   UNL     1       1.960   7.266  20.249  0.00  0.00    +0.000 NA
ATOM     10  C   UNL     1       1.534   8.550  19.971  0.00  0.00    +0.000 A 
ATOM     11  C   UNL     1       0.884   9.505  20.765  0.00  0.00    +0.000 A 
ATOM     12  C   UNL     1       0.573  10.741  20.182  0.00  0.00    +0.000 A 
ATOM     13 CL   UNL     1      -0.245  11.933  21.125  0.00  0.00    +0.000 Cl
ATOM     14  C   UNL     1       0.905  11.033  18.856  0.00  0.00    +0.000 A 
ATOM     15  C   UNL     1       1.558  10.090  18.051  0.00  0.00    +0.000 A 
ATOM     16  C   UNL     1       1.841   8.870  18.658  0.00  0.00    +0.000 A 
ATOM     17  O   UNL     1       2.449   7.785  18.100  0.00  0.00    +0.000 OA
ENDBRANCH   6   8
BRANCH   1  20
ATOM     18  C   UNL     1       6.039   4.295  15.399  0.00  0.00    +0.000 C 
ATOM     19  O   UNL     1       6.876   4.754  16.181  0.00  0.00    +0.000 OA
ATOM     20  N   UNL     1       4.727   3.969  15.766  0.00  0.00    +0.000 N 
ATOM     21  H   UNL     1       4.147   3.456  15.109  0.00  0.00    +0.000 HD
BRANCH  18  22
ATOM     22  C   UNL     1       6.474   4.122  13.936  0.00  0.00    +0.000 C 
BRANCH  22  24
ATOM     23  N   UNL     1       8.538   5.856  13.252  0.00  0.00    +0.000 NA
ATOM     24  C   UNL     1       7.603   5.070  13.562  0.00  0.00    +0.000 C 
ENDBRANCH  22  24
ENDBRANCH  18  22
ENDBRANCH   1  20
TORSDOF 4
ENDMDL
MODEL 4
REMARK VINA RESULT:      -7.2      4.305      5.586
REMARK  Name = 
REMARK  4 active torsions:
REMARK  status: ('A' for Active; 'I' for Inactive)
REMARK    1  A    between atoms: C_2  and  C_3
REMARK    2  A    between atoms: C_3  and  C_4
REMARK    3  A    between atoms: N_6  and  C_7
REMARK    4  A    between atoms: C_12  and  C_13
REMARK                            x       y       z     vdW  Elec       q    Type
REMARK                         _______ _______ _______ _____ _____    ______ ____
ROOT
ATOM      1  C   UNL     1       6.390   3.871  13.971  0.00  0.00    +0.000 A 
ATOM      2  C   UNL     1       7.240   4.967  14.130  0.00  0.00    +0.000 A 
ATOM      3  C   UNL     1       7.185   5.769  15.274  0.00  0.00    +0.000 A 
ATOM      4  C   UNL     1       6.286   5.478  16.302  0.00  0.00    +0.000 A 
ATOM      5 CL   UNL     1       6.287   6.565  17.653  0.00  0.00    +0.000 Cl
ATOM      6  C   UNL     1       5.415   4.381  16.189  0.00  0.00    +0.000 A 
ATOM      7  C   UNL     1       5.446   3.618  14.991  0.00  0.00    +0.000 A 
ENDROOT
BRANCH   6   8
ATOM      8  C   UNL     1       4.511   3.999  17.276  0.00  0.00    +0.000 A 
ATOM      9  N   UNL     1       4.775   3.721  18.542  0.00  0.00    +0.000 NA
ATOM     10  C   UNL     1       3.540   3.417  19.080  0.00  0.00    +0.000 A 
ATOM     11  C   UNL     1       3.165   2.997  20.364  0.00  0.00    +0.000 A 
ATOM     12  C   UNL     1       1.805   2.760  20.605  0.00  0.00    +0.000 A 
ATOM     13 CL   UNL     1       1.310   2.222  22.169  0.00  0.00    +0.000 Cl
ATOM     14  C   UNL     1       0.838   2.944  19.612  0.00  0.00    +0.000 A 
ATOM     15  C   UNL     1       1.198   3.367  18.326  0.00  0.00    +0.000 A 
ATOM     16  C   UNL     1       2.556   3.582  18.117  0.00  0.00    +0.000 A 
ATOM     17  O   UNL     1       3.170   3.977  16.965  0.00  0.00    +0.000 OA
ENDBRANCH   6   8
BRANCH   1  20
ATOM     18  C   UNL     1       5.463   2.889  11.844  0.00  0.00    +0.000 C 
ATOM     19  O   UNL     1       4.406   3.526  11.852  0.00  0.00    +0.000 OA
ATOM     20  N   UNL     1       6.451   3.008  12.830  0.00  0.00    +0.000 N 
ATOM     21  H   UNL     1       7.354   2.569  12.676  0.00  0.00    +0.000 HD
BRANCH  18  22
ATOM     22  C   UNL     1       5.662   1.884  10.700  0.00  0.00    +0.000 C 
BRANCH  22  24
ATOM     23  N   UNL     1       6.313  -0.650  11.645  0.00  0.00    +0.000 NA
ATOM     24  C   UNL     1       6.019   0.499  11.216  0.00  0.00    +0.000 C 
ENDBRANCH  22  24
ENDBRANCH  18  22
ENDBRANCH   1  20
TORSDOF 4
ENDMDL
MODEL 5
REMARK VINA RESULT:      -7.1      1.394      1.752
REMARK  Name = 
REMARK  4 active torsions:
REMARK  status: ('A' for Active; 'I' for Inactive)
REMARK    1  A    between atoms: C_2  and  C_3
REMARK    2  A    between atoms: C_3  and  C_4
REMARK    3  A    between atoms: N_6  and  C_7
REMARK    4  A    between atoms: C_12  and  C_13
REMARK                            x       y       z     vdW  Elec       q    Type
REMARK                         _______ _______ _______ _____ _____    ______ ____
ROOT
ATOM      1  C   UNL     1       4.197   4.222  17.081  0.00  0.00    +0.000 A 
ATOM      2  C   UNL     1       4.105   3.186  18.012  0.00  0.00    +0.000 A 
ATOM      3  C   UNL     1       3.511   3.384  19.263  0.00  0.00    +0.000 A 
ATOM      4  C   UNL     1       2.973   4.626  19.604  0.00  0.00    +0.000 A 
ATOM      5 CL   UNL     1       2.296   4.758  21.195  0.00  0.00    +0.000 Cl
ATOM      6  C   UNL     1       3.036   5.698  18.697  0.00  0.00    +0.000 A 
ATOM      7  C   UNL     1       3.700   5.490  17.457  0.00  0.00    +0.000 A 
ENDROOT
BRANCH   6   8
ATOM      8  C   UNL     1       2.418   6.992  18.988  0.00  0.00    +0.000 A 
ATOM      9  N   UNL     1       2.167   8.013  18.185  0.00  0.00    +0.000 NA
ATOM     10  C   UNL     1       1.593   8.955  19.016  0.00  0.00    +0.000 A 
ATOM     11  C   UNL     1       1.152  10.264  18.769  0.00  0.00    +0.000 A 
ATOM     12  C   UNL     1       0.607  10.984  19.842  0.00  0.00    +0.000 A 
ATOM     13 CL   UNL     1       0.073  12.605  19.579  0.00  0.00    +0.000 Cl
ATOM     14  C   UNL     1       0.487  10.426  21.118  0.00  0.00    +0.000 A 
ATOM     15  C   UNL     1       0.919   9.119  21.377  0.00  0.00    +0.000 A 
ATOM     16  C   UNL     1       1.466   8.437  20.295  0.00  0.00    +0.000 A 
ATOM     17  O   UNL     1       1.972   7.171  20.278  0.00  0.00    +0.000 OA
ENDBRANCH   6   8
BRANCH   1  20
ATOM     18  C   UNL     1       6.082   4.334  15.414  0.00  0.00    +0.000 C 
ATOM     19  O   UNL     1       6.921   4.797  16.191  0.00  0.00    +0.000 OA
ATOM     20  N   UNL     1       4.762   4.039  15.778  0.00  0.00    +0.000 N 
ATOM     21  H   UNL     1       4.177   3.521  15.130  0.00  0.00    +0.000 HD
BRANCH  18  22
ATOM     22  C   UNL     1       6.524   4.118  13.959  0.00  0.00    +0.000 C 
BRANCH  22  24
ATOM     23  N   UNL     1       8.552   5.869  13.215  0.00  0.00    +0.000 NA
ATOM     24  C   UNL     1       7.633   5.076  13.552  0.00  0.00    +0.000 C 
ENDBRANCH  22  24
ENDBRANCH  18  22
ENDBRANCH   1  20
TORSDOF 4
ENDMDL
MODEL 6
REMARK VINA RESULT:      -7.1      2.687      7.766
REMARK  Name = 
REMARK  4 active torsions:
REMARK  status: ('A' for Active; 'I' for Inactive)
REMARK    1  A    between atoms: C_2  and  C_3
REMARK    2  A    between atoms: C_3  and  C_4
REMARK    3  A    between atoms: N_6  and  C_7
REMARK    4  A    between atoms: C_12  and  C_13
REMARK                            x       y       z     vdW  Elec       q    Type
REMARK                         _______ _______ _______ _____ _____    ______ ____
ROOT
ATOM      1  C   UNL     1       2.067   5.985  20.493  0.00  0.00    +0.000 A 
ATOM      2  C   UNL     1       1.916   4.834  21.267  0.00  0.00    +0.000 A 
ATOM      3  C   UNL     1       2.439   3.605  20.852  0.00  0.00    +0.000 A 
ATOM      4  C   UNL     1       3.149   3.505  19.654  0.00  0.00    +0.000 A 
ATOM      5 CL   UNL     1       3.717   1.923  19.228  0.00  0.00    +0.000 Cl
ATOM      6  C   UNL     1       3.333   4.639  18.844  0.00  0.00    +0.000 A 
ATOM      7  C   UNL     1       2.739   5.862  19.256  0.00  0.00    +0.000 A 
ENDROOT
BRANCH   6   8
ATOM      8  C   UNL     1       4.134   4.590  17.620  0.00  0.00    +0.000 A 
ATOM      9  N   UNL     1       3.842   4.085  16.433  0.00  0.00    +0.000 NA
ATOM     10  C   UNL     1       4.979   4.315  15.684  0.00  0.00    +0.000 A 
ATOM     11  C   UNL     1       5.306   3.971  14.365  0.00  0.00    +0.000 A 
ATOM     12  C   UNL     1       6.567   4.351  13.882  0.00  0.00    +0.000 A 
ATOM     13 CL   UNL     1       7.011   3.926  12.269  0.00  0.00    +0.000 Cl
ATOM     14  C   UNL     1       7.475   5.061  14.674  0.00  0.00    +0.000 A 
ATOM     15  C   UNL     1       7.159   5.414  15.992  0.00  0.00    +0.000 A 
ATOM     16  C   UNL     1       5.906   5.012  16.442  0.00  0.00    +0.000 A 
ATOM     17  O   UNL     1       5.362   5.212  17.677  0.00  0.00    +0.000 OA
ENDBRANCH   6   8
BRANCH   1  20
ATOM     18  C   UNL     1       1.468   8.400  20.098  0.00  0.00    +0.000 C 
ATOM     19  O   UNL     1       1.789   8.425  18.907  0.00  0.00    +0.000 OA
ATOM     20  N   UNL     1       1.579   7.264  20.911  0.00  0.00    +0.000 N 
ATOM     21  H   UNL     1       1.155   7.278  21.834  0.00  0.00    +0.000 HD
BRANCH  18  22
ATOM     22  C   UNL     1       0.962   9.714  20.711  0.00  0.00    +0.000 C 
BRANCH  22  24
ATOM     23  N   UNL     1       0.579   9.501  23.457  0.00  0.00    +0.000 NA
ATOM     24  C   UNL     1       0.752   9.598  22.212  0.00  0.00    +0.000 C 
ENDBRANCH  22  24
ENDBRANCH  18  22
ENDBRANCH   1  20
TORSDOF 4
ENDMDL
MODEL 7
REMARK VINA RESULT:      -7.0      2.821      7.619
REMARK  Name = 
REMARK  4 active torsions:
REMARK  status: ('A' for Active; 'I' for Inactive)
REMARK    1  A    between atoms: C_2  and  C_3
REMARK    2  A    between atoms: C_3  and  C_4
REMARK    3  A    between atoms: N_6  and  C_7
REMARK    4  A    between atoms: C_12  and  C_13
REMARK                            x       y       z     vdW  Elec       q    Type
REMARK                         _______ _______ _______ _____ _____    ______ ____
ROOT
ATOM      1  C   UNL     1       2.060   5.226  20.574  0.00  0.00    +0.000 A 
ATOM      2  C   UNL     1       1.867   3.978  21.168  0.00  0.00    +0.000 A 
ATOM      3  C   UNL     1       2.372   2.811  20.587  0.00  0.00    +0.000 A 
ATOM      4  C   UNL     1       3.107   2.869  19.401  0.00  0.00    +0.000 A 
ATOM      5 CL   UNL     1       3.650   1.353  18.759  0.00  0.00    +0.000 Cl
ATOM      6  C   UNL     1       3.333   4.105  18.769  0.00  0.00    +0.000 A 
ATOM      7  C   UNL     1       2.756   5.269  19.345  0.00  0.00    +0.000 A 
ENDROOT
BRANCH   6   8
ATOM      8  C   UNL     1       4.159   4.216  17.567  0.00  0.00    +0.000 A 
ATOM      9  N   UNL     1       3.890   3.878  16.317  0.00  0.00    +0.000 NA
ATOM     10  C   UNL     1       5.044   4.198  15.629  0.00  0.00    +0.000 A 
ATOM     11  C   UNL     1       5.398   4.033  14.282  0.00  0.00    +0.000 A 
ATOM     12  C   UNL     1       6.670   4.465  13.882  0.00  0.00    +0.000 A 
ATOM     13 CL   UNL     1       7.146   4.258  12.235  0.00  0.00    +0.000 Cl
ATOM     14  C   UNL     1       7.564   5.054  14.780  0.00  0.00    +0.000 A 
ATOM     15  C   UNL     1       7.222   5.229  16.127  0.00  0.00    +0.000 A 
ATOM     16  C   UNL     1       5.958   4.779  16.493  0.00  0.00    +0.000 A 
ATOM     17  O   UNL     1       5.388   4.815  17.732  0.00  0.00    +0.000 OA
ENDBRANCH   6   8
BRANCH   1  20
ATOM     18  C   UNL     1       1.619   7.707  20.563  0.00  0.00    +0.000 C 
ATOM     19  O   UNL     1       2.064   7.917  19.431  0.00  0.00    +0.000 OA
ATOM     20  N   UNL     1       1.591   6.442  21.166  0.00  0.00    +0.000 N 
ATOM     21  H   UNL     1       1.073   6.323  22.031  0.00  0.00    +0.000 HD
BRANCH  18  22
ATOM     22  C   UNL     1       1.112   8.924  21.350  0.00  0.00    +0.000 C 
BRANCH  22  24
ATOM     23  N   UNL     1      -0.701  10.435  19.878  0.00  0.00    +0.000 NA
ATOM     24  C   UNL     1       0.122   9.750  20.545  0.00  0.00    +0.000 C 
ENDBRANCH  22  24
ENDBRANCH  18  22
ENDBRANCH   1  20
TORSDOF 4
ENDMDL
MODEL 8
REMARK VINA RESULT:      -7.0      2.394      3.285
REMARK  Name = 
REMARK  4 active torsions:
REMARK  status: ('A' for Active; 'I' for Inactive)
REMARK    1  A    between atoms: C_2  and  C_3
REMARK    2  A    between atoms: C_3  and  C_4
REMARK    3  A    between atoms: N_6  and  C_7
REMARK    4  A    between atoms: C_12  and  C_13
REMARK                            x       y       z     vdW  Elec       q    Type
REMARK                         _______ _______ _______ _____ _____    ______ ____
ROOT
ATOM      1  C   UNL     1       5.737   4.176  15.166  0.00  0.00    +0.000 A 
ATOM      2  C   UNL     1       7.003   3.965  15.713  0.00  0.00    +0.000 A 
ATOM      3  C   UNL     1       7.369   4.533  16.938  0.00  0.00    +0.000 A 
ATOM      4  C   UNL     1       6.461   5.313  17.658  0.00  0.00    +0.000 A 
ATOM      5 CL   UNL     1       7.041   5.992  19.144  0.00  0.00    +0.000 Cl
ATOM      6  C   UNL     1       5.172   5.547  17.149  0.00  0.00    +0.000 A 
ATOM      7  C   UNL     1       4.845   5.012  15.874  0.00  0.00    +0.000 A 
ENDROOT
BRANCH   6   8
ATOM      8  C   UNL     1       4.168   6.296  17.907  0.00  0.00    +0.000 A 
ATOM      9  N   UNL     1       3.651   6.055  19.101  0.00  0.00    +0.000 NA
ATOM     10  C   UNL     1       2.750   7.085  19.287  0.00  0.00    +0.000 A 
ATOM     11  C   UNL     1       1.858   7.359  20.333  0.00  0.00    +0.000 A 
ATOM     12  C   UNL     1       1.055   8.504  20.227  0.00  0.00    +0.000 A 
ATOM     13 CL   UNL     1      -0.069   8.861  21.488  0.00  0.00    +0.000 Cl
ATOM     14  C   UNL     1       1.138   9.361  19.126  0.00  0.00    +0.000 A 
ATOM     15  C   UNL     1       2.028   9.101  18.075  0.00  0.00    +0.000 A 
ATOM     16  C   UNL     1       2.800   7.952  18.207  0.00  0.00    +0.000 A 
ATOM     17  O   UNL     1       3.724   7.465  17.330  0.00  0.00    +0.000 OA
ENDBRANCH   6   8
BRANCH   1  20
ATOM     18  C   UNL     1       6.001   3.662  12.713  0.00  0.00    +0.000 C 
ATOM     19  O   UNL     1       7.055   4.285  12.559  0.00  0.00    +0.000 OA
ATOM     20  N   UNL     1       5.320   3.574  13.935  0.00  0.00    +0.000 N 
ATOM     21  H   UNL     1       4.546   2.922  14.020  0.00  0.00    +0.000 HD
BRANCH  18  22
ATOM     22  C   UNL     1       5.399   2.991  11.470  0.00  0.00    +0.000 C 
BRANCH  22  24
ATOM     23  N   UNL     1       6.222   0.348  11.212  0.00  0.00    +0.000 NA
ATOM     24  C   UNL     1       5.849   1.546  11.330  0.00  0.00    +0.000 C 
ENDBRANCH  22  24
ENDBRANCH  18  22
ENDBRANCH   1  20
TORSDOF 4
ENDMDL
MODEL 9
REMARK VINA RESULT:      -6.9      4.109      5.434
REMARK  Name = 
REMARK  4 active torsions:
REMARK  status: ('A' for Active; 'I' for Inactive)
REMARK    1  A    between atoms: C_2  and  C_3
REMARK    2  A    between atoms: C_3  and  C_4
REMARK    3  A    between atoms: N_6  and  C_7
REMARK    4  A    between atoms: C_12  and  C_13
REMARK                            x       y       z     vdW  Elec       q    Type
REMARK                         _______ _______ _______ _____ _____    ______ ____
ROOT
ATOM      1  C   UNL     1       2.224   6.774  19.979  0.00  0.00    +0.000 A 
ATOM      2  C   UNL     1       2.580   7.039  18.655  0.00  0.00    +0.000 A 
ATOM      3  C   UNL     1       2.222   8.239  18.033  0.00  0.00    +0.000 A 
ATOM      4  C   UNL     1       1.514   9.218  18.733  0.00  0.00    +0.000 A 
ATOM      5 CL   UNL     1       1.097  10.648  17.845  0.00  0.00    +0.000 Cl
ATOM      6  C   UNL     1       1.140   8.999  20.071  0.00  0.00    +0.000 A 
ATOM      7  C   UNL     1       1.460   7.747  20.661  0.00  0.00    +0.000 A 
ENDROOT
BRANCH   6   8
ATOM      8  C   UNL     1       0.464  10.029  20.860  0.00  0.00    +0.000 A 
ATOM      9  N   UNL     1      -0.534   9.920  21.722  0.00  0.00    +0.000 NA
ATOM     10  C   UNL     1      -0.756  11.218  22.140  0.00  0.00    +0.000 A 
ATOM     11  C   UNL     1      -1.710  11.762  23.011  0.00  0.00    +0.000 A 
ATOM     12  C   UNL     1      -1.680  13.145  23.235  0.00  0.00    +0.000 A 
ATOM     13 CL   UNL     1      -2.854  13.851  24.287  0.00  0.00    +0.000 Cl
ATOM     14  C   UNL     1      -0.729  13.969  22.627  0.00  0.00    +0.000 A 
ATOM     15  C   UNL     1       0.233  13.439  21.757  0.00  0.00    +0.000 A 
ATOM     16  C   UNL     1       0.168  12.065  21.548  0.00  0.00    +0.000 A 
ATOM     17  O   UNL     1       0.967  11.306  20.745  0.00  0.00    +0.000 OA
ENDBRANCH   6   8
BRANCH   1  20
ATOM     18  C   UNL     1       1.848   4.401  20.736  0.00  0.00    +0.000 C 
ATOM     19  O   UNL     1       0.732   4.273  20.226  0.00  0.00    +0.000 OA
ATOM     20  N   UNL     1       2.612   5.573  20.655  0.00  0.00    +0.000 N 
ATOM     21  H   UNL     1       3.578   5.552  20.966  0.00  0.00    +0.000 HD
BRANCH  18  22
ATOM     22  C   UNL     1       2.390   3.208  21.536  0.00  0.00    +0.000 C 
BRANCH  22  24
ATOM     23  N   UNL     1       4.629   2.080  20.334  0.00  0.00    +0.000 NA
ATOM     24  C   UNL     1       3.614   2.591  20.879  0.00  0.00    +0.000 C 
ENDBRANCH  22  24
ENDBRANCH  18  22
ENDBRANCH   1  20
TORSDOF 4
ENDMDL
