MODEL 1
REMARK VINA RESULT:      -4.2      0.000      0.000
REMARK  Name = 
REMARK  5 active torsions:
REMARK  status: ('A' for Active; 'I' for Inactive)
REMARK    1  A    between atoms: C_1  and  C_2
REMARK    2  A    between atoms: C_2  and  C_3
REMARK    3  A    between atoms: C_3  and  C_4
REMARK    4  A    between atoms: C_3  and  C_5
REMARK    5  A    between atoms: C_5  and  C_6
REMARK                            x       y       z     vdW  Elec       q    Type
REMARK                         _______ _______ _______ _____ _____    ______ ____
ROOT
ATOM      1  C   UNL     1       2.013   3.483  18.722  0.00  0.00    +0.000 C 
ATOM      2  C   UNL     1       1.508   4.567  17.769  0.00  0.00    +0.000 C 
ENDROOT
BRANCH   1   4
ATOM      3  C   UNL     1       3.578   1.479  18.488  0.00  0.00    +0.000 C 
ATOM      4  C   UNL     1       2.308   2.154  17.996  0.00  0.00    +0.000 C 
ENDBRANCH   1   4
BRANCH   1   5
ATOM      5  C   UNL     1       1.000   3.265  19.862  0.00  0.00    +0.000 C 
BRANCH   5   6
ATOM      6  C   UNL     1       1.662   3.442  21.222  0.00  0.00    +0.000 C 
ATOM      7  O   UNL     1       2.279   4.549  21.342  0.00  0.00    +0.000 OA
ATOM      8  O   UNL     1       1.526   2.524  22.059  0.00  0.00    +0.000 OA
ENDBRANCH   5   6
ENDBRANCH   1   5
TORSDOF 3
ENDMDL
MODEL 2
REMARK VINA RESULT:      -4.1      6.840      7.727
REMARK  Name = 
REMARK  5 active torsions:
REMARK  status: ('A' for Active; 'I' for Inactive)
REMARK    1  A    between atoms: C_1  and  C_2
REMARK    2  A    between atoms: C_2  and  C_3
REMARK    3  A    between atoms: C_3  and  C_4
REMARK    4  A    between atoms: C_3  and  C_5
REMARK    5  A    between atoms: C_5  and  C_6
REMARK                            x       y       z     vdW  Elec       q    Type
REMARK                         _______ _______ _______ _____ _____    ______ ____
ROOT
ATOM      1  C   UNL     1       7.180   5.785  16.673  0.00  0.00    +0.000 C 
ATOM      2  C   UNL     1       7.537   4.641  17.623  0.00  0.00    +0.000 C 
ENDROOT
BRANCH   1   4
ATOM      3  C   UNL     1       7.780   8.084  17.609  0.00  0.00    +0.000 C 
ATOM      4  C   UNL     1       6.690   7.041  17.423  0.00  0.00    +0.000 C 
ENDBRANCH   1   4
BRANCH   1   5
ATOM      5  C   UNL     1       6.125   5.318  15.652  0.00  0.00    +0.000 C 
BRANCH   5   6
ATOM      6  C   UNL     1       6.786   4.793  14.385  0.00  0.00    +0.000 C 
ATOM      7  O   UNL     1       7.812   5.462  14.038  0.00  0.00    +0.000 OA
ATOM      8  O   UNL     1       6.285   3.786  13.841  0.00  0.00    +0.000 OA
ENDBRANCH   5   6
ENDBRANCH   1   5
TORSDOF 3
ENDMDL
MODEL 3
REMARK VINA RESULT:      -4.1      7.563      8.449
REMARK  Name = 
REMARK  5 active torsions:
REMARK  status: ('A' for Active; 'I' for Inactive)
REMARK    1  A    between atoms: C_1  and  C_2
REMARK    2  A    between atoms: C_2  and  C_3
REMARK    3  A    between atoms: C_3  and  C_4
REMARK    4  A    between atoms: C_3  and  C_5
REMARK    5  A    between atoms: C_5  and  C_6
REMARK                            x       y       z     vdW  Elec       q    Type
REMARK                         _______ _______ _______ _____ _____    ______ ____
ROOT
ATOM      1  C   UNL     1       6.068   3.567  12.131  0.00  0.00    +0.000 C 
ATOM      2  C   UNL     1       4.616   3.317  11.723  0.00  0.00    +0.000 C 
ENDROOT
BRANCH   1   4
ATOM      3  C   UNL     1       6.285   1.234  11.117  0.00  0.00    +0.000 C 
ATOM      4  C   UNL     1       7.020   2.464  11.623  0.00  0.00    +0.000 C 
ENDBRANCH   1   4
BRANCH   1   5
ATOM      5  C   UNL     1       6.173   3.710  13.661  0.00  0.00    +0.000 C 
BRANCH   5   6
ATOM      6  C   UNL     1       7.187   4.780  14.042  0.00  0.00    +0.000 C 
ATOM      7  O   UNL     1       7.430   4.823  15.291  0.00  0.00    +0.000 OA
ATOM      8  O   UNL     1       7.675   5.473  13.123  0.00  0.00    +0.000 OA
ENDBRANCH   5   6
ENDBRANCH   1   5
TORSDOF 3
ENDMDL
MODEL 4
REMARK VINA RESULT:      -4.1      7.523      8.355
REMARK  Name = 
REMARK  5 active torsions:
REMARK  status: ('A' for Active; 'I' for Inactive)
REMARK    1  A    between atoms: C_1  and  C_2
REMARK    2  A    between atoms: C_2  and  C_3
REMARK    3  A    between atoms: C_3  and  C_4
REMARK    4  A    between atoms: C_3  and  C_5
REMARK    5  A    between atoms: C_5  and  C_6
REMARK                            x       y       z     vdW  Elec       q    Type
REMARK                         _______ _______ _______ _____ _____    ______ ____
ROOT
ATOM      1  C   UNL     1       5.499   3.020  12.200  0.00  0.00    +0.000 C 
ATOM      2  C   UNL     1       5.902   1.795  11.379  0.00  0.00    +0.000 C 
ENDROOT
BRANCH   1   4
ATOM      3  C   UNL     1       3.439   2.987  10.690  0.00  0.00    +0.000 C 
ATOM      4  C   UNL     1       4.383   3.841  11.521  0.00  0.00    +0.000 C 
ENDBRANCH   1   4
BRANCH   1   5
ATOM      5  C   UNL     1       6.730   3.904  12.475  0.00  0.00    +0.000 C 
BRANCH   5   6
ATOM      6  C   UNL     1       6.775   4.339  13.934  0.00  0.00    +0.000 C 
ATOM      7  O   UNL     1       7.549   5.328  14.141  0.00  0.00    +0.000 OA
ATOM      8  O   UNL     1       6.060   3.717  14.749  0.00  0.00    +0.000 OA
ENDBRANCH   5   6
ENDBRANCH   1   5
TORSDOF 3
ENDMDL
MODEL 5
REMARK VINA RESULT:      -4.1      5.069      6.230
REMARK  Name = 
REMARK  5 active torsions:
REMARK  status: ('A' for Active; 'I' for Inactive)
REMARK    1  A    between atoms: C_1  and  C_2
REMARK    2  A    between atoms: C_2  and  C_3
REMARK    3  A    between atoms: C_3  and  C_4
REMARK    4  A    between atoms: C_3  and  C_5
REMARK    5  A    between atoms: C_5  and  C_6
REMARK                            x       y       z     vdW  Elec       q    Type
REMARK                         _______ _______ _______ _____ _____    ______ ____
ROOT
ATOM      1  C   UNL     1       4.995   4.468  17.078  0.00  0.00    +0.000 C 
ATOM      2  C   UNL     1       3.844   3.483  17.287  0.00  0.00    +0.000 C 
ENDROOT
BRANCH   1   4
ATOM      3  C   UNL     1       3.316   6.181  17.954  0.00  0.00    +0.000 C 
ATOM      4  C   UNL     1       4.515   5.934  17.053  0.00  0.00    +0.000 C 
ENDBRANCH   1   4
BRANCH   1   5
ATOM      5  C   UNL     1       5.759   4.125  15.785  0.00  0.00    +0.000 C 
BRANCH   5   6
ATOM      6  C   UNL     1       7.164   4.711  15.809  0.00  0.00    +0.000 C 
ATOM      7  O   UNL     1       7.817   4.410  16.860  0.00  0.00    +0.000 OA
ATOM      8  O   UNL     1       7.528   5.391  14.825  0.00  0.00    +0.000 OA
ENDBRANCH   5   6
ENDBRANCH   1   5
TORSDOF 3
ENDMDL
MODEL 6
REMARK VINA RESULT:      -4.1      6.965      7.759
REMARK  Name = 
REMARK  5 active torsions:
REMARK  status: ('A' for Active; 'I' for Inactive)
REMARK    1  A    between atoms: C_1  and  C_2
REMARK    2  A    between atoms: C_2  and  C_3
REMARK    3  A    between atoms: C_3  and  C_4
REMARK    4  A    between atoms: C_3  and  C_5
REMARK    5  A    between atoms: C_5  and  C_6
REMARK                            x       y       z     vdW  Elec       q    Type
REMARK                         _______ _______ _______ _____ _____    ______ ____
ROOT
ATOM      1  C   UNL     1       6.546   3.637  12.834  0.00  0.00    +0.000 C 
ATOM      2  C   UNL     1       7.251   4.786  12.111  0.00  0.00    +0.000 C 
ENDROOT
BRANCH   1   4
ATOM      3  C   UNL     1       4.383   3.283  11.522  0.00  0.00    +0.000 C 
ATOM      4  C   UNL     1       5.758   2.730  11.865  0.00  0.00    +0.000 C 
ENDBRANCH   1   4
BRANCH   1   5
ATOM      5  C   UNL     1       5.620   4.190  13.933  0.00  0.00    +0.000 C 
BRANCH   5   6
ATOM      6  C   UNL     1       6.398   5.047  14.922  0.00  0.00    +0.000 C 
ATOM      7  O   UNL     1       5.876   6.192  15.118  0.00  0.00    +0.000 OA
ATOM      8  O   UNL     1       7.424   4.553  15.439  0.00  0.00    +0.000 OA
ENDBRANCH   5   6
ENDBRANCH   1   5
TORSDOF 3
ENDMDL
MODEL 7
REMARK VINA RESULT:      -4.0      2.218      2.894
REMARK  Name = 
REMARK  5 active torsions:
REMARK  status: ('A' for Active; 'I' for Inactive)
REMARK    1  A    between atoms: C_1  and  C_2
REMARK    2  A    between atoms: C_2  and  C_3
REMARK    3  A    between atoms: C_3  and  C_4
REMARK    4  A    between atoms: C_3  and  C_5
REMARK    5  A    between atoms: C_5  and  C_6
REMARK                            x       y       z     vdW  Elec       q    Type
REMARK                         _______ _______ _______ _____ _____    ______ ____
ROOT
ATOM      1  C   UNL     1       2.235   3.301  18.773  0.00  0.00    +0.000 C 
ATOM      2  C   UNL     1       1.701   4.327  17.773  0.00  0.00    +0.000 C 
ENDROOT
BRANCH   1   4
ATOM      3  C   UNL     1       1.264   2.914  21.103  0.00  0.00    +0.000 C 
ATOM      4  C   UNL     1       1.111   2.658  19.612  0.00  0.00    +0.000 C 
ENDBRANCH   1   4
BRANCH   1   5
ATOM      5  C   UNL     1       3.291   3.950  19.688  0.00  0.00    +0.000 C 
BRANCH   5   6
ATOM      6  C   UNL     1       4.630   3.234  19.569  0.00  0.00    +0.000 C 
ATOM      7  O   UNL     1       5.510   3.912  18.948  0.00  0.00    +0.000 OA
ATOM      8  O   UNL     1       4.733   2.102  20.089  0.00  0.00    +0.000 OA
ENDBRANCH   5   6
ENDBRANCH   1   5
TORSDOF 3
ENDMDL
MODEL 8
REMARK VINA RESULT:      -4.0      2.185      3.052
REMARK  Name = 
REMARK  5 active torsions:
REMARK  status: ('A' for Active; 'I' for Inactive)
REMARK    1  A    between atoms: C_1  and  C_2
REMARK    2  A    between atoms: C_2  and  C_3
REMARK    3  A    between atoms: C_3  and  C_4
REMARK    4  A    between atoms: C_3  and  C_5
REMARK    5  A    between atoms: C_5  and  C_6
REMARK                            x       y       z     vdW  Elec       q    Type
REMARK                         _______ _______ _______ _____ _____    ______ ____
ROOT
ATOM      1  C   UNL     1       2.017   3.247  18.397  0.00  0.00    +0.000 C 
ATOM      2  C   UNL     1       1.605   4.482  17.595  0.00  0.00    +0.000 C 
ENDROOT
BRANCH   1   4
ATOM      3  C   UNL     1       1.007   4.065  20.595  0.00  0.00    +0.000 C 
ATOM      4  C   UNL     1       1.049   2.951  19.561  0.00  0.00    +0.000 C 
ENDBRANCH   1   4
BRANCH   1   5
ATOM      5  C   UNL     1       3.458   3.409  18.918  0.00  0.00    +0.000 C 
BRANCH   5   6
ATOM      6  C   UNL     1       4.074   2.056  19.249  0.00  0.00    +0.000 C 
ATOM      7  O   UNL     1       4.852   2.089  20.256  0.00  0.00    +0.000 OA
ATOM      8  O   UNL     1       3.754   1.081  18.535  0.00  0.00    +0.000 OA
ENDBRANCH   5   6
ENDBRANCH   1   5
TORSDOF 3
ENDMDL
MODEL 9
REMARK VINA RESULT:      -3.9      2.343      3.063
REMARK  Name = 
REMARK  5 active torsions:
REMARK  status: ('A' for Active; 'I' for Inactive)
REMARK    1  A    between atoms: C_1  and  C_2
REMARK    2  A    between atoms: C_2  and  C_3
REMARK    3  A    between atoms: C_3  and  C_4
REMARK    4  A    between atoms: C_3  and  C_5
REMARK    5  A    between atoms: C_5  and  C_6
REMARK                            x       y       z     vdW  Elec       q    Type
REMARK                         _______ _______ _______ _____ _____    ______ ____
ROOT
ATOM      1  C   UNL     1       2.118   3.660  19.067  0.00  0.00    +0.000 C 
ATOM      2  C   UNL     1       1.628   4.320  17.778  0.00  0.00    +0.000 C 
ENDROOT
BRANCH   1   4
ATOM      3  C   UNL     1       1.410   2.805  21.367  0.00  0.00    +0.000 C 
ATOM      4  C   UNL     1       0.954   3.207  19.974  0.00  0.00    +0.000 C 
ENDBRANCH   1   4
BRANCH   1   5
ATOM      5  C   UNL     1       3.058   4.614  19.829  0.00  0.00    +0.000 C 
BRANCH   5   6
ATOM      6  C   UNL     1       4.489   4.489  19.323  0.00  0.00    +0.000 C 
ATOM      7  O   UNL     1       4.931   5.558  18.793  0.00  0.00    +0.000 OA
ATOM      8  O   UNL     1       5.071   3.395  19.488  0.00  0.00    +0.000 OA
ENDBRANCH   5   6
ENDBRANCH   1   5
TORSDOF 3
ENDMDL
