MODEL 1
REMARK VINA RESULT:      -8.7      0.000      0.000
REMARK  Name = 
REMARK  13 active torsions:
REMARK  status: ('A' for Active; 'I' for Inactive)
REMARK    1  A    between atoms: C_1  and  C_2
REMARK    2  A    between atoms: C_2  and  C_3
REMARK    3  A    between atoms: C_4  and  C_5
REMARK    4  A    between atoms: C_5  and  C_6
REMARK    5  A    between atoms: C_7  and  O_8
REMARK    6  A    between atoms: O_8  and  C_9
REMARK    7  A    between atoms: C_9  and  C_10
REMARK    8  A    between atoms: C_9  and  C_11
REMARK    9  A    between atoms: C_13  and  C_14
REMARK   10  A    between atoms: C_15  and  C_16
REMARK   11  A    between atoms: C_23  and  C_24
REMARK   12  A    between atoms: C_24  and  O_26
REMARK   13  A    between atoms: C_27  and  O_28
REMARK                            x       y       z     vdW  Elec       q    Type
REMARK                         _______ _______ _______ _____ _____    ______ ____
ROOT
ATOM      1  C   UNL     1       5.304   4.997  16.859  0.00  0.00    +0.000 A 
ATOM      2  C   UNL     1       5.489   6.382  16.950  0.00  0.00    +0.000 A 
ATOM      3  C   UNL     1       4.486   7.154  17.555  0.00  0.00    +0.000 A 
ATOM      4  C   UNL     1       3.240   6.631  17.947  0.00  0.00    +0.000 A 
ATOM      5  C   UNL     1       3.070   5.235  17.906  0.00  0.00    +0.000 A 
ATOM      6  C   UNL     1       4.107   4.436  17.361  0.00  0.00    +0.000 A 
ENDROOT
BRANCH   4   7
ATOM      7  C   UNL     1       2.198   7.607  18.363  0.00  0.00    +0.000 C 
ATOM      8  C   UNL     1       1.963   8.771  17.718  0.00  0.00    +0.000 C 
BRANCH   8   9
ATOM      9  C   UNL     1       0.961   9.786  18.093  0.00  0.00    +0.000 A 
ATOM     10  C   UNL     1      -0.408   9.644  17.825  0.00  0.00    +0.000 A 
ATOM     11  C   UNL     1      -1.321  10.620  18.238  0.00  0.00    +0.000 A 
ATOM     12  C   UNL     1      -0.870  11.735  18.931  0.00  0.00    +0.000 A 
ATOM     13  F   UNL     1      -1.748  12.665  19.330  0.00  0.00    +0.000 F 
ATOM     14  C   UNL     1       0.476  11.893  19.225  0.00  0.00    +0.000 A 
ATOM     15  C   UNL     1       1.389  10.919  18.808  0.00  0.00    +0.000 A 
ENDBRANCH   8   9
ENDBRANCH   4   7
BRANCH   5  16
ATOM     16  C   UNL     1       1.842   4.592  18.466  0.00  0.00    +0.000 C 
ATOM     17  O   UNL     1       1.514   4.503  19.630  0.00  0.00    +0.000 OA
BRANCH  16  18
ATOM     18  O   UNL     1       1.065   4.030  17.513  0.00  0.00    +0.000 OA
ATOM     19  H   UNL     1       0.235   4.558  17.573  0.00  0.00    +0.000 HD
ENDBRANCH  16  18
ENDBRANCH   5  16
BRANCH   6  20
ATOM     20  O   UNL     1       3.993   3.069  17.257  0.00  0.00    +0.000 OA
ATOM     21  H   UNL     1       4.440   2.662  18.028  0.00  0.00    +0.000 HD
ENDBRANCH   6  20
BRANCH   1  22
ATOM     22  C   UNL     1       6.296   4.081  16.162  0.00  0.00    +0.000 C 
BRANCH  22  26
ATOM     23  C   UNL     1       5.642   3.557  12.344  0.00  0.00    +0.000 C 
ATOM     24  C   UNL     1       6.305   3.970  13.629  0.00  0.00    +0.000 C 
ATOM     25  C   UNL     1       7.427   4.964  13.520  0.00  0.00    +0.000 C 
ATOM     26  C   UNL     1       5.869   3.520  14.823  0.00  0.00    +0.000 C 
ENDBRANCH  22  26
ENDBRANCH   1  22
BRANCH   2  27
ATOM     27  O   UNL     1       6.630   6.958  16.426  0.00  0.00    +0.000 OA
BRANCH  27  28
ATOM     28  C   UNL     1       7.726   7.190  17.338  0.00  0.00    +0.000 C 
ATOM     29  C   UNL     1       7.793   8.659  17.747  0.00  0.00    +0.000 C 
ATOM     30  C   UNL     1       7.571   6.311  18.578  0.00  0.00    +0.000 C 
ENDBRANCH  27  28
ENDBRANCH   2  27
TORSDOF 9
ENDMDL
MODEL 2
REMARK VINA RESULT:      -8.5      1.306      1.462
REMARK  Name = 
REMARK  13 active torsions:
REMARK  status: ('A' for Active; 'I' for Inactive)
REMARK    1  A    between atoms: C_1  and  C_2
REMARK    2  A    between atoms: C_2  and  C_3
REMARK    3  A    between atoms: C_4  and  C_5
REMARK    4  A    between atoms: C_5  and  C_6
REMARK    5  A    between atoms: C_7  and  O_8
REMARK    6  A    between atoms: O_8  and  C_9
REMARK    7  A    between atoms: C_9  and  C_10
REMARK    8  A    between atoms: C_9  and  C_11
REMARK    9  A    between atoms: C_13  and  C_14
REMARK   10  A    between atoms: C_15  and  C_16
REMARK   11  A    between atoms: C_23  and  C_24
REMARK   12  A    between atoms: C_24  and  O_26
REMARK   13  A    between atoms: C_27  and  O_28
REMARK                            x       y       z     vdW  Elec       q    Type
REMARK                         _______ _______ _______ _____ _____    ______ ____
ROOT
ATOM      1  C   UNL     1       5.255   4.925  16.860  0.00  0.00    +0.000 A 
ATOM      2  C   UNL     1       5.457   6.307  16.969  0.00  0.00    +0.000 A 
ATOM      3  C   UNL     1       4.476   7.078  17.608  0.00  0.00    +0.000 A 
ATOM      4  C   UNL     1       3.233   6.562  18.019  0.00  0.00    +0.000 A 
ATOM      5  C   UNL     1       3.048   5.168  17.960  0.00  0.00    +0.000 A 
ATOM      6  C   UNL     1       4.064   4.368  17.380  0.00  0.00    +0.000 A 
ENDROOT
BRANCH   4   7
ATOM      7  C   UNL     1       2.211   7.541  18.474  0.00  0.00    +0.000 C 
ATOM      8  C   UNL     1       2.083   7.949  19.756  0.00  0.00    +0.000 C 
BRANCH   8   9
ATOM      9  C   UNL     1       1.080   8.900  20.270  0.00  0.00    +0.000 A 
ATOM     10  C   UNL     1       0.743   8.995  21.628  0.00  0.00    +0.000 A 
ATOM     11  C   UNL     1      -0.188   9.941  22.068  0.00  0.00    +0.000 A 
ATOM     12  C   UNL     1      -0.776  10.804  21.154  0.00  0.00    +0.000 A 
ATOM     13  F   UNL     1      -1.664  11.714  21.579  0.00  0.00    +0.000 F 
ATOM     14  C   UNL     1      -0.450  10.744  19.807  0.00  0.00    +0.000 A 
ATOM     15  C   UNL     1       0.479   9.795  19.367  0.00  0.00    +0.000 A 
ENDBRANCH   8   9
ENDBRANCH   4   7
BRANCH   5  16
ATOM     16  C   UNL     1       1.826   4.529  18.537  0.00  0.00    +0.000 C 
ATOM     17  O   UNL     1       1.505   4.457  19.704  0.00  0.00    +0.000 OA
BRANCH  16  18
ATOM     18  O   UNL     1       1.047   3.948  17.598  0.00  0.00    +0.000 OA
ATOM     19  H   UNL     1       1.635   3.247  17.233  0.00  0.00    +0.000 HD
ENDBRANCH  16  18
ENDBRANCH   5  16
BRANCH   6  20
ATOM     20  O   UNL     1       3.934   3.004  17.257  0.00  0.00    +0.000 OA
ATOM     21  H   UNL     1       4.561   2.577  17.877  0.00  0.00    +0.000 HD
ENDBRANCH   6  20
BRANCH   1  22
ATOM     22  C   UNL     1       6.223   4.010  16.127  0.00  0.00    +0.000 C 
BRANCH  22  26
ATOM     23  C   UNL     1       5.565   3.604  12.295  0.00  0.00    +0.000 C 
ATOM     24  C   UNL     1       6.242   3.953  13.592  0.00  0.00    +0.000 C 
ATOM     25  C   UNL     1       7.416   4.887  13.510  0.00  0.00    +0.000 C 
ATOM     26  C   UNL     1       5.774   3.502  14.774  0.00  0.00    +0.000 C 
ENDBRANCH  22  26
ENDBRANCH   1  22
BRANCH   2  27
ATOM     27  O   UNL     1       6.591   6.880  16.428  0.00  0.00    +0.000 OA
BRANCH  27  28
ATOM     28  C   UNL     1       7.697   7.118  17.327  0.00  0.00    +0.000 C 
ATOM     29  C   UNL     1       7.777   8.594  17.711  0.00  0.00    +0.000 C 
ATOM     30  C   UNL     1       7.547   6.261  18.583  0.00  0.00    +0.000 C 
ENDBRANCH  27  28
ENDBRANCH   2  27
TORSDOF 9
ENDMDL
MODEL 3
REMARK VINA RESULT:      -8.4      0.719      1.161
REMARK  Name = 
REMARK  13 active torsions:
REMARK  status: ('A' for Active; 'I' for Inactive)
REMARK    1  A    between atoms: C_1  and  C_2
REMARK    2  A    between atoms: C_2  and  C_3
REMARK    3  A    between atoms: C_4  and  C_5
REMARK    4  A    between atoms: C_5  and  C_6
REMARK    5  A    between atoms: C_7  and  O_8
REMARK    6  A    between atoms: O_8  and  C_9
REMARK    7  A    between atoms: C_9  and  C_10
REMARK    8  A    between atoms: C_9  and  C_11
REMARK    9  A    between atoms: C_13  and  C_14
REMARK   10  A    between atoms: C_15  and  C_16
REMARK   11  A    between atoms: C_23  and  C_24
REMARK   12  A    between atoms: C_24  and  O_26
REMARK   13  A    between atoms: C_27  and  O_28
REMARK                            x       y       z     vdW  Elec       q    Type
REMARK                         _______ _______ _______ _____ _____    ______ ____
ROOT
ATOM      1  C   UNL     1       5.506   4.961  16.724  0.00  0.00    +0.000 A 
ATOM      2  C   UNL     1       5.579   6.343  16.945  0.00  0.00    +0.000 A 
ATOM      3  C   UNL     1       4.545   6.961  17.663  0.00  0.00    +0.000 A 
ATOM      4  C   UNL     1       3.368   6.295  18.050  0.00  0.00    +0.000 A 
ATOM      5  C   UNL     1       3.314   4.900  17.877  0.00  0.00    +0.000 A 
ATOM      6  C   UNL     1       4.386   4.252  17.215  0.00  0.00    +0.000 A 
ENDROOT
BRANCH   4   7
ATOM      7  C   UNL     1       2.269   7.131  18.603  0.00  0.00    +0.000 C 
ATOM      8  C   UNL     1       2.064   8.421  18.256  0.00  0.00    +0.000 C 
BRANCH   8   9
ATOM      9  C   UNL     1       1.008   9.305  18.783  0.00  0.00    +0.000 A 
ATOM     10  C   UNL     1       0.915   9.663  20.136  0.00  0.00    +0.000 A 
ATOM     11  C   UNL     1      -0.084  10.536  20.576  0.00  0.00    +0.000 A 
ATOM     12  C   UNL     1      -0.987  11.066  19.665  0.00  0.00    +0.000 A 
ATOM     13  F   UNL     1      -1.940  11.906  20.089  0.00  0.00    +0.000 F 
ATOM     14  C   UNL     1      -0.909  10.742  18.318  0.00  0.00    +0.000 A 
ATOM     15  C   UNL     1       0.088   9.866  17.878  0.00  0.00    +0.000 A 
ENDBRANCH   8   9
ENDBRANCH   4   7
BRANCH   5  16
ATOM     16  C   UNL     1       2.173   4.100  18.420  0.00  0.00    +0.000 C 
ATOM     17  O   UNL     1       1.243   3.621  17.807  0.00  0.00    +0.000 OA
BRANCH  16  18
ATOM     18  O   UNL     1       2.224   3.962  19.763  0.00  0.00    +0.000 OA
ATOM     19  H   UNL     1       1.401   3.456  19.959  0.00  0.00    +0.000 HD
ENDBRANCH  16  18
ENDBRANCH   5  16
BRANCH   6  20
ATOM     20  O   UNL     1       4.383   2.896  16.981  0.00  0.00    +0.000 OA
ATOM     21  H   UNL     1       4.971   2.713  16.219  0.00  0.00    +0.000 HD
ENDBRANCH   6  20
BRANCH   1  22
ATOM     22  C   UNL     1       6.537   4.207  15.900  0.00  0.00    +0.000 C 
BRANCH  22  26
ATOM     23  C   UNL     1       5.658   3.454  12.166  0.00  0.00    +0.000 C 
ATOM     24  C   UNL     1       6.391   3.952  13.382  0.00  0.00    +0.000 C 
ATOM     25  C   UNL     1       7.482   4.957  13.146  0.00  0.00    +0.000 C 
ATOM     26  C   UNL     1       6.040   3.563  14.624  0.00  0.00    +0.000 C 
ENDBRANCH  22  26
ENDBRANCH   1  22
BRANCH   2  27
ATOM     27  O   UNL     1       6.640   7.065  16.435  0.00  0.00    +0.000 OA
BRANCH  27  28
ATOM     28  C   UNL     1       7.742   7.331  17.330  0.00  0.00    +0.000 C 
ATOM     29  C   UNL     1       7.732   8.787  17.789  0.00  0.00    +0.000 C 
ATOM     30  C   UNL     1       7.670   6.403  18.542  0.00  0.00    +0.000 C 
ENDBRANCH  27  28
ENDBRANCH   2  27
TORSDOF 9
ENDMDL
MODEL 4
REMARK VINA RESULT:      -8.3      0.882      1.211
REMARK  Name = 
REMARK  13 active torsions:
REMARK  status: ('A' for Active; 'I' for Inactive)
REMARK    1  A    between atoms: C_1  and  C_2
REMARK    2  A    between atoms: C_2  and  C_3
REMARK    3  A    between atoms: C_4  and  C_5
REMARK    4  A    between atoms: C_5  and  C_6
REMARK    5  A    between atoms: C_7  and  O_8
REMARK    6  A    between atoms: O_8  and  C_9
REMARK    7  A    between atoms: C_9  and  C_10
REMARK    8  A    between atoms: C_9  and  C_11
REMARK    9  A    between atoms: C_13  and  C_14
REMARK   10  A    between atoms: C_15  and  C_16
REMARK   11  A    between atoms: C_23  and  C_24
REMARK   12  A    between atoms: C_24  and  O_26
REMARK   13  A    between atoms: C_27  and  O_28
REMARK                            x       y       z     vdW  Elec       q    Type
REMARK                         _______ _______ _______ _____ _____    ______ ____
ROOT
ATOM      1  C   UNL     1       5.580   4.906  16.700  0.00  0.00    +0.000 A 
ATOM      2  C   UNL     1       5.644   6.287  16.929  0.00  0.00    +0.000 A 
ATOM      3  C   UNL     1       4.577   6.905  17.596  0.00  0.00    +0.000 A 
ATOM      4  C   UNL     1       3.380   6.241  17.920  0.00  0.00    +0.000 A 
ATOM      5  C   UNL     1       3.332   4.846  17.739  0.00  0.00    +0.000 A 
ATOM      6  C   UNL     1       4.435   4.198  17.131  0.00  0.00    +0.000 A 
ENDROOT
BRANCH   4   7
ATOM      7  C   UNL     1       2.256   7.077  18.419  0.00  0.00    +0.000 C 
ATOM      8  C   UNL     1       2.177   8.413  18.231  0.00  0.00    +0.000 C 
BRANCH   8   9
ATOM      9  C   UNL     1       1.102   9.298  18.717  0.00  0.00    +0.000 A 
ATOM     10  C   UNL     1       0.171   9.909  17.864  0.00  0.00    +0.000 A 
ATOM     11  C   UNL     1      -0.853  10.708  18.382  0.00  0.00    +0.000 A 
ATOM     12  C   UNL     1      -0.959  10.889  19.754  0.00  0.00    +0.000 A 
ATOM     13  F   UNL     1      -1.944  11.651  20.247  0.00  0.00    +0.000 F 
ATOM     14  C   UNL     1      -0.062  10.283  20.622  0.00  0.00    +0.000 A 
ATOM     15  C   UNL     1       0.964   9.487  20.104  0.00  0.00    +0.000 A 
ENDBRANCH   8   9
ENDBRANCH   4   7
BRANCH   5  16
ATOM     16  C   UNL     1       2.163   4.047  18.220  0.00  0.00    +0.000 C 
ATOM     17  O   UNL     1       1.154   3.763  17.609  0.00  0.00    +0.000 OA
BRANCH  16  18
ATOM     18  O   UNL     1       2.291   3.655  19.507  0.00  0.00    +0.000 OA
ATOM     19  H   UNL     1       1.367   3.716  19.844  0.00  0.00    +0.000 HD
ENDBRANCH  16  18
ENDBRANCH   5  16
BRANCH   6  20
ATOM     20  O   UNL     1       4.441   2.844  16.891  0.00  0.00    +0.000 OA
ATOM     21  H   UNL     1       3.865   2.409  17.554  0.00  0.00    +0.000 HD
ENDBRANCH   6  20
BRANCH   1  22
ATOM     22  C   UNL     1       6.651   4.153  15.927  0.00  0.00    +0.000 C 
BRANCH  22  26
ATOM     23  C   UNL     1       7.461   4.966  12.190  0.00  0.00    +0.000 C 
ATOM     24  C   UNL     1       6.736   4.476  13.414  0.00  0.00    +0.000 C 
ATOM     25  C   UNL     1       5.581   3.543  13.184  0.00  0.00    +0.000 C 
ATOM     26  C   UNL     1       7.147   4.806  14.655  0.00  0.00    +0.000 C 
ENDBRANCH  22  26
ENDBRANCH   1  22
BRANCH   2  27
ATOM     27  O   UNL     1       6.732   7.008  16.478  0.00  0.00    +0.000 OA
BRANCH  27  28
ATOM     28  C   UNL     1       7.798   7.248  17.422  0.00  0.00    +0.000 C 
ATOM     29  C   UNL     1       7.853   8.722  17.819  0.00  0.00    +0.000 C 
ATOM     30  C   UNL     1       7.602   6.383  18.666  0.00  0.00    +0.000 C 
ENDBRANCH  27  28
ENDBRANCH   2  27
TORSDOF 9
ENDMDL
MODEL 5
REMARK VINA RESULT:      -8.2      0.586      1.408
REMARK  Name = 
REMARK  13 active torsions:
REMARK  status: ('A' for Active; 'I' for Inactive)
REMARK    1  A    between atoms: C_1  and  C_2
REMARK    2  A    between atoms: C_2  and  C_3
REMARK    3  A    between atoms: C_4  and  C_5
REMARK    4  A    between atoms: C_5  and  C_6
REMARK    5  A    between atoms: C_7  and  O_8
REMARK    6  A    between atoms: O_8  and  C_9
REMARK    7  A    between atoms: C_9  and  C_10
REMARK    8  A    between atoms: C_9  and  C_11
REMARK    9  A    between atoms: C_13  and  C_14
REMARK   10  A    between atoms: C_15  and  C_16
REMARK   11  A    between atoms: C_23  and  C_24
REMARK   12  A    between atoms: C_24  and  O_26
REMARK   13  A    between atoms: C_27  and  O_28
REMARK                            x       y       z     vdW  Elec       q    Type
REMARK                         _______ _______ _______ _____ _____    ______ ____
ROOT
ATOM      1  C   UNL     1       5.275   5.149  16.962  0.00  0.00    +0.000 A 
ATOM      2  C   UNL     1       5.421   6.515  17.235  0.00  0.00    +0.000 A 
ATOM      3  C   UNL     1       4.351   7.196  17.834  0.00  0.00    +0.000 A 
ATOM      4  C   UNL     1       3.086   6.616  18.043  0.00  0.00    +0.000 A 
ATOM      5  C   UNL     1       2.951   5.234  17.819  0.00  0.00    +0.000 A 
ATOM      6  C   UNL     1       4.050   4.518  17.281  0.00  0.00    +0.000 A 
ENDROOT
BRANCH   4   7
ATOM      7  C   UNL     1       1.990   7.523  18.476  0.00  0.00    +0.000 C 
ATOM      8  C   UNL     1       1.762   8.736  17.925  0.00  0.00    +0.000 C 
BRANCH   8   9
ATOM      9  C   UNL     1       0.707   9.687  18.324  0.00  0.00    +0.000 A 
ATOM     10  C   UNL     1       0.888  10.655  19.323  0.00  0.00    +0.000 A 
ATOM     11  C   UNL     1      -0.133  11.557  19.635  0.00  0.00    +0.000 A 
ATOM     12  C   UNL     1      -1.334  11.505  18.942  0.00  0.00    +0.000 A 
ATOM     13  F   UNL     1      -2.309  12.375  19.240  0.00  0.00    +0.000 F 
ATOM     14  C   UNL     1      -1.536  10.569  17.938  0.00  0.00    +0.000 A 
ATOM     15  C   UNL     1      -0.515   9.664  17.628  0.00  0.00    +0.000 A 
ENDBRANCH   8   9
ENDBRANCH   4   7
BRANCH   5  16
ATOM     16  C   UNL     1       1.692   4.514  18.183  0.00  0.00    +0.000 C 
ATOM     17  O   UNL     1       1.300   4.214  19.290  0.00  0.00    +0.000 OA
BRANCH  16  18
ATOM     18  O   UNL     1       0.967   4.151  17.101  0.00  0.00    +0.000 OA
ATOM     19  H   UNL     1       0.486   3.353  17.423  0.00  0.00    +0.000 HD
ENDBRANCH  16  18
ENDBRANCH   5  16
BRANCH   6  20
ATOM     20  O   UNL     1       3.976   3.173  17.004  0.00  0.00    +0.000 OA
ATOM     21  H   UNL     1       4.215   3.037  16.063  0.00  0.00    +0.000 HD
ENDBRANCH   6  20
BRANCH   1  22
ATOM     22  C   UNL     1       6.346   4.335  16.255  0.00  0.00    +0.000 C 
BRANCH  22  26
ATOM     23  C   UNL     1       7.781   5.179  12.717  0.00  0.00    +0.000 C 
ATOM     24  C   UNL     1       6.867   4.663  13.795  0.00  0.00    +0.000 C 
ATOM     25  C   UNL     1       5.801   3.693  13.368  0.00  0.00    +0.000 C 
ATOM     26  C   UNL     1       7.040   5.005  15.088  0.00  0.00    +0.000 C 
ENDBRANCH  22  26
ENDBRANCH   1  22
BRANCH   2  27
ATOM     27  O   UNL     1       6.591   7.163  16.891  0.00  0.00    +0.000 OA
BRANCH  27  28
ATOM     28  C   UNL     1       7.365   7.736  17.968  0.00  0.00    +0.000 C 
ATOM     29  C   UNL     1       8.176   6.661  18.688  0.00  0.00    +0.000 C 
ATOM     30  C   UNL     1       8.300   8.816  17.426  0.00  0.00    +0.000 C 
ENDBRANCH  27  28
ENDBRANCH   2  27
TORSDOF 9
ENDMDL
MODEL 6
REMARK VINA RESULT:      -8.1      1.599      1.768
REMARK  Name = 
REMARK  13 active torsions:
REMARK  status: ('A' for Active; 'I' for Inactive)
REMARK    1  A    between atoms: C_1  and  C_2
REMARK    2  A    between atoms: C_2  and  C_3
REMARK    3  A    between atoms: C_4  and  C_5
REMARK    4  A    between atoms: C_5  and  C_6
REMARK    5  A    between atoms: C_7  and  O_8
REMARK    6  A    between atoms: O_8  and  C_9
REMARK    7  A    between atoms: C_9  and  C_10
REMARK    8  A    between atoms: C_9  and  C_11
REMARK    9  A    between atoms: C_13  and  C_14
REMARK   10  A    between atoms: C_15  and  C_16
REMARK   11  A    between atoms: C_23  and  C_24
REMARK   12  A    between atoms: C_24  and  O_26
REMARK   13  A    between atoms: C_27  and  O_28
REMARK                            x       y       z     vdW  Elec       q    Type
REMARK                         _______ _______ _______ _____ _____    ______ ____
ROOT
ATOM      1  C   UNL     1       5.230   4.853  17.047  0.00  0.00    +0.000 A 
ATOM      2  C   UNL     1       5.417   6.239  17.128  0.00  0.00    +0.000 A 
ATOM      3  C   UNL     1       4.458   7.006  17.805  0.00  0.00    +0.000 A 
ATOM      4  C   UNL     1       3.244   6.479  18.282  0.00  0.00    +0.000 A 
ATOM      5  C   UNL     1       3.075   5.082  18.250  0.00  0.00    +0.000 A 
ATOM      6  C   UNL     1       4.073   4.288  17.632  0.00  0.00    +0.000 A 
ENDROOT
BRANCH   4   7
ATOM      7  C   UNL     1       2.232   7.451  18.774  0.00  0.00    +0.000 C 
ATOM      8  C   UNL     1       2.150   7.861  20.059  0.00  0.00    +0.000 C 
BRANCH   8   9
ATOM      9  C   UNL     1       1.159   8.804  20.610  0.00  0.00    +0.000 A 
ATOM     10  C   UNL     1       0.440   9.708  19.813  0.00  0.00    +0.000 A 
ATOM     11  C   UNL     1      -0.516  10.555  20.382  0.00  0.00    +0.000 A 
ATOM     12  C   UNL     1      -0.767  10.493  21.745  0.00  0.00    +0.000 A 
ATOM     13  F   UNL     1      -1.689  11.302  22.286  0.00  0.00    +0.000 F 
ATOM     14  C   UNL     1      -0.083   9.597  22.555  0.00  0.00    +0.000 A 
ATOM     15  C   UNL     1       0.876   8.753  21.986  0.00  0.00    +0.000 A 
ENDBRANCH   8   9
ENDBRANCH   4   7
BRANCH   5  16
ATOM     16  C   UNL     1       1.892   4.435  18.895  0.00  0.00    +0.000 C 
ATOM     17  O   UNL     1       0.938   3.920  18.352  0.00  0.00    +0.000 OA
BRANCH  16  18
ATOM     18  O   UNL     1       1.934   4.496  20.245  0.00  0.00    +0.000 OA
ATOM     19  H   UNL     1       2.335   5.382  20.407  0.00  0.00    +0.000 HD
ENDBRANCH  16  18
ENDBRANCH   5  16
BRANCH   6  20
ATOM     20  O   UNL     1       3.956   2.921  17.533  0.00  0.00    +0.000 OA
ATOM     21  H   UNL     1       4.576   2.510  18.171  0.00  0.00    +0.000 HD
ENDBRANCH   6  20
BRANCH   1  22
ATOM     22  C   UNL     1       6.173   3.941  16.279  0.00  0.00    +0.000 C 
BRANCH  22  26
ATOM     23  C   UNL     1       5.461   3.688  12.444  0.00  0.00    +0.000 C 
ATOM     24  C   UNL     1       6.155   3.986  13.744  0.00  0.00    +0.000 C 
ATOM     25  C   UNL     1       7.326   4.926  13.683  0.00  0.00    +0.000 C 
ATOM     26  C   UNL     1       5.706   3.487  14.913  0.00  0.00    +0.000 C 
ENDBRANCH  22  26
ENDBRANCH   1  22
BRANCH   2  27
ATOM     27  O   UNL     1       6.516   6.819  16.525  0.00  0.00    +0.000 OA
BRANCH  27  28
ATOM     28  C   UNL     1       7.663   7.079  17.364  0.00  0.00    +0.000 C 
ATOM     29  C   UNL     1       7.780   8.569  17.680  0.00  0.00    +0.000 C 
ATOM     30  C   UNL     1       7.557   6.279  18.661  0.00  0.00    +0.000 C 
ENDBRANCH  27  28
ENDBRANCH   2  27
TORSDOF 9
ENDMDL
MODEL 7
REMARK VINA RESULT:      -8.0      1.954      2.332
REMARK  Name = 
REMARK  13 active torsions:
REMARK  status: ('A' for Active; 'I' for Inactive)
REMARK    1  A    between atoms: C_1  and  C_2
REMARK    2  A    between atoms: C_2  and  C_3
REMARK    3  A    between atoms: C_4  and  C_5
REMARK    4  A    between atoms: C_5  and  C_6
REMARK    5  A    between atoms: C_7  and  O_8
REMARK    6  A    between atoms: O_8  and  C_9
REMARK    7  A    between atoms: C_9  and  C_10
REMARK    8  A    between atoms: C_9  and  C_11
REMARK    9  A    between atoms: C_13  and  C_14
REMARK   10  A    between atoms: C_15  and  C_16
REMARK   11  A    between atoms: C_23  and  C_24
REMARK   12  A    between atoms: C_24  and  O_26
REMARK   13  A    between atoms: C_27  and  O_28
REMARK                            x       y       z     vdW  Elec       q    Type
REMARK                         _______ _______ _______ _____ _____    ______ ____
ROOT
ATOM      1  C   UNL     1       4.540   4.359  17.255  0.00  0.00    +0.000 A 
ATOM      2  C   UNL     1       4.853   5.644  17.716  0.00  0.00    +0.000 A 
ATOM      3  C   UNL     1       4.026   6.227  18.687  0.00  0.00    +0.000 A 
ATOM      4  C   UNL     1       2.817   5.650  19.119  0.00  0.00    +0.000 A 
ATOM      5  C   UNL     1       2.526   4.339  18.699  0.00  0.00    +0.000 A 
ATOM      6  C   UNL     1       3.394   3.711  17.771  0.00  0.00    +0.000 A 
ENDROOT
BRANCH   4   7
ATOM      7  C   UNL     1       1.939   6.487  19.979  0.00  0.00    +0.000 C 
ATOM      8  C   UNL     1       1.896   7.836  19.917  0.00  0.00    +0.000 C 
BRANCH   8   9
ATOM      9  C   UNL     1       1.064   8.719  20.756  0.00  0.00    +0.000 A 
ATOM     10  C   UNL     1       1.038   8.642  22.156  0.00  0.00    +0.000 A 
ATOM     11  C   UNL     1       0.260   9.529  22.905  0.00  0.00    +0.000 A 
ATOM     12  C   UNL     1      -0.486  10.506  22.259  0.00  0.00    +0.000 A 
ATOM     13  F   UNL     1      -1.226  11.358  22.981  0.00  0.00    +0.000 F 
ATOM     14  C   UNL     1      -0.467  10.617  20.877  0.00  0.00    +0.000 A 
ATOM     15  C   UNL     1       0.309   9.726  20.127  0.00  0.00    +0.000 A 
ENDBRANCH   8   9
ENDBRANCH   4   7
BRANCH   5  16
ATOM     16  C   UNL     1       1.352   3.596  19.251  0.00  0.00    +0.000 C 
ATOM     17  O   UNL     1       1.051   3.440  20.415  0.00  0.00    +0.000 OA
BRANCH  16  18
ATOM     18  O   UNL     1       0.596   3.024  18.288  0.00  0.00    +0.000 OA
ATOM     19  H   UNL     1       1.149   3.145  17.481  0.00  0.00    +0.000 HD
ENDBRANCH  16  18
ENDBRANCH   5  16
BRANCH   6  20
ATOM     20  O   UNL     1       3.152   2.445  17.291  0.00  0.00    +0.000 OA
ATOM     21  H   UNL     1       3.526   2.380  16.388  0.00  0.00    +0.000 HD
ENDBRANCH   6  20
BRANCH   1  22
ATOM     22  C   UNL     1       5.331   3.667  16.157  0.00  0.00    +0.000 C 
BRANCH  22  26
ATOM     23  C   UNL     1       7.640   5.139  13.368  0.00  0.00    +0.000 C 
ATOM     24  C   UNL     1       6.487   4.445  14.039  0.00  0.00    +0.000 C 
ATOM     25  C   UNL     1       5.614   3.590  13.165  0.00  0.00    +0.000 C 
ATOM     26  C   UNL     1       6.290   4.534  15.370  0.00  0.00    +0.000 C 
ENDBRANCH  22  26
ENDBRANCH   1  22
BRANCH   2  27
ATOM     27  O   UNL     1       5.941   6.315  17.193  0.00  0.00    +0.000 OA
BRANCH  27  28
ATOM     28  C   UNL     1       6.917   6.814  18.134  0.00  0.00    +0.000 C 
ATOM     29  C   UNL     1       7.801   5.683  18.653  0.00  0.00    +0.000 C 
ATOM     30  C   UNL     1       7.782   7.887  17.473  0.00  0.00    +0.000 C 
ENDBRANCH  27  28
ENDBRANCH   2  27
TORSDOF 9
ENDMDL
MODEL 8
REMARK VINA RESULT:      -8.0      3.737      7.202
REMARK  Name = 
REMARK  13 active torsions:
REMARK  status: ('A' for Active; 'I' for Inactive)
REMARK    1  A    between atoms: C_1  and  C_2
REMARK    2  A    between atoms: C_2  and  C_3
REMARK    3  A    between atoms: C_4  and  C_5
REMARK    4  A    between atoms: C_5  and  C_6
REMARK    5  A    between atoms: C_7  and  O_8
REMARK    6  A    between atoms: O_8  and  C_9
REMARK    7  A    between atoms: C_9  and  C_10
REMARK    8  A    between atoms: C_9  and  C_11
REMARK    9  A    between atoms: C_13  and  C_14
REMARK   10  A    between atoms: C_15  and  C_16
REMARK   11  A    between atoms: C_23  and  C_24
REMARK   12  A    between atoms: C_24  and  O_26
REMARK   13  A    between atoms: C_27  and  O_28
REMARK                            x       y       z     vdW  Elec       q    Type
REMARK                         _______ _______ _______ _____ _____    ______ ____
ROOT
ATOM      1  C   UNL     1       4.310   5.368  17.872  0.00  0.00    +0.000 A 
ATOM      2  C   UNL     1       4.276   6.717  17.494  0.00  0.00    +0.000 A 
ATOM      3  C   UNL     1       5.486   7.421  17.417  0.00  0.00    +0.000 A 
ATOM      4  C   UNL     1       6.719   6.886  17.837  0.00  0.00    +0.000 A 
ATOM      5  C   UNL     1       6.765   5.519  18.166  0.00  0.00    +0.000 A 
ATOM      6  C   UNL     1       5.557   4.778  18.179  0.00  0.00    +0.000 A 
ENDROOT
BRANCH   4   7
ATOM      7  C   UNL     1       7.872   7.823  17.908  0.00  0.00    +0.000 C 
ATOM      8  C   UNL     1       7.841   8.999  18.573  0.00  0.00    +0.000 C 
BRANCH   8   9
ATOM      9  C   UNL     1       8.942   9.976  18.662  0.00  0.00    +0.000 A 
ATOM     10  C   UNL     1       9.506  10.596  17.537  0.00  0.00    +0.000 A 
ATOM     11  C   UNL     1      10.523  11.546  17.681  0.00  0.00    +0.000 A 
ATOM     12  C   UNL     1      10.971  11.888  18.949  0.00  0.00    +0.000 A 
ATOM     13  F   UNL     1      11.942  12.802  19.083  0.00  0.00    +0.000 F 
ATOM     14  C   UNL     1      10.421  11.302  20.080  0.00  0.00    +0.000 A 
ATOM     15  C   UNL     1       9.406  10.350  19.935  0.00  0.00    +0.000 A 
ENDBRANCH   8   9
ENDBRANCH   4   7
BRANCH   5  16
ATOM     16  C   UNL     1       8.066   4.840  18.453  0.00  0.00    +0.000 C 
ATOM     17  O   UNL     1       8.659   4.044  17.758  0.00  0.00    +0.000 OA
BRANCH  16  18
ATOM     18  O   UNL     1       8.571   5.170  19.663  0.00  0.00    +0.000 OA
ATOM     19  H   UNL     1       8.002   5.927  19.935  0.00  0.00    +0.000 HD
ENDBRANCH  16  18
ENDBRANCH   5  16
BRANCH   6  20
ATOM     20  O   UNL     1       5.525   3.448  18.525  0.00  0.00    +0.000 OA
ATOM     21  H   UNL     1       4.595   3.140  18.487  0.00  0.00    +0.000 HD
ENDBRANCH   6  20
BRANCH   1  22
ATOM     22  C   UNL     1       3.051   4.535  18.052  0.00  0.00    +0.000 C 
BRANCH  22  26
ATOM     23  C   UNL     1       1.296   3.075  21.225  0.00  0.00    +0.000 C 
ATOM     24  C   UNL     1       1.733   3.252  19.797  0.00  0.00    +0.000 C 
ATOM     25  C   UNL     1       0.958   2.495  18.756  0.00  0.00    +0.000 C 
ATOM     26  C   UNL     1       2.728   4.099  19.465  0.00  0.00    +0.000 C 
ENDBRANCH  22  26
ENDBRANCH   1  22
BRANCH   2  27
ATOM     27  O   UNL     1       3.065   7.327  17.233  0.00  0.00    +0.000 OA
BRANCH  27  28
ATOM     28  C   UNL     1       2.623   8.334  18.169  0.00  0.00    +0.000 C 
ATOM     29  C   UNL     1       1.473   9.152  17.586  0.00  0.00    +0.000 C 
ATOM     30  C   UNL     1       2.183   7.679  19.477  0.00  0.00    +0.000 C 
ENDBRANCH  27  28
ENDBRANCH   2  27
TORSDOF 9
ENDMDL
MODEL 9
REMARK VINA RESULT:      -7.9      1.615      1.818
REMARK  Name = 
REMARK  13 active torsions:
REMARK  status: ('A' for Active; 'I' for Inactive)
REMARK    1  A    between atoms: C_1  and  C_2
REMARK    2  A    between atoms: C_2  and  C_3
REMARK    3  A    between atoms: C_4  and  C_5
REMARK    4  A    between atoms: C_5  and  C_6
REMARK    5  A    between atoms: C_7  and  O_8
REMARK    6  A    between atoms: O_8  and  C_9
REMARK    7  A    between atoms: C_9  and  C_10
REMARK    8  A    between atoms: C_9  and  C_11
REMARK    9  A    between atoms: C_13  and  C_14
REMARK   10  A    between atoms: C_15  and  C_16
REMARK   11  A    between atoms: C_23  and  C_24
REMARK   12  A    between atoms: C_24  and  O_26
REMARK   13  A    between atoms: C_27  and  O_28
REMARK                            x       y       z     vdW  Elec       q    Type
REMARK                         _______ _______ _______ _____ _____    ______ ____
ROOT
ATOM      1  C   UNL     1       5.021   4.541  16.731  0.00  0.00    +0.000 A 
ATOM      2  C   UNL     1       5.279   5.865  17.110  0.00  0.00    +0.000 A 
ATOM      3  C   UNL     1       4.467   6.451  18.091  0.00  0.00    +0.000 A 
ATOM      4  C   UNL     1       3.316   5.832  18.613  0.00  0.00    +0.000 A 
ATOM      5  C   UNL     1       3.083   4.486  18.274  0.00  0.00    +0.000 A 
ATOM      6  C   UNL     1       3.940   3.859  17.336  0.00  0.00    +0.000 A 
ENDROOT
BRANCH   4   7
ATOM      7  C   UNL     1       2.433   6.662  19.474  0.00  0.00    +0.000 C 
ATOM      8  C   UNL     1       2.095   7.939  19.188  0.00  0.00    +0.000 C 
BRANCH   8   9
ATOM      9  C   UNL     1       1.242   8.818  20.010  0.00  0.00    +0.000 A 
ATOM     10  C   UNL     1       0.535   9.907  19.482  0.00  0.00    +0.000 A 
ATOM     11  C   UNL     1      -0.290  10.686  20.300  0.00  0.00    +0.000 A 
ATOM     12  C   UNL     1      -0.422  10.370  21.645  0.00  0.00    +0.000 A 
ATOM     13  F   UNL     1      -1.217  11.115  22.425  0.00  0.00    +0.000 F 
ATOM     14  C   UNL     1       0.254   9.288  22.191  0.00  0.00    +0.000 A 
ATOM     15  C   UNL     1       1.082   8.512  21.373  0.00  0.00    +0.000 A 
ENDBRANCH   8   9
ENDBRANCH   4   7
BRANCH   5  16
ATOM     16  C   UNL     1       1.982   3.709  18.922  0.00  0.00    +0.000 C 
ATOM     17  O   UNL     1       1.857   3.433  20.096  0.00  0.00    +0.000 OA
BRANCH  16  18
ATOM     18  O   UNL     1       1.068   3.259  18.034  0.00  0.00    +0.000 OA
ATOM     19  H   UNL     1       1.450   2.396  17.751  0.00  0.00    +0.000 HD
ENDBRANCH  16  18
ENDBRANCH   5  16
BRANCH   6  20
ATOM     20  O   UNL     1       3.750   2.558  16.933  0.00  0.00    +0.000 OA
ATOM     21  H   UNL     1       2.788   2.405  16.827  0.00  0.00    +0.000 HD
ENDBRANCH   6  20
BRANCH   1  22
ATOM     22  C   UNL     1       5.797   3.837  15.630  0.00  0.00    +0.000 C 
BRANCH  22  26
ATOM     23  C   UNL     1       7.779   5.257  12.574  0.00  0.00    +0.000 C 
ATOM     24  C   UNL     1       6.757   4.502  13.379  0.00  0.00    +0.000 C 
ATOM     25  C   UNL     1       5.976   3.443  12.655  0.00  0.00    +0.000 C 
ATOM     26  C   UNL     1       6.599   4.722  14.700  0.00  0.00    +0.000 C 
ENDBRANCH  22  26
ENDBRANCH   1  22
BRANCH   2  27
ATOM     27  O   UNL     1       6.301   6.567  16.500  0.00  0.00    +0.000 OA
BRANCH  27  28
ATOM     28  C   UNL     1       7.506   6.772  17.268  0.00  0.00    +0.000 C 
ATOM     29  C   UNL     1       7.675   8.246  17.633  0.00  0.00    +0.000 C 
ATOM     30  C   UNL     1       7.469   5.924  18.538  0.00  0.00    +0.000 C 
ENDBRANCH  27  28
ENDBRANCH   2  27
TORSDOF 9
ENDMDL
