MODEL 1
REMARK VINA RESULT:      -7.5      0.000      0.000
REMARK  Name = 
REMARK  9 active torsions:
REMARK  status: ('A' for Active; 'I' for Inactive)
REMARK    1  A    between atoms: C_1  and  C_2
REMARK    2  A    between atoms: C_2  and  C_3
REMARK    3  A    between atoms: C_3  and  C_4
REMARK    4  A    between atoms: C_6  and  N_7
REMARK    5  A    between atoms: N_7  and  C_8
REMARK    6  A    between atoms: N_11  and  C_12
REMARK    7  A    between atoms: N_17  and  C_18
REMARK    8  A    between atoms: C_22  and  O_23
REMARK    9  A    between atoms: O_23  and  C_24
REMARK                            x       y       z     vdW  Elec       q    Type
REMARK                         _______ _______ _______ _____ _____    ______ ____
ROOT
ATOM      1  C   UNL     1       7.690   6.693  17.965  0.00  0.00    +0.000 A 
ATOM      2  C   UNL     1       7.052   5.767  18.764  0.00  0.00    +0.000 A 
ATOM      3  C   UNL     1       6.602   4.625  18.151  0.00  0.00    +0.000 A 
ATOM      4  N   UNL     1       6.745   4.438  16.838  0.00  0.00    +0.000 NA
ATOM      5  C   UNL     1       7.383   5.374  16.118  0.00  0.00    +0.000 A 
ATOM      6  N   UNL     1       7.568   5.176  14.751  0.00  0.00    +0.000 N 
ATOM      7  N   UNL     1       7.890   6.498  16.646  0.00  0.00    +0.000 NA
ATOM      8  H   UNL     1       8.106   5.929  14.349  0.00  0.00    +0.000 HD
ENDROOT
BRANCH   6   9
ATOM      9  C   UNL     1       6.754   4.457  13.858  0.00  0.00    +0.000 A 
ATOM     10  C   UNL     1       5.364   4.618  13.918  0.00  0.00    +0.000 A 
ATOM     11  C   UNL     1       4.536   3.982  12.993  0.00  0.00    +0.000 A 
ATOM     12  C   UNL     1       5.088   3.154  12.017  0.00  0.00    +0.000 A 
ATOM     13  C   UNL     1       6.465   2.951  11.957  0.00  0.00    +0.000 A 
ATOM     14  C   UNL     1       7.288   3.611  12.873  0.00  0.00    +0.000 A 
BRANCH  13  15
ATOM     15  O   UNL     1       6.886   2.099  10.971  0.00  0.00    +0.000 OA
ATOM     16  C   UNL     1       6.351   0.778  10.999  0.00  0.00    +0.000 C 
ENDBRANCH  13  15
ENDBRANCH   6   9
BRANCH   3  17
ATOM     17  N   UNL     1       5.914   3.630  18.809  0.00  0.00    +0.000 N 
ATOM     18  H   UNL     1       6.522   3.243  19.528  0.00  0.00    +0.000 HD
BRANCH  17  19
ATOM     19  C   UNL     1       4.503   3.752  19.166  0.00  0.00    +0.000 C 
ATOM     20  C   UNL     1       4.049   2.510  19.939  0.00  0.00    +0.000 C 
ATOM     21  C   UNL     1       2.529   2.459  20.082  0.00  0.00    +0.000 C 
ATOM     22  N   UNL     1       1.884   2.543  18.767  0.00  0.00    +0.000 NA
ATOM     23  C   UNL     1       0.438   2.369  18.879  0.00  0.00    +0.000 C 
ATOM     24  C   UNL     1       2.206   3.813  18.108  0.00  0.00    +0.000 C 
ATOM     25  C   UNL     1       3.706   3.928  17.872  0.00  0.00    +0.000 C 
ENDBRANCH  17  19
ENDBRANCH   3  17
BRANCH   1  26
ATOM     26  C   UNL     1       8.202   7.974  18.571  0.00  0.00    +0.000 C 
BRANCH  26  28
ATOM     27  C   UNL     1       8.762  10.382  18.116  0.00  0.00    +0.000 C 
ATOM     28  C   UNL     1       8.006   9.157  17.626  0.00  0.00    +0.000 C 
ENDBRANCH  26  28
ENDBRANCH   1  26
TORSDOF 6
ENDMDL
MODEL 2
REMARK VINA RESULT:      -7.5      1.690      2.347
REMARK  Name = 
REMARK  9 active torsions:
REMARK  status: ('A' for Active; 'I' for Inactive)
REMARK    1  A    between atoms: C_1  and  C_2
REMARK    2  A    between atoms: C_2  and  C_3
REMARK    3  A    between atoms: C_3  and  C_4
REMARK    4  A    between atoms: C_6  and  N_7
REMARK    5  A    between atoms: N_7  and  C_8
REMARK    6  A    between atoms: N_11  and  C_12
REMARK    7  A    between atoms: N_17  and  C_18
REMARK    8  A    between atoms: C_22  and  O_23
REMARK    9  A    between atoms: O_23  and  C_24
REMARK                            x       y       z     vdW  Elec       q    Type
REMARK                         _______ _______ _______ _____ _____    ______ ____
ROOT
ATOM      1  C   UNL     1       6.219   6.198  16.713  0.00  0.00    +0.000 A 
ATOM      2  C   UNL     1       5.516   5.259  17.441  0.00  0.00    +0.000 A 
ATOM      3  C   UNL     1       5.291   4.048  16.836  0.00  0.00    +0.000 A 
ATOM      4  N   UNL     1       5.703   3.805  15.590  0.00  0.00    +0.000 NA
ATOM      5  C   UNL     1       6.390   4.758  14.940  0.00  0.00    +0.000 A 
ATOM      6  N   UNL     1       6.854   4.505  13.650  0.00  0.00    +0.000 N 
ATOM      7  N   UNL     1       6.688   5.952  15.473  0.00  0.00    +0.000 NA
ATOM      8  H   UNL     1       7.396   5.284  13.306  0.00  0.00    +0.000 HD
ENDROOT
BRANCH   6   9
ATOM      9  C   UNL     1       6.293   3.664  12.673  0.00  0.00    +0.000 A 
ATOM     10  C   UNL     1       7.058   2.613  12.153  0.00  0.00    +0.000 A 
ATOM     11  C   UNL     1       6.501   1.714  11.243  0.00  0.00    +0.000 A 
ATOM     12  C   UNL     1       5.182   1.876  10.821  0.00  0.00    +0.000 A 
ATOM     13  C   UNL     1       4.412   2.934  11.298  0.00  0.00    +0.000 A 
ATOM     14  C   UNL     1       4.970   3.815  12.227  0.00  0.00    +0.000 A 
BRANCH  13  15
ATOM     15  O   UNL     1       3.141   3.002  10.793  0.00  0.00    +0.000 OA
ATOM     16  C   UNL     1       2.948   3.853   9.665  0.00  0.00    +0.000 C 
ENDBRANCH  13  15
ENDBRANCH   6   9
BRANCH   3  17
ATOM     17  N   UNL     1       4.573   3.029  17.420  0.00  0.00    +0.000 N 
ATOM     18  H   UNL     1       5.230   2.328  17.758  0.00  0.00    +0.000 HD
BRANCH  17  19
ATOM     19  C   UNL     1       3.409   3.272  18.268  0.00  0.00    +0.000 C 
ATOM     20  C   UNL     1       3.847   3.929  19.582  0.00  0.00    +0.000 C 
ATOM     21  C   UNL     1       2.717   3.939  20.610  0.00  0.00    +0.000 C 
ATOM     22  N   UNL     1       2.205   2.582  20.828  0.00  0.00    +0.000 NA
ATOM     23  C   UNL     1       1.212   2.560  21.899  0.00  0.00    +0.000 C 
ATOM     24  C   UNL     1       1.646   2.029  19.590  0.00  0.00    +0.000 C 
ATOM     25  C   UNL     1       2.721   1.928  18.516  0.00  0.00    +0.000 C 
ENDBRANCH  17  19
ENDBRANCH   3  17
BRANCH   1  26
ATOM     26  C   UNL     1       6.494   7.552  17.312  0.00  0.00    +0.000 C 
BRANCH  26  28
ATOM     27  C   UNL     1       8.265   9.138  18.130  0.00  0.00    +0.000 C 
ATOM     28  C   UNL     1       7.993   7.826  17.412  0.00  0.00    +0.000 C 
ENDBRANCH  26  28
ENDBRANCH   1  26
TORSDOF 6
ENDMDL
MODEL 3
REMARK VINA RESULT:      -7.3      4.108      6.360
REMARK  Name = 
REMARK  9 active torsions:
REMARK  status: ('A' for Active; 'I' for Inactive)
REMARK    1  A    between atoms: C_1  and  C_2
REMARK    2  A    between atoms: C_2  and  C_3
REMARK    3  A    between atoms: C_3  and  C_4
REMARK    4  A    between atoms: C_6  and  N_7
REMARK    5  A    between atoms: N_7  and  C_8
REMARK    6  A    between atoms: N_11  and  C_12
REMARK    7  A    between atoms: N_17  and  C_18
REMARK    8  A    between atoms: C_22  and  O_23
REMARK    9  A    between atoms: O_23  and  C_24
REMARK                            x       y       z     vdW  Elec       q    Type
REMARK                         _______ _______ _______ _____ _____    ______ ____
ROOT
ATOM      1  C   UNL     1       1.570   3.970  19.557  0.00  0.00    +0.000 A 
ATOM      2  C   UNL     1       1.607   5.313  19.871  0.00  0.00    +0.000 A 
ATOM      3  C   UNL     1       2.407   6.110  19.090  0.00  0.00    +0.000 A 
ATOM      4  N   UNL     1       3.139   5.600  18.097  0.00  0.00    +0.000 NA
ATOM      5  C   UNL     1       3.051   4.286  17.839  0.00  0.00    +0.000 A 
ATOM      6  N   UNL     1       3.786   3.747  16.785  0.00  0.00    +0.000 N 
ATOM      7  N   UNL     1       2.263   3.446  18.526  0.00  0.00    +0.000 NA
ATOM      8  H   UNL     1       3.584   2.764  16.673  0.00  0.00    +0.000 HD
ENDROOT
BRANCH   6   9
ATOM      9  C   UNL     1       5.020   4.184  16.271  0.00  0.00    +0.000 A 
ATOM     10  C   UNL     1       6.012   4.625  17.156  0.00  0.00    +0.000 A 
ATOM     11  C   UNL     1       7.274   4.986  16.684  0.00  0.00    +0.000 A 
ATOM     12  C   UNL     1       7.547   4.939  15.318  0.00  0.00    +0.000 A 
ATOM     13  C   UNL     1       6.565   4.536  14.414  0.00  0.00    +0.000 A 
ATOM     14  C   UNL     1       5.313   4.153  14.898  0.00  0.00    +0.000 A 
BRANCH  13  15
ATOM     15  O   UNL     1       6.944   4.553  13.098  0.00  0.00    +0.000 OA
ATOM     16  C   UNL     1       6.431   3.509  12.274  0.00  0.00    +0.000 C 
ENDBRANCH  13  15
ENDBRANCH   6   9
BRANCH   3  17
ATOM     17  N   UNL     1       2.576   7.459  19.304  0.00  0.00    +0.000 N 
ATOM     18  H   UNL     1       3.391   7.766  18.777  0.00  0.00    +0.000 HD
BRANCH  17  19
ATOM     19  C   UNL     1       1.456   8.395  19.348  0.00  0.00    +0.000 C 
ATOM     20  C   UNL     1       1.710   9.562  18.387  0.00  0.00    +0.000 C 
ATOM     21  C   UNL     1       0.716  10.701  18.608  0.00  0.00    +0.000 C 
ATOM     22  N   UNL     1       0.736  11.139  20.008  0.00  0.00    +0.000 NA
ATOM     23  C   UNL     1      -0.117  12.308  20.204  0.00  0.00    +0.000 C 
ATOM     24  C   UNL     1       0.336  10.048  20.902  0.00  0.00    +0.000 C 
ATOM     25  C   UNL     1       1.308   8.881  20.792  0.00  0.00    +0.000 C 
ENDBRANCH  17  19
ENDBRANCH   3  17
BRANCH   1  26
ATOM     26  C   UNL     1       0.720   3.036  20.380  0.00  0.00    +0.000 C 
BRANCH  26  28
ATOM     27  C   UNL     1       2.860   2.436  21.554  0.00  0.00    +0.000 C 
ATOM     28  C   UNL     1       1.376   2.719  21.722  0.00  0.00    +0.000 C 
ENDBRANCH  26  28
ENDBRANCH   1  26
TORSDOF 6
ENDMDL
MODEL 4
REMARK VINA RESULT:      -7.2      0.549      1.033
REMARK  Name = 
REMARK  9 active torsions:
REMARK  status: ('A' for Active; 'I' for Inactive)
REMARK    1  A    between atoms: C_1  and  C_2
REMARK    2  A    between atoms: C_2  and  C_3
REMARK    3  A    between atoms: C_3  and  C_4
REMARK    4  A    between atoms: C_6  and  N_7
REMARK    5  A    between atoms: N_7  and  C_8
REMARK    6  A    between atoms: N_11  and  C_12
REMARK    7  A    between atoms: N_17  and  C_18
REMARK    8  A    between atoms: C_22  and  O_23
REMARK    9  A    between atoms: O_23  and  C_24
REMARK                            x       y       z     vdW  Elec       q    Type
REMARK                         _______ _______ _______ _____ _____    ______ ____
ROOT
ATOM      1  C   UNL     1       7.673   6.776  17.994  0.00  0.00    +0.000 A 
ATOM      2  C   UNL     1       7.043   5.849  18.799  0.00  0.00    +0.000 A 
ATOM      3  C   UNL     1       6.604   4.699  18.192  0.00  0.00    +0.000 A 
ATOM      4  N   UNL     1       6.750   4.506  16.879  0.00  0.00    +0.000 NA
ATOM      5  C   UNL     1       7.380   5.444  16.155  0.00  0.00    +0.000 A 
ATOM      6  N   UNL     1       7.568   5.239  14.789  0.00  0.00    +0.000 N 
ATOM      7  N   UNL     1       7.876   6.575  16.677  0.00  0.00    +0.000 NA
ATOM      8  H   UNL     1       8.100   5.995  14.384  0.00  0.00    +0.000 HD
ENDROOT
BRANCH   6   9
ATOM      9  C   UNL     1       6.761   4.508  13.899  0.00  0.00    +0.000 A 
ATOM     10  C   UNL     1       5.369   4.635  13.976  0.00  0.00    +0.000 A 
ATOM     11  C   UNL     1       4.546   3.987  13.055  0.00  0.00    +0.000 A 
ATOM     12  C   UNL     1       5.107   3.179  12.067  0.00  0.00    +0.000 A 
ATOM     13  C   UNL     1       6.488   3.009  11.991  0.00  0.00    +0.000 A 
ATOM     14  C   UNL     1       7.305   3.682  12.902  0.00  0.00    +0.000 A 
BRANCH  13  15
ATOM     15  O   UNL     1       6.918   2.175  10.994  0.00  0.00    +0.000 OA
ATOM     16  C   UNL     1       6.376   0.856  10.990  0.00  0.00    +0.000 C 
ENDBRANCH  13  15
ENDBRANCH   6   9
BRANCH   3  17
ATOM     17  N   UNL     1       5.924   3.702  18.855  0.00  0.00    +0.000 N 
ATOM     18  H   UNL     1       6.230   3.698  19.825  0.00  0.00    +0.000 HD
BRANCH  17  19
ATOM     19  C   UNL     1       4.506   3.434  18.633  0.00  0.00    +0.000 C 
ATOM     20  C   UNL     1       3.698   4.726  18.798  0.00  0.00    +0.000 C 
ATOM     21  C   UNL     1       2.197   4.447  18.861  0.00  0.00    +0.000 C 
ATOM     22  N   UNL     1       1.895   3.481  19.922  0.00  0.00    +0.000 NA
ATOM     23  C   UNL     1       0.454   3.301  20.075  0.00  0.00    +0.000 C 
ATOM     24  C   UNL     1       2.554   2.196  19.662  0.00  0.00    +0.000 C 
ATOM     25  C   UNL     1       4.068   2.367  19.637  0.00  0.00    +0.000 C 
ENDBRANCH  17  19
ENDBRANCH   3  17
BRANCH   1  26
ATOM     26  C   UNL     1       8.173   8.065  18.594  0.00  0.00    +0.000 C 
BRANCH  26  28
ATOM     27  C   UNL     1       8.852  10.432  18.091  0.00  0.00    +0.000 C 
ATOM     28  C   UNL     1       8.086   9.217  17.595  0.00  0.00    +0.000 C 
ENDBRANCH  26  28
ENDBRANCH   1  26
TORSDOF 6
ENDMDL
MODEL 5
REMARK VINA RESULT:      -7.2      4.305      6.685
REMARK  Name = 
REMARK  9 active torsions:
REMARK  status: ('A' for Active; 'I' for Inactive)
REMARK    1  A    between atoms: C_1  and  C_2
REMARK    2  A    between atoms: C_2  and  C_3
REMARK    3  A    between atoms: C_3  and  C_4
REMARK    4  A    between atoms: C_6  and  N_7
REMARK    5  A    between atoms: N_7  and  C_8
REMARK    6  A    between atoms: N_11  and  C_12
REMARK    7  A    between atoms: N_17  and  C_18
REMARK    8  A    between atoms: C_22  and  O_23
REMARK    9  A    between atoms: O_23  and  C_24
REMARK                            x       y       z     vdW  Elec       q    Type
REMARK                         _______ _______ _______ _____ _____    ______ ____
ROOT
ATOM      1  C   UNL     1       1.600   3.955  19.411  0.00  0.00    +0.000 A 
ATOM      2  C   UNL     1       1.626   5.295  19.740  0.00  0.00    +0.000 A 
ATOM      3  C   UNL     1       2.392   6.113  18.948  0.00  0.00    +0.000 A 
ATOM      4  N   UNL     1       3.104   5.627  17.929  0.00  0.00    +0.000 NA
ATOM      5  C   UNL     1       3.028   4.314  17.657  0.00  0.00    +0.000 A 
ATOM      6  N   UNL     1       3.742   3.799  16.576  0.00  0.00    +0.000 N 
ATOM      7  N   UNL     1       2.271   3.454  18.354  0.00  0.00    +0.000 NA
ATOM      8  H   UNL     1       3.550   2.815  16.457  0.00  0.00    +0.000 HD
ENDROOT
BRANCH   6   9
ATOM      9  C   UNL     1       4.955   4.260  16.035  0.00  0.00    +0.000 A 
ATOM     10  C   UNL     1       5.356   3.809  14.772  0.00  0.00    +0.000 A 
ATOM     11  C   UNL     1       6.513   4.310  14.174  0.00  0.00    +0.000 A 
ATOM     12  C   UNL     1       7.296   5.247  14.847  0.00  0.00    +0.000 A 
ATOM     13  C   UNL     1       6.935   5.687  16.120  0.00  0.00    +0.000 A 
ATOM     14  C   UNL     1       5.763   5.197  16.700  0.00  0.00    +0.000 A 
BRANCH  13  15
ATOM     15  O   UNL     1       7.794   6.588  16.689  0.00  0.00    +0.000 OA
ATOM     16  C   UNL     1       7.567   6.907  18.060  0.00  0.00    +0.000 C 
ENDBRANCH  13  15
ENDBRANCH   6   9
BRANCH   3  17
ATOM     17  N   UNL     1       2.548   7.462  19.175  0.00  0.00    +0.000 N 
ATOM     18  H   UNL     1       3.225   7.822  18.506  0.00  0.00    +0.000 HD
BRANCH  17  19
ATOM     19  C   UNL     1       1.424   8.343  19.481  0.00  0.00    +0.000 C 
ATOM     20  C   UNL     1       1.504   9.610  18.621  0.00  0.00    +0.000 C 
ATOM     21  C   UNL     1       0.526  10.680  19.104  0.00  0.00    +0.000 C 
ATOM     22  N   UNL     1       0.743  10.975  20.524  0.00  0.00    +0.000 NA
ATOM     23  C   UNL     1      -0.099  12.084  20.965  0.00  0.00    +0.000 C 
ATOM     24  C   UNL     1       0.508   9.784  21.347  0.00  0.00    +0.000 C 
ATOM     25  C   UNL     1       1.482   8.674  20.973  0.00  0.00    +0.000 C 
ENDBRANCH  17  19
ENDBRANCH   3  17
BRANCH   1  26
ATOM     26  C   UNL     1       0.786   2.999  20.244  0.00  0.00    +0.000 C 
BRANCH  26  28
ATOM     27  C   UNL     1       2.817   2.346  21.572  0.00  0.00    +0.000 C 
ATOM     28  C   UNL     1       1.378   2.832  21.641  0.00  0.00    +0.000 C 
ENDBRANCH  26  28
ENDBRANCH   1  26
TORSDOF 6
ENDMDL
MODEL 6
REMARK VINA RESULT:      -7.1      1.113      1.265
REMARK  Name = 
REMARK  9 active torsions:
REMARK  status: ('A' for Active; 'I' for Inactive)
REMARK    1  A    between atoms: C_1  and  C_2
REMARK    2  A    between atoms: C_2  and  C_3
REMARK    3  A    between atoms: C_3  and  C_4
REMARK    4  A    between atoms: C_6  and  N_7
REMARK    5  A    between atoms: N_7  and  C_8
REMARK    6  A    between atoms: N_11  and  C_12
REMARK    7  A    between atoms: N_17  and  C_18
REMARK    8  A    between atoms: C_22  and  O_23
REMARK    9  A    between atoms: O_23  and  C_24
REMARK                            x       y       z     vdW  Elec       q    Type
REMARK                         _______ _______ _______ _____ _____    ______ ____
ROOT
ATOM      1  C   UNL     1       6.923   6.456  16.759  0.00  0.00    +0.000 A 
ATOM      2  C   UNL     1       6.352   5.544  17.624  0.00  0.00    +0.000 A 
ATOM      3  C   UNL     1       6.037   4.313  17.107  0.00  0.00    +0.000 A 
ATOM      4  N   UNL     1       6.241   4.026  15.820  0.00  0.00    +0.000 NA
ATOM      5  C   UNL     1       6.809   4.955  15.033  0.00  0.00    +0.000 A 
ATOM      6  N   UNL     1       7.058   4.656  13.695  0.00  0.00    +0.000 N 
ATOM      7  N   UNL     1       7.185   6.166  15.469  0.00  0.00    +0.000 NA
ATOM      8  H   UNL     1       7.533   5.421  13.240  0.00  0.00    +0.000 HD
ENDROOT
BRANCH   6   9
ATOM      9  C   UNL     1       6.348   3.783  12.851  0.00  0.00    +0.000 A 
ATOM     10  C   UNL     1       5.023   4.084  12.514  0.00  0.00    +0.000 A 
ATOM     11  C   UNL     1       4.320   3.282  11.615  0.00  0.00    +0.000 A 
ATOM     12  C   UNL     1       4.926   2.152  11.068  0.00  0.00    +0.000 A 
ATOM     13  C   UNL     1       6.233   1.812  11.415  0.00  0.00    +0.000 A 
ATOM     14  C   UNL     1       6.937   2.635  12.297  0.00  0.00    +0.000 A 
BRANCH  13  15
ATOM     15  O   UNL     1       6.711   0.669  10.832  0.00  0.00    +0.000 OA
ATOM     16  C   UNL     1       6.192  -0.563  11.327  0.00  0.00    +0.000 C 
ENDBRANCH  13  15
ENDBRANCH   6   9
BRANCH   3  17
ATOM     17  N   UNL     1       5.428   3.316  17.835  0.00  0.00    +0.000 N 
ATOM     18  H   UNL     1       6.137   2.637  18.102  0.00  0.00    +0.000 HD
BRANCH  17  19
ATOM     19  C   UNL     1       4.398   3.589  18.835  0.00  0.00    +0.000 C 
ATOM     20  C   UNL     1       3.975   2.284  19.519  0.00  0.00    +0.000 C 
ATOM     21  C   UNL     1       2.711   2.471  20.357  0.00  0.00    +0.000 C 
ATOM     22  N   UNL     1       1.628   3.030  19.540  0.00  0.00    +0.000 NA
ATOM     23  C   UNL     1       0.381   3.097  20.296  0.00  0.00    +0.000 C 
ATOM     24  C   UNL     1       1.994   4.353  19.022  0.00  0.00    +0.000 C 
ATOM     25  C   UNL     1       3.219   4.255  18.123  0.00  0.00    +0.000 C 
ENDBRANCH  17  19
ENDBRANCH   3  17
BRANCH   1  26
ATOM     26  C   UNL     1       7.287   7.830  17.259  0.00  0.00    +0.000 C 
BRANCH  26  28
ATOM     27  C   UNL     1       8.816   9.148  18.756  0.00  0.00    +0.000 C 
ATOM     28  C   UNL     1       8.317   7.762  18.384  0.00  0.00    +0.000 C 
ENDBRANCH  26  28
ENDBRANCH   1  26
TORSDOF 6
ENDMDL
MODEL 7
REMARK VINA RESULT:      -7.0      1.420      1.709
REMARK  Name = 
REMARK  9 active torsions:
REMARK  status: ('A' for Active; 'I' for Inactive)
REMARK    1  A    between atoms: C_1  and  C_2
REMARK    2  A    between atoms: C_2  and  C_3
REMARK    3  A    between atoms: C_3  and  C_4
REMARK    4  A    between atoms: C_6  and  N_7
REMARK    5  A    between atoms: N_7  and  C_8
REMARK    6  A    between atoms: N_11  and  C_12
REMARK    7  A    between atoms: N_17  and  C_18
REMARK    8  A    between atoms: C_22  and  O_23
REMARK    9  A    between atoms: O_23  and  C_24
REMARK                            x       y       z     vdW  Elec       q    Type
REMARK                         _______ _______ _______ _____ _____    ______ ____
ROOT
ATOM      1  C   UNL     1       6.915   5.808  17.143  0.00  0.00    +0.000 A 
ATOM      2  C   UNL     1       5.780   5.335  17.770  0.00  0.00    +0.000 A 
ATOM      3  C   UNL     1       5.072   4.360  17.114  0.00  0.00    +0.000 A 
ATOM      4  N   UNL     1       5.445   3.918  15.911  0.00  0.00    +0.000 NA
ATOM      5  C   UNL     1       6.564   4.415  15.360  0.00  0.00    +0.000 A 
ATOM      6  N   UNL     1       6.983   3.939  14.119  0.00  0.00    +0.000 N 
ATOM      7  N   UNL     1       7.336   5.337  15.952  0.00  0.00    +0.000 NA
ATOM      8  H   UNL     1       7.861   4.358  13.852  0.00  0.00    +0.000 HD
ENDROOT
BRANCH   6   9
ATOM      9  C   UNL     1       6.194   3.441  13.067  0.00  0.00    +0.000 A 
ATOM     10  C   UNL     1       5.048   4.145  12.677  0.00  0.00    +0.000 A 
ATOM     11  C   UNL     1       4.292   3.720  11.585  0.00  0.00    +0.000 A 
ATOM     12  C   UNL     1       4.657   2.569  10.889  0.00  0.00    +0.000 A 
ATOM     13  C   UNL     1       5.774   1.832  11.279  0.00  0.00    +0.000 A 
ATOM     14  C   UNL     1       6.539   2.278  12.359  0.00  0.00    +0.000 A 
BRANCH  13  15
ATOM     15  O   UNL     1       6.018   0.708  10.535  0.00  0.00    +0.000 OA
ATOM     16  C   UNL     1       6.013  -0.533  11.235  0.00  0.00    +0.000 C 
ENDBRANCH  13  15
ENDBRANCH   6   9
BRANCH   3  17
ATOM     17  N   UNL     1       3.900   3.818  17.594  0.00  0.00    +0.000 N 
ATOM     18  H   UNL     1       3.757   2.917  17.144  0.00  0.00    +0.000 HD
BRANCH  17  19
ATOM     19  C   UNL     1       3.516   3.896  19.001  0.00  0.00    +0.000 C 
ATOM     20  C   UNL     1       3.849   2.578  19.708  0.00  0.00    +0.000 C 
ATOM     21  C   UNL     1       3.210   2.505  21.094  0.00  0.00    +0.000 C 
ATOM     22  N   UNL     1       1.762   2.721  21.007  0.00  0.00    +0.000 NA
ATOM     23  C   UNL     1       1.123   2.529  22.306  0.00  0.00    +0.000 C 
ATOM     24  C   UNL     1       1.464   4.054  20.472  0.00  0.00    +0.000 C 
ATOM     25  C   UNL     1       2.018   4.200  19.061  0.00  0.00    +0.000 C 
ENDBRANCH  17  19
ENDBRANCH   3  17
BRANCH   1  26
ATOM     26  C   UNL     1       7.736   6.886  17.804  0.00  0.00    +0.000 C 
BRANCH  26  28
ATOM     27  C   UNL     1       8.185   9.356  17.912  0.00  0.00    +0.000 C 
ATOM     28  C   UNL     1       7.216   8.278  17.453  0.00  0.00    +0.000 C 
ENDBRANCH  26  28
ENDBRANCH   1  26
TORSDOF 6
ENDMDL
MODEL 8
REMARK VINA RESULT:      -6.9      3.914      6.798
REMARK  Name = 
REMARK  9 active torsions:
REMARK  status: ('A' for Active; 'I' for Inactive)
REMARK    1  A    between atoms: C_1  and  C_2
REMARK    2  A    between atoms: C_2  and  C_3
REMARK    3  A    between atoms: C_3  and  C_4
REMARK    4  A    between atoms: C_6  and  N_7
REMARK    5  A    between atoms: N_7  and  C_8
REMARK    6  A    between atoms: N_11  and  C_12
REMARK    7  A    between atoms: N_17  and  C_18
REMARK    8  A    between atoms: C_22  and  O_23
REMARK    9  A    between atoms: O_23  and  C_24
REMARK                            x       y       z     vdW  Elec       q    Type
REMARK                         _______ _______ _______ _____ _____    ______ ____
ROOT
ATOM      1  C   UNL     1       5.892   5.062  15.229  0.00  0.00    +0.000 A 
ATOM      2  C   UNL     1       5.448   6.323  15.569  0.00  0.00    +0.000 A 
ATOM      3  C   UNL     1       4.685   6.427  16.705  0.00  0.00    +0.000 A 
ATOM      4  N   UNL     1       4.361   5.352  17.426  0.00  0.00    +0.000 NA
ATOM      5  C   UNL     1       4.833   4.153  17.045  0.00  0.00    +0.000 A 
ATOM      6  N   UNL     1       4.529   3.027  17.808  0.00  0.00    +0.000 N 
ATOM      7  N   UNL     1       5.618   3.971  15.974  0.00  0.00    +0.000 NA
ATOM      8  H   UNL     1       4.990   2.209  17.438  0.00  0.00    +0.000 HD
ENDROOT
BRANCH   6   9
ATOM      9  C   UNL     1       3.383   2.788  18.588  0.00  0.00    +0.000 A 
ATOM     10  C   UNL     1       2.197   2.390  17.959  0.00  0.00    +0.000 A 
ATOM     11  C   UNL     1       1.069   2.067  18.713  0.00  0.00    +0.000 A 
ATOM     12  C   UNL     1       1.107   2.167  20.103  0.00  0.00    +0.000 A 
ATOM     13  C   UNL     1       2.265   2.593  20.750  0.00  0.00    +0.000 A 
ATOM     14  C   UNL     1       3.397   2.891  19.989  0.00  0.00    +0.000 A 
BRANCH  13  15
ATOM     15  O   UNL     1       2.174   2.674  22.114  0.00  0.00    +0.000 OA
ATOM     16  C   UNL     1       0.932   2.280  22.693  0.00  0.00    +0.000 C 
ENDBRANCH  13  15
ENDBRANCH   6   9
BRANCH   3  17
ATOM     17  N   UNL     1       4.139   7.610  17.148  0.00  0.00    +0.000 N 
ATOM     18  H   UNL     1       4.320   8.327  16.449  0.00  0.00    +0.000 HD
BRANCH  17  19
ATOM     19  C   UNL     1       2.838   7.678  17.808  0.00  0.00    +0.000 C 
ATOM     20  C   UNL     1       2.312   9.117  17.781  0.00  0.00    +0.000 C 
ATOM     21  C   UNL     1       1.105   9.294  18.701  0.00  0.00    +0.000 C 
ATOM     22  N   UNL     1       1.428   8.862  20.065  0.00  0.00    +0.000 NA
ATOM     23  C   UNL     1       0.325   9.142  20.980  0.00  0.00    +0.000 C 
ATOM     24  C   UNL     1       1.778   7.438  20.093  0.00  0.00    +0.000 C 
ATOM     25  C   UNL     1       3.014   7.174  19.242  0.00  0.00    +0.000 C 
ENDBRANCH  17  19
ENDBRANCH   3  17
BRANCH   1  26
ATOM     26  C   UNL     1       6.727   4.874  13.989  0.00  0.00    +0.000 C 
BRANCH  26  28
ATOM     27  C   UNL     1       6.887   3.676  11.785  0.00  0.00    +0.000 C 
ATOM     28  C   UNL     1       6.238   3.688  13.160  0.00  0.00    +0.000 C 
ENDBRANCH  26  28
ENDBRANCH   1  26
TORSDOF 6
ENDMDL
MODEL 9
REMARK VINA RESULT:      -6.9      1.753      2.447
REMARK  Name = 
REMARK  9 active torsions:
REMARK  status: ('A' for Active; 'I' for Inactive)
REMARK    1  A    between atoms: C_1  and  C_2
REMARK    2  A    between atoms: C_2  and  C_3
REMARK    3  A    between atoms: C_3  and  C_4
REMARK    4  A    between atoms: C_6  and  N_7
REMARK    5  A    between atoms: N_7  and  C_8
REMARK    6  A    between atoms: N_11  and  C_12
REMARK    7  A    between atoms: N_17  and  C_18
REMARK    8  A    between atoms: C_22  and  O_23
REMARK    9  A    between atoms: O_23  and  C_24
REMARK                            x       y       z     vdW  Elec       q    Type
REMARK                         _______ _______ _______ _____ _____    ______ ____
ROOT
ATOM      1  C   UNL     1       6.849   6.038  16.893  0.00  0.00    +0.000 A 
ATOM      2  C   UNL     1       5.562   5.898  17.370  0.00  0.00    +0.000 A 
ATOM      3  C   UNL     1       4.738   5.038  16.688  0.00  0.00    +0.000 A 
ATOM      4  N   UNL     1       5.154   4.396  15.595  0.00  0.00    +0.000 NA
ATOM      5  C   UNL     1       6.422   4.570  15.187  0.00  0.00    +0.000 A 
ATOM      6  N   UNL     1       6.878   3.880  14.066  0.00  0.00    +0.000 N 
ATOM      7  N   UNL     1       7.303   5.358  15.820  0.00  0.00    +0.000 NA
ATOM      8  H   UNL     1       7.858   4.063  13.908  0.00  0.00    +0.000 HD
ENDROOT
BRANCH   6   9
ATOM      9  C   UNL     1       6.142   3.456  12.945  0.00  0.00    +0.000 A 
ATOM     10  C   UNL     1       6.463   2.236  12.338  0.00  0.00    +0.000 A 
ATOM     11  C   UNL     1       5.698   1.750  11.276  0.00  0.00    +0.000 A 
ATOM     12  C   UNL     1       4.624   2.495  10.792  0.00  0.00    +0.000 A 
ATOM     13  C   UNL     1       4.306   3.728  11.359  0.00  0.00    +0.000 A 
ATOM     14  C   UNL     1       5.062   4.195  12.437  0.00  0.00    +0.000 A 
BRANCH  13  15
ATOM     15  O   UNL     1       3.246   4.377  10.784  0.00  0.00    +0.000 OA
ATOM     16  C   UNL     1       2.876   3.954   9.473  0.00  0.00    +0.000 C 
ENDBRANCH  13  15
ENDBRANCH   6   9
BRANCH   3  17
ATOM     17  N   UNL     1       3.419   4.825  17.021  0.00  0.00    +0.000 N 
ATOM     18  H   UNL     1       2.856   4.934  16.180  0.00  0.00    +0.000 HD
BRANCH  17  19
ATOM     19  C   UNL     1       2.999   3.767  17.937  0.00  0.00    +0.000 C 
ATOM     20  C   UNL     1       1.507   3.911  18.252  0.00  0.00    +0.000 C 
ATOM     21  C   UNL     1       1.088   3.014  19.417  0.00  0.00    +0.000 C 
ATOM     22  N   UNL     1       1.919   3.280  20.597  0.00  0.00    +0.000 NA
ATOM     23  C   UNL     1       1.448   2.521  21.752  0.00  0.00    +0.000 C 
ATOM     24  C   UNL     1       3.329   2.986  20.320  0.00  0.00    +0.000 C 
ATOM     25  C   UNL     1       3.852   3.878  19.202  0.00  0.00    +0.000 C 
ENDBRANCH  17  19
ENDBRANCH   3  17
BRANCH   1  26
ATOM     26  C   UNL     1       7.804   6.973  17.588  0.00  0.00    +0.000 C 
BRANCH  26  28
ATOM     27  C   UNL     1       8.344   9.367  18.130  0.00  0.00    +0.000 C 
ATOM     28  C   UNL     1       7.346   8.425  17.475  0.00  0.00    +0.000 C 
ENDBRANCH  26  28
ENDBRANCH   1  26
TORSDOF 6
ENDMDL
