MODEL 1
REMARK VINA RESULT:      -7.6      0.000      0.000
REMARK  Name = 
REMARK  5 active torsions:
REMARK  status: ('A' for Active; 'I' for Inactive)
REMARK    1  A    between atoms: C_2  and  C_3
REMARK    2  A    between atoms: C_3  and  O_4
REMARK    3  A    between atoms: O_4  and  C_5
REMARK    4  A    between atoms: C_5  and  C_6
REMARK    5  A    between atoms: C_25  and  O_26
REMARK                            x       y       z     vdW  Elec       q    Type
REMARK                         _______ _______ _______ _____ _____    ______ ____
ROOT
ATOM      1  O   UNL     1       0.734   3.850  17.977  0.00  0.00    +0.000 OA
ATOM      2  C   UNL     1       1.599   3.953  18.866  0.00  0.00    +0.000 C 
ATOM      3  N   UNL     1       2.949   3.920  18.566  0.00  0.00    +0.000 N 
ATOM      4  C   UNL     1       4.116   4.059  19.480  0.00  0.00    +0.000 C 
ATOM      5  C   UNL     1       5.507   3.541  18.875  0.00  0.00    +0.000 C 
ATOM      6  C   UNL     1       5.751   4.241  17.510  0.00  0.00    +0.000 C 
ATOM      7  C   UNL     1       4.491   3.725  16.733  0.00  0.00    +0.000 C 
ATOM      8  C   UNL     1       3.192   4.294  17.197  0.00  0.00    +0.000 C 
ATOM      9  C   UNL     1       6.216   5.666  17.912  0.00  0.00    +0.000 A 
ATOM     10  C   UNL     1       7.419   5.917  18.621  0.00  0.00    +0.000 A 
ATOM     11  C   UNL     1       8.114   7.128  18.454  0.00  0.00    +0.000 A 
ATOM     12  C   UNL     1       7.531   8.152  17.713  0.00  0.00    +0.000 A 
ATOM     13  C   UNL     1       6.394   7.884  16.962  0.00  0.00    +0.000 A 
ATOM     14  C   UNL     1       5.965   6.562  16.888  0.00  0.00    +0.000 A 
ATOM     15  C   UNL     1       6.197   5.697  15.634  0.00  0.00    +0.000 C 
ATOM     16  C   UNL     1       6.737   4.311  16.308  0.00  0.00    +0.000 C 
ENDROOT
BRANCH  16  17
ATOM     17  O   UNL     1       6.695   3.232  15.386  0.00  0.00    +0.000 OA
ATOM     18  H   UNL     1       7.287   3.457  14.652  0.00  0.00    +0.000 HD
ENDBRANCH  16  17
BRANCH   2  19
ATOM     19  C   UNL     1       1.136   4.145  20.303  0.00  0.00    +0.000 C 
BRANCH  19  20
ATOM     20  O   UNL     1       0.801   5.484  20.644  0.00  0.00    +0.000 OA
BRANCH  20  21
ATOM     21  C   UNL     1       1.952   6.314  20.819  0.00  0.00    +0.000 C 
BRANCH  21  22
ATOM     22  C   UNL     1       1.841   7.509  19.915  0.00  0.00    +0.000 A 
ATOM     23  C   UNL     1       2.468   7.473  18.653  0.00  0.00    +0.000 A 
ATOM     24  C   UNL     1       2.381   8.577  17.800  0.00  0.00    +0.000 A 
ATOM     25  C   UNL     1       1.672   9.716  18.198  0.00  0.00    +0.000 A 
ATOM     26  C   UNL     1       1.043   9.750  19.452  0.00  0.00    +0.000 A 
ATOM     27  C   UNL     1       1.135   8.632  20.304  0.00  0.00    +0.000 A 
ENDBRANCH  21  22
ENDBRANCH  20  21
ENDBRANCH  19  20
ENDBRANCH   2  19
TORSDOF 5
ENDMDL
MODEL 2
REMARK VINA RESULT:      -7.5      3.024      6.657
REMARK  Name = 
REMARK  5 active torsions:
REMARK  status: ('A' for Active; 'I' for Inactive)
REMARK    1  A    between atoms: C_2  and  C_3
REMARK    2  A    between atoms: C_3  and  O_4
REMARK    3  A    between atoms: O_4  and  C_5
REMARK    4  A    between atoms: C_5  and  C_6
REMARK    5  A    between atoms: C_25  and  O_26
REMARK                            x       y       z     vdW  Elec       q    Type
REMARK                         _______ _______ _______ _____ _____    ______ ____
ROOT
ATOM      1  O   UNL     1       7.705   6.285  16.556  0.00  0.00    +0.000 OA
ATOM      2  C   UNL     1       6.766   6.825  17.170  0.00  0.00    +0.000 C 
ATOM      3  N   UNL     1       5.535   6.207  17.295  0.00  0.00    +0.000 N 
ATOM      4  C   UNL     1       4.319   6.677  18.012  0.00  0.00    +0.000 C 
ATOM      5  C   UNL     1       2.962   5.935  17.590  0.00  0.00    +0.000 C 
ATOM      6  C   UNL     1       3.165   4.402  17.735  0.00  0.00    +0.000 C 
ATOM      7  C   UNL     1       4.339   4.206  16.714  0.00  0.00    +0.000 C 
ATOM      8  C   UNL     1       5.647   4.779  17.144  0.00  0.00    +0.000 C 
ATOM      9  C   UNL     1       3.065   4.166  19.265  0.00  0.00    +0.000 A 
ATOM     10  C   UNL     1       1.881   4.404  20.010  0.00  0.00    +0.000 A 
ATOM     11  C   UNL     1       1.601   3.664  21.172  0.00  0.00    +0.000 A 
ATOM     12  C   UNL     1       2.570   2.806  21.685  0.00  0.00    +0.000 A 
ATOM     13  C   UNL     1       3.694   2.518  20.922  0.00  0.00    +0.000 A 
ATOM     14  C   UNL     1       3.733   3.006  19.619  0.00  0.00    +0.000 A 
ATOM     15  C   UNL     1       3.481   2.100  18.398  0.00  0.00    +0.000 C 
ATOM     16  C   UNL     1       2.460   3.030  17.526  0.00  0.00    +0.000 C 
ENDROOT
BRANCH  16  17
ATOM     17  O   UNL     1       2.350   2.568  16.188  0.00  0.00    +0.000 OA
ATOM     18  H   UNL     1       2.058   1.644  16.225  0.00  0.00    +0.000 HD
ENDBRANCH  16  17
BRANCH   2  19
ATOM     19  C   UNL     1       7.012   8.183  17.811  0.00  0.00    +0.000 C 
BRANCH  19  20
ATOM     20  O   UNL     1       8.327   8.693  17.633  0.00  0.00    +0.000 OA
BRANCH  20  21
ATOM     21  C   UNL     1       8.786   9.444  18.759  0.00  0.00    +0.000 C 
BRANCH  21  22
ATOM     22  C   UNL     1       9.337  10.758  18.284  0.00  0.00    +0.000 A 
ATOM     23  C   UNL     1       8.443  11.800  17.962  0.00  0.00    +0.000 A 
ATOM     24  C   UNL     1       8.936  13.027  17.512  0.00  0.00    +0.000 A 
ATOM     25  C   UNL     1      10.316  13.224  17.383  0.00  0.00    +0.000 A 
ATOM     26  C   UNL     1      11.206  12.189  17.708  0.00  0.00    +0.000 A 
ATOM     27  C   UNL     1      10.700  10.955  18.162  0.00  0.00    +0.000 A 
ENDBRANCH  21  22
ENDBRANCH  20  21
ENDBRANCH  19  20
ENDBRANCH   2  19
TORSDOF 5
ENDMDL
MODEL 3
REMARK VINA RESULT:      -7.5      3.034      6.740
REMARK  Name = 
REMARK  5 active torsions:
REMARK  status: ('A' for Active; 'I' for Inactive)
REMARK    1  A    between atoms: C_2  and  C_3
REMARK    2  A    between atoms: C_3  and  O_4
REMARK    3  A    between atoms: O_4  and  C_5
REMARK    4  A    between atoms: C_5  and  C_6
REMARK    5  A    between atoms: C_25  and  O_26
REMARK                            x       y       z     vdW  Elec       q    Type
REMARK                         _______ _______ _______ _____ _____    ______ ____
ROOT
ATOM      1  O   UNL     1       7.616   6.340  16.673  0.00  0.00    +0.000 OA
ATOM      2  C   UNL     1       6.653   6.867  17.261  0.00  0.00    +0.000 C 
ATOM      3  N   UNL     1       5.432   6.225  17.364  0.00  0.00    +0.000 N 
ATOM      4  C   UNL     1       4.190   6.677  18.049  0.00  0.00    +0.000 C 
ATOM      5  C   UNL     1       2.859   5.903  17.604  0.00  0.00    +0.000 C 
ATOM      6  C   UNL     1       3.090   4.375  17.767  0.00  0.00    +0.000 C 
ATOM      7  C   UNL     1       4.290   4.194  16.775  0.00  0.00    +0.000 C 
ATOM      8  C   UNL     1       5.576   4.798  17.229  0.00  0.00    +0.000 C 
ATOM      9  C   UNL     1       2.960   4.151  19.298  0.00  0.00    +0.000 A 
ATOM     10  C   UNL     1       1.755   4.372  20.013  0.00  0.00    +0.000 A 
ATOM     11  C   UNL     1       1.463   3.637  21.176  0.00  0.00    +0.000 A 
ATOM     12  C   UNL     1       2.438   2.804  21.718  0.00  0.00    +0.000 A 
ATOM     13  C   UNL     1       3.584   2.532  20.984  0.00  0.00    +0.000 A 
ATOM     14  C   UNL     1       3.643   3.009  19.677  0.00  0.00    +0.000 A 
ATOM     15  C   UNL     1       3.437   2.086  18.460  0.00  0.00    +0.000 C 
ATOM     16  C   UNL     1       2.418   2.988  17.556  0.00  0.00    +0.000 C 
ENDROOT
BRANCH  16  17
ATOM     17  O   UNL     1       2.347   2.511  16.220  0.00  0.00    +0.000 OA
ATOM     18  H   UNL     1       1.432   2.231  16.063  0.00  0.00    +0.000 HD
ENDBRANCH  16  17
BRANCH   2  19
ATOM     19  C   UNL     1       6.856   8.235  17.894  0.00  0.00    +0.000 C 
BRANCH  19  20
ATOM     20  O   UNL     1       8.216   8.609  18.072  0.00  0.00    +0.000 OA
BRANCH  20  21
ATOM     21  C   UNL     1       8.518   9.884  17.501  0.00  0.00    +0.000 C 
BRANCH  21  22
ATOM     22  C   UNL     1       9.438  10.633  18.423  0.00  0.00    +0.000 A 
ATOM     23  C   UNL     1       9.243  10.532  19.816  0.00  0.00    +0.000 A 
ATOM     24  C   UNL     1      10.083  11.225  20.690  0.00  0.00    +0.000 A 
ATOM     25  C   UNL     1      11.120  12.019  20.184  0.00  0.00    +0.000 A 
ATOM     26  C   UNL     1      11.317  12.115  18.798  0.00  0.00    +0.000 A 
ATOM     27  C   UNL     1      10.466  11.412  17.925  0.00  0.00    +0.000 A 
ENDBRANCH  21  22
ENDBRANCH  20  21
ENDBRANCH  19  20
ENDBRANCH   2  19
TORSDOF 5
ENDMDL
MODEL 4
REMARK VINA RESULT:      -7.4      0.533      1.091
REMARK  Name = 
REMARK  5 active torsions:
REMARK  status: ('A' for Active; 'I' for Inactive)
REMARK    1  A    between atoms: C_2  and  C_3
REMARK    2  A    between atoms: C_3  and  O_4
REMARK    3  A    between atoms: O_4  and  C_5
REMARK    4  A    between atoms: C_5  and  C_6
REMARK    5  A    between atoms: C_25  and  O_26
REMARK                            x       y       z     vdW  Elec       q    Type
REMARK                         _______ _______ _______ _____ _____    ______ ____
ROOT
ATOM      1  O   UNL     1       0.629   3.338  17.980  0.00  0.00    +0.000 OA
ATOM      2  C   UNL     1       1.546   3.433  18.817  0.00  0.00    +0.000 C 
ATOM      3  N   UNL     1       2.871   3.502  18.429  0.00  0.00    +0.000 N 
ATOM      4  C   UNL     1       4.089   3.650  19.273  0.00  0.00    +0.000 C 
ATOM      5  C   UNL     1       5.462   3.259  18.545  0.00  0.00    +0.000 C 
ATOM      6  C   UNL     1       5.573   4.062  17.221  0.00  0.00    +0.000 C 
ATOM      7  C   UNL     1       4.293   3.525  16.492  0.00  0.00    +0.000 C 
ATOM      8  C   UNL     1       2.999   3.981  17.077  0.00  0.00    +0.000 C 
ATOM      9  C   UNL     1       5.984   5.483  17.693  0.00  0.00    +0.000 A 
ATOM     10  C   UNL     1       7.217   5.757  18.338  0.00  0.00    +0.000 A 
ATOM     11  C   UNL     1       7.829   7.017  18.214  0.00  0.00    +0.000 A 
ATOM     12  C   UNL     1       7.140   8.051  17.586  0.00  0.00    +0.000 A 
ATOM     13  C   UNL     1       5.972   7.766  16.893  0.00  0.00    +0.000 A 
ATOM     14  C   UNL     1       5.613   6.429  16.752  0.00  0.00    +0.000 A 
ATOM     15  C   UNL     1       5.807   5.665  15.428  0.00  0.00    +0.000 C 
ATOM     16  C   UNL     1       6.469   4.272  15.966  0.00  0.00    +0.000 C 
ENDROOT
BRANCH  16  17
ATOM     17  O   UNL     1       6.424   3.257  14.974  0.00  0.00    +0.000 OA
ATOM     18  H   UNL     1       5.620   2.738  15.130  0.00  0.00    +0.000 HD
ENDBRANCH  16  17
BRANCH   2  19
ATOM     19  C   UNL     1       1.172   3.500  20.290  0.00  0.00    +0.000 C 
BRANCH  19  20
ATOM     20  O   UNL     1       0.874   4.805  20.768  0.00  0.00    +0.000 OA
BRANCH  20  21
ATOM     21  C   UNL     1       2.044   5.601  20.968  0.00  0.00    +0.000 C 
BRANCH  21  22
ATOM     22  C   UNL     1       1.900   6.890  20.209  0.00  0.00    +0.000 A 
ATOM     23  C   UNL     1       1.256   7.980  20.828  0.00  0.00    +0.000 A 
ATOM     24  C   UNL     1       1.106   9.185  20.137  0.00  0.00    +0.000 A 
ATOM     25  C   UNL     1       1.597   9.310  18.831  0.00  0.00    +0.000 A 
ATOM     26  C   UNL     1       2.242   8.226  18.217  0.00  0.00    +0.000 A 
ATOM     27  C   UNL     1       2.390   7.016  18.922  0.00  0.00    +0.000 A 
ENDBRANCH  21  22
ENDBRANCH  20  21
ENDBRANCH  19  20
ENDBRANCH   2  19
TORSDOF 5
ENDMDL
MODEL 5
REMARK VINA RESULT:      -7.3      3.060      6.731
REMARK  Name = 
REMARK  5 active torsions:
REMARK  status: ('A' for Active; 'I' for Inactive)
REMARK    1  A    between atoms: C_2  and  C_3
REMARK    2  A    between atoms: C_3  and  O_4
REMARK    3  A    between atoms: O_4  and  C_5
REMARK    4  A    between atoms: C_5  and  C_6
REMARK    5  A    between atoms: C_25  and  O_26
REMARK                            x       y       z     vdW  Elec       q    Type
REMARK                         _______ _______ _______ _____ _____    ______ ____
ROOT
ATOM      1  O   UNL     1       7.946   5.237  19.563  0.00  0.00    +0.000 OA
ATOM      2  C   UNL     1       7.534   6.100  18.764  0.00  0.00    +0.000 C 
ATOM      3  N   UNL     1       6.224   6.106  18.323  0.00  0.00    +0.000 N 
ATOM      4  C   UNL     1       5.548   7.065  17.405  0.00  0.00    +0.000 C 
ATOM      5  C   UNL     1       4.174   6.534  16.773  0.00  0.00    +0.000 C 
ATOM      6  C   UNL     1       3.238   6.074  17.924  0.00  0.00    +0.000 C 
ATOM      7  C   UNL     1       4.132   4.943  18.540  0.00  0.00    +0.000 C 
ATOM      8  C   UNL     1       5.355   5.423  19.246  0.00  0.00    +0.000 C 
ATOM      9  C   UNL     1       2.699   7.408  18.506  0.00  0.00    +0.000 A 
ATOM     10  C   UNL     1       1.882   8.301  17.766  0.00  0.00    +0.000 A 
ATOM     11  C   UNL     1       0.946   9.125  18.415  0.00  0.00    +0.000 A 
ATOM     12  C   UNL     1       0.934   9.181  19.806  0.00  0.00    +0.000 A 
ATOM     13  C   UNL     1       1.678   8.258  20.529  0.00  0.00    +0.000 A 
ATOM     14  C   UNL     1       2.302   7.235  19.821  0.00  0.00    +0.000 A 
ATOM     15  C   UNL     1       1.751   5.795  19.808  0.00  0.00    +0.000 C 
ATOM     16  C   UNL     1       1.848   5.439  18.217  0.00  0.00    +0.000 C 
ENDROOT
BRANCH  16  17
ATOM     17  O   UNL     1       1.724   4.044  17.987  0.00  0.00    +0.000 OA
ATOM     18  H   UNL     1       1.143   3.929  17.219  0.00  0.00    +0.000 HD
ENDBRANCH  16  17
BRANCH   2  19
ATOM     19  C   UNL     1       8.507   7.173  18.299  0.00  0.00    +0.000 C 
BRANCH  19  20
ATOM     20  O   UNL     1       8.415   8.403  19.006  0.00  0.00    +0.000 OA
BRANCH  20  21
ATOM     21  C   UNL     1       8.488   9.542  18.145  0.00  0.00    +0.000 C 
BRANCH  21  22
ATOM     22  C   UNL     1       9.421  10.555  18.747  0.00  0.00    +0.000 A 
ATOM     23  C   UNL     1      10.282  11.281  17.899  0.00  0.00    +0.000 A 
ATOM     24  C   UNL     1      11.161  12.223  18.439  0.00  0.00    +0.000 A 
ATOM     25  C   UNL     1      11.186  12.448  19.821  0.00  0.00    +0.000 A 
ATOM     26  C   UNL     1      10.325  11.728  20.664  0.00  0.00    +0.000 A 
ATOM     27  C   UNL     1       9.441  10.782  20.110  0.00  0.00    +0.000 A 
ENDBRANCH  21  22
ENDBRANCH  20  21
ENDBRANCH  19  20
ENDBRANCH   2  19
TORSDOF 5
ENDMDL
MODEL 6
REMARK VINA RESULT:      -7.0      2.692      6.471
REMARK  Name = 
REMARK  5 active torsions:
REMARK  status: ('A' for Active; 'I' for Inactive)
REMARK    1  A    between atoms: C_2  and  C_3
REMARK    2  A    between atoms: C_3  and  O_4
REMARK    3  A    between atoms: O_4  and  C_5
REMARK    4  A    between atoms: C_5  and  C_6
REMARK    5  A    between atoms: C_25  and  O_26
REMARK                            x       y       z     vdW  Elec       q    Type
REMARK                         _______ _______ _______ _____ _____    ______ ____
ROOT
ATOM      1  O   UNL     1       8.298   4.856  17.584  0.00  0.00    +0.000 OA
ATOM      2  C   UNL     1       7.441   5.628  18.053  0.00  0.00    +0.000 C 
ATOM      3  N   UNL     1       6.089   5.355  17.944  0.00  0.00    +0.000 N 
ATOM      4  C   UNL     1       4.931   6.132  18.466  0.00  0.00    +0.000 C 
ATOM      5  C   UNL     1       3.522   5.769  17.793  0.00  0.00    +0.000 C 
ATOM      6  C   UNL     1       3.293   4.238  17.908  0.00  0.00    +0.000 C 
ATOM      7  C   UNL     1       4.533   3.735  17.091  0.00  0.00    +0.000 C 
ATOM      8  C   UNL     1       5.851   3.947  17.757  0.00  0.00    +0.000 C 
ATOM      9  C   UNL     1       2.872   4.045  19.389  0.00  0.00    +0.000 A 
ATOM     10  C   UNL     1       1.681   4.589  19.933  0.00  0.00    +0.000 A 
ATOM     11  C   UNL     1       1.022   3.955  21.001  0.00  0.00    +0.000 A 
ATOM     12  C   UNL     1       1.632   2.876  21.635  0.00  0.00    +0.000 A 
ATOM     13  C   UNL     1       2.757   2.299  21.060  0.00  0.00    +0.000 A 
ATOM     14  C   UNL     1       3.146   2.752  19.803  0.00  0.00    +0.000 A 
ATOM     15  C   UNL     1       2.881   1.937  18.522  0.00  0.00    +0.000 C 
ATOM     16  C   UNL     1       2.303   3.098  17.528  0.00  0.00    +0.000 C 
ENDROOT
BRANCH  16  17
ATOM     17  O   UNL     1       2.309   2.674  16.174  0.00  0.00    +0.000 OA
ATOM     18  H   UNL     1       1.843   3.350  15.658  0.00  0.00    +0.000 HD
ENDBRANCH  16  17
BRANCH   2  19
ATOM     19  C   UNL     1       7.916   6.877  18.780  0.00  0.00    +0.000 C 
BRANCH  19  20
ATOM     20  O   UNL     1       8.548   7.841  17.949  0.00  0.00    +0.000 OA
BRANCH  20  21
ATOM     21  C   UNL     1       7.771   9.031  17.794  0.00  0.00    +0.000 C 
BRANCH  21  22
ATOM     22  C   UNL     1       8.572  10.209  18.274  0.00  0.00    +0.000 A 
ATOM     23  C   UNL     1       8.447  11.441  17.601  0.00  0.00    +0.000 A 
ATOM     24  C   UNL     1       9.187  12.547  18.028  0.00  0.00    +0.000 A 
ATOM     25  C   UNL     1      10.053  12.431  19.122  0.00  0.00    +0.000 A 
ATOM     26  C   UNL     1      10.174  11.205  19.795  0.00  0.00    +0.000 A 
ATOM     27  C   UNL     1       9.422  10.097  19.359  0.00  0.00    +0.000 A 
ENDBRANCH  21  22
ENDBRANCH  20  21
ENDBRANCH  19  20
ENDBRANCH   2  19
TORSDOF 5
ENDMDL
MODEL 7
REMARK VINA RESULT:      -7.0      3.291      6.876
REMARK  Name = 
REMARK  5 active torsions:
REMARK  status: ('A' for Active; 'I' for Inactive)
REMARK    1  A    between atoms: C_2  and  C_3
REMARK    2  A    between atoms: C_3  and  O_4
REMARK    3  A    between atoms: O_4  and  C_5
REMARK    4  A    between atoms: C_5  and  C_6
REMARK    5  A    between atoms: C_25  and  O_26
REMARK                            x       y       z     vdW  Elec       q    Type
REMARK                         _______ _______ _______ _____ _____    ______ ____
ROOT
ATOM      1  O   UNL     1       8.553   6.258  18.385  0.00  0.00    +0.000 OA
ATOM      2  C   UNL     1       7.467   6.724  17.991  0.00  0.00    +0.000 C 
ATOM      3  N   UNL     1       6.376   5.908  17.756  0.00  0.00    +0.000 N 
ATOM      4  C   UNL     1       5.002   6.282  17.319  0.00  0.00    +0.000 C 
ATOM      5  C   UNL     1       4.132   5.071  16.730  0.00  0.00    +0.000 C 
ATOM      6  C   UNL     1       4.117   3.916  17.768  0.00  0.00    +0.000 C 
ATOM      7  C   UNL     1       5.655   3.617  17.836  0.00  0.00    +0.000 C 
ATOM      8  C   UNL     1       6.471   4.677  18.496  0.00  0.00    +0.000 C 
ATOM      9  C   UNL     1       3.102   4.402  18.837  0.00  0.00    +0.000 A 
ATOM     10  C   UNL     1       1.725   4.604  18.562  0.00  0.00    +0.000 A 
ATOM     11  C   UNL     1       0.759   4.446  19.570  0.00  0.00    +0.000 A 
ATOM     12  C   UNL     1       1.171   4.249  20.885  0.00  0.00    +0.000 A 
ATOM     13  C   UNL     1       2.509   3.979  21.144  0.00  0.00    +0.000 A 
ATOM     14  C   UNL     1       3.353   3.792  20.054  0.00  0.00    +0.000 A 
ATOM     15  C   UNL     1       3.834   2.392  19.622  0.00  0.00    +0.000 C 
ATOM     16  C   UNL     1       3.601   2.467  18.007  0.00  0.00    +0.000 C 
ENDROOT
BRANCH  16  17
ATOM     17  O   UNL     1       4.291   1.426  17.333  0.00  0.00    +0.000 OA
ATOM     18  H   UNL     1       3.869   0.590  17.586  0.00  0.00    +0.000 HD
ENDBRANCH  16  17
BRANCH   2  19
ATOM     19  C   UNL     1       7.357   8.229  17.796  0.00  0.00    +0.000 C 
BRANCH  19  20
ATOM     20  O   UNL     1       8.415   8.980  18.376  0.00  0.00    +0.000 OA
BRANCH  20  21
ATOM     21  C   UNL     1       8.410  10.349  17.966  0.00  0.00    +0.000 C 
BRANCH  21  22
ATOM     22  C   UNL     1       9.606  11.044  18.552  0.00  0.00    +0.000 A 
ATOM     23  C   UNL     1      10.598  11.549  17.687  0.00  0.00    +0.000 A 
ATOM     24  C   UNL     1      11.721  12.192  18.212  0.00  0.00    +0.000 A 
ATOM     25  C   UNL     1      11.861  12.338  19.598  0.00  0.00    +0.000 A 
ATOM     26  C   UNL     1      10.871  11.840  20.459  0.00  0.00    +0.000 A 
ATOM     27  C   UNL     1       9.742  11.194  19.920  0.00  0.00    +0.000 A 
ENDBRANCH  21  22
ENDBRANCH  20  21
ENDBRANCH  19  20
ENDBRANCH   2  19
TORSDOF 5
ENDMDL
MODEL 8
REMARK VINA RESULT:      -6.7      0.657      1.308
REMARK  Name = 
REMARK  5 active torsions:
REMARK  status: ('A' for Active; 'I' for Inactive)
REMARK    1  A    between atoms: C_2  and  C_3
REMARK    2  A    between atoms: C_3  and  O_4
REMARK    3  A    between atoms: O_4  and  C_5
REMARK    4  A    between atoms: C_5  and  C_6
REMARK    5  A    between atoms: C_25  and  O_26
REMARK                            x       y       z     vdW  Elec       q    Type
REMARK                         _______ _______ _______ _____ _____    ______ ____
ROOT
ATOM      1  O   UNL     1       0.791   4.137  18.146  0.00  0.00    +0.000 OA
ATOM      2  C   UNL     1       1.672   4.209  19.023  0.00  0.00    +0.000 C 
ATOM      3  N   UNL     1       3.015   4.127  18.704  0.00  0.00    +0.000 N 
ATOM      4  C   UNL     1       4.199   4.224  19.600  0.00  0.00    +0.000 C 
ATOM      5  C   UNL     1       5.563   3.657  18.976  0.00  0.00    +0.000 C 
ATOM      6  C   UNL     1       5.812   4.349  17.608  0.00  0.00    +0.000 C 
ATOM      7  C   UNL     1       4.523   3.879  16.849  0.00  0.00    +0.000 C 
ATOM      8  C   UNL     1       3.252   4.493  17.331  0.00  0.00    +0.000 C 
ATOM      9  C   UNL     1       6.333   5.756  18.004  0.00  0.00    +0.000 A 
ATOM     10  C   UNL     1       7.555   5.963  18.695  0.00  0.00    +0.000 A 
ATOM     11  C   UNL     1       8.289   7.148  18.519  0.00  0.00    +0.000 A 
ATOM     12  C   UNL     1       7.733   8.193  17.786  0.00  0.00    +0.000 A 
ATOM     13  C   UNL     1       6.577   7.967  17.051  0.00  0.00    +0.000 A 
ATOM     14  C   UNL     1       6.100   6.661  16.983  0.00  0.00    +0.000 A 
ATOM     15  C   UNL     1       6.283   5.789  15.725  0.00  0.00    +0.000 C 
ATOM     16  C   UNL     1       6.783   4.384  16.392  0.00  0.00    +0.000 C 
ENDROOT
BRANCH  16  17
ATOM     17  O   UNL     1       6.688   3.308  15.471  0.00  0.00    +0.000 OA
ATOM     18  H   UNL     1       7.588   2.978  15.320  0.00  0.00    +0.000 HD
ENDBRANCH  16  17
BRANCH   2  19
ATOM     19  C   UNL     1       1.237   4.416  20.466  0.00  0.00    +0.000 C 
BRANCH  19  20
ATOM     20  O   UNL     1       0.921   5.761  20.802  0.00  0.00    +0.000 OA
BRANCH  20  21
ATOM     21  C   UNL     1       1.990   6.666  20.521  0.00  0.00    +0.000 C 
BRANCH  21  22
ATOM     22  C   UNL     1       1.454   8.070  20.495  0.00  0.00    +0.000 A 
ATOM     23  C   UNL     1       0.964   8.637  21.689  0.00  0.00    +0.000 A 
ATOM     24  C   UNL     1       0.456   9.939  21.685  0.00  0.00    +0.000 A 
ATOM     25  C   UNL     1       0.434  10.679  20.497  0.00  0.00    +0.000 A 
ATOM     26  C   UNL     1       0.926  10.116  19.310  0.00  0.00    +0.000 A 
ATOM     27  C   UNL     1       1.438   8.804  19.324  0.00  0.00    +0.000 A 
ENDBRANCH  21  22
ENDBRANCH  20  21
ENDBRANCH  19  20
ENDBRANCH   2  19
TORSDOF 5
ENDMDL
MODEL 9
REMARK VINA RESULT:      -6.5      2.879      7.591
REMARK  Name = 
REMARK  5 active torsions:
REMARK  status: ('A' for Active; 'I' for Inactive)
REMARK    1  A    between atoms: C_2  and  C_3
REMARK    2  A    between atoms: C_3  and  O_4
REMARK    3  A    between atoms: O_4  and  C_5
REMARK    4  A    between atoms: C_5  and  C_6
REMARK    5  A    between atoms: C_25  and  O_26
REMARK                            x       y       z     vdW  Elec       q    Type
REMARK                         _______ _______ _______ _____ _____    ______ ____
ROOT
ATOM      1  O   UNL     1       1.818   6.620  20.936  0.00  0.00    +0.000 OA
ATOM      2  C   UNL     1       2.081   7.194  19.863  0.00  0.00    +0.000 C 
ATOM      3  N   UNL     1       1.469   8.383  19.512  0.00  0.00    +0.000 N 
ATOM      4  C   UNL     1       1.677   9.223  18.301  0.00  0.00    +0.000 C 
ATOM      5  C   UNL     1       0.510  10.283  18.010  0.00  0.00    +0.000 C 
ATOM      6  C   UNL     1       0.288  11.144  19.283  0.00  0.00    +0.000 C 
ATOM      7  C   UNL     1      -0.120  10.011  20.287  0.00  0.00    +0.000 C 
ATOM      8  C   UNL     1       0.986   9.087  20.672  0.00  0.00    +0.000 C 
ATOM      9  C   UNL     1       1.481  12.137  19.260  0.00  0.00    +0.000 A 
ATOM     10  C   UNL     1       1.660  13.109  18.242  0.00  0.00    +0.000 A 
ATOM     11  C   UNL     1       2.317  14.322  18.513  0.00  0.00    +0.000 A 
ATOM     12  C   UNL     1       2.938  14.501  19.746  0.00  0.00    +0.000 A 
ATOM     13  C   UNL     1       2.702  13.586  20.764  0.00  0.00    +0.000 A 
ATOM     14  C   UNL     1       1.748  12.599  20.538  0.00  0.00    +0.000 A 
ATOM     15  C   UNL     1       0.340  12.663  21.162  0.00  0.00    +0.000 C 
ATOM     16  C   UNL     1      -0.589  12.287  19.872  0.00  0.00    +0.000 C 
ENDROOT
BRANCH  16  17
ATOM     17  O   UNL     1      -1.908  11.939  20.265  0.00  0.00    +0.000 OA
ATOM     18  H   UNL     1      -1.934  10.975  20.369  0.00  0.00    +0.000 HD
ENDBRANCH  16  17
BRANCH   2  19
ATOM     19  C   UNL     1       3.120   6.565  18.946  0.00  0.00    +0.000 C 
BRANCH  19  20
ATOM     20  O   UNL     1       3.970   5.617  19.577  0.00  0.00    +0.000 OA
BRANCH  20  21
ATOM     21  C   UNL     1       3.976   4.351  18.912  0.00  0.00    +0.000 C 
BRANCH  21  22
ATOM     22  C   UNL     1       5.012   4.370  17.825  0.00  0.00    +0.000 A 
ATOM     23  C   UNL     1       6.353   4.650  18.161  0.00  0.00    +0.000 A 
ATOM     24  C   UNL     1       7.331   4.678  17.164  0.00  0.00    +0.000 A 
ATOM     25  C   UNL     1       6.981   4.428  15.831  0.00  0.00    +0.000 A 
ATOM     26  C   UNL     1       5.648   4.145  15.497  0.00  0.00    +0.000 A 
ATOM     27  C   UNL     1       4.669   4.117  16.510  0.00  0.00    +0.000 A 
ENDBRANCH  21  22
ENDBRANCH  20  21
ENDBRANCH  19  20
ENDBRANCH   2  19
TORSDOF 5
ENDMDL
