MODEL 1
REMARK VINA RESULT:      -8.5      0.000      0.000
REMARK  Name = 
REMARK  6 active torsions:
REMARK  status: ('A' for Active; 'I' for Inactive)
REMARK    1  A    between atoms: C_2  and  C_23
REMARK    2  A    between atoms: CA_6  and  C_7
REMARK    3  A    between atoms: C_7  and  O_8
REMARK    4  A    between atoms: C_9  and  S_10
REMARK    5  A    between atoms: S_10  and  C_13
REMARK    6  A    between atoms: C_13  and  C_14
REMARK                            x       y       z     vdW  Elec       q    Type
REMARK                         _______ _______ _______ _____ _____    ______ ____
ROOT
ATOM      1  O   UNL     1       7.849  10.406  17.496  0.00  0.00    +0.000 OA
ATOM      2  C   UNL     1       8.619   9.851  18.276  0.00  0.00    +0.000 C 
ATOM      3  N   UNL     1       8.609   8.515  18.627  0.00  0.00    +0.000 N 
ATOM      4  C   UNL     1       7.717   7.654  18.046  0.00  0.00    +0.000 A 
ATOM      5  N   UNL     1       6.992   7.855  16.977  0.00  0.00    +0.000 NA
ATOM      6  CA  UNL     1       6.181   6.754  16.727  0.00  0.00    +0.000 A 
ATOM      7  C   UNL     1       6.252   5.760  17.689  0.00  0.00    +0.000 A 
ATOM      8  S   UNL     1       7.499   6.149  18.817  0.00  0.00    +0.000 S 
ATOM      9  H   UNL     1       9.219   8.196  19.368  0.00  0.00    +0.000 HD
ENDROOT
BRANCH   2  10
ATOM     10  C   UNL     1       9.646  10.687  18.975  0.00  0.00    +0.000 A 
ATOM     11  C   UNL     1      10.774  11.091  18.264  0.00  0.00    +0.000 A 
ATOM     12  C   UNL     1      11.750  11.828  18.924  0.00  0.00    +0.000 A 
ATOM     13  C   UNL     1      11.574  12.127  20.269  0.00  0.00    +0.000 A 
ATOM     14  C   UNL     1      10.410  11.696  20.896  0.00  0.00    +0.000 A 
ATOM     15  N   UNL     1       9.425  10.994  20.283  0.00  0.00    +0.000 NA
ENDBRANCH   2  10
BRANCH   7  16
ATOM     16  S   UNL     1       5.373   4.235  17.919  0.00  0.00    +0.000 S 
ATOM     17  O   UNL     1       5.767   3.425  16.783  0.00  0.00    +0.000 OA
ATOM     18  O   UNL     1       5.667   3.834  19.278  0.00  0.00    +0.000 OA
BRANCH  16  19
ATOM     19  C   UNL     1       3.651   4.691  17.757  0.00  0.00    +0.000 C 
BRANCH  19  20
ATOM     20  C   UNL     1       2.849   4.043  18.848  0.00  0.00    +0.000 A 
ATOM     21  C   UNL     1       2.518   4.738  20.011  0.00  0.00    +0.000 A 
ATOM     22  F   UNL     1       2.925   6.006  20.162  0.00  0.00    +0.000 F 
ATOM     23  C   UNL     1       1.741   4.160  21.014  0.00  0.00    +0.000 A 
ATOM     24  C   UNL     1       1.285   2.850  20.871  0.00  0.00    +0.000 A 
ATOM     25  C   UNL     1       1.615   2.131  19.724  0.00  0.00    +0.000 A 
ATOM     26  C   UNL     1       2.390   2.731  18.728  0.00  0.00    +0.000 A 
ATOM     27  F   UNL     1       2.667   2.031  17.620  0.00  0.00    +0.000 F 
ENDBRANCH  19  20
ENDBRANCH  16  19
ENDBRANCH   7  16
BRANCH   6  28
ATOM     28  C   UNL     1       5.340   6.800  15.491  0.00  0.00    +0.000 C 
BRANCH  28  29
ATOM     29  O   UNL     1       5.616   5.683  14.641  0.00  0.00    +0.000 OA
ATOM     30  H   UNL     1       5.612   6.049  13.732  0.00  0.00    +0.000 HD
ENDBRANCH  28  29
ENDBRANCH   6  28
TORSDOF 6
ENDMDL
MODEL 2
REMARK VINA RESULT:      -8.5      0.052      1.555
REMARK  Name = 
REMARK  6 active torsions:
REMARK  status: ('A' for Active; 'I' for Inactive)
REMARK    1  A    between atoms: C_2  and  C_23
REMARK    2  A    between atoms: CA_6  and  C_7
REMARK    3  A    between atoms: C_7  and  O_8
REMARK    4  A    between atoms: C_9  and  S_10
REMARK    5  A    between atoms: S_10  and  C_13
REMARK    6  A    between atoms: C_13  and  C_14
REMARK                            x       y       z     vdW  Elec       q    Type
REMARK                         _______ _______ _______ _____ _____    ______ ____
ROOT
ATOM      1  O   UNL     1       7.871  10.388  17.504  0.00  0.00    +0.000 OA
ATOM      2  C   UNL     1       8.631   9.832  18.292  0.00  0.00    +0.000 C 
ATOM      3  N   UNL     1       8.608   8.498  18.650  0.00  0.00    +0.000 N 
ATOM      4  C   UNL     1       7.713   7.641  18.070  0.00  0.00    +0.000 A 
ATOM      5  N   UNL     1       6.996   7.841  16.995  0.00  0.00    +0.000 NA
ATOM      6  CA  UNL     1       6.178   6.745  16.746  0.00  0.00    +0.000 A 
ATOM      7  C   UNL     1       6.234   5.757  17.714  0.00  0.00    +0.000 A 
ATOM      8  S   UNL     1       7.477   6.143  18.849  0.00  0.00    +0.000 S 
ATOM      9  H   UNL     1       9.210   8.178  19.398  0.00  0.00    +0.000 HD
ENDROOT
BRANCH   2  10
ATOM     10  C   UNL     1       9.661  10.663  18.992  0.00  0.00    +0.000 A 
ATOM     11  C   UNL     1      10.834  10.985  18.312  0.00  0.00    +0.000 A 
ATOM     12  C   UNL     1      11.810  11.718  18.977  0.00  0.00    +0.000 A 
ATOM     13  C   UNL     1      11.589  12.095  20.296  0.00  0.00    +0.000 A 
ATOM     14  C   UNL     1      10.383  11.743  20.891  0.00  0.00    +0.000 A 
ATOM     15  N   UNL     1       9.397  11.048  20.271  0.00  0.00    +0.000 NA
ENDBRANCH   2  10
BRANCH   7  16
ATOM     16  S   UNL     1       5.341   4.240  17.948  0.00  0.00    +0.000 S 
ATOM     17  O   UNL     1       5.745   3.416  16.827  0.00  0.00    +0.000 OA
ATOM     18  O   UNL     1       5.612   3.852  19.316  0.00  0.00    +0.000 OA
BRANCH  16  19
ATOM     19  C   UNL     1       3.625   4.707  17.756  0.00  0.00    +0.000 C 
BRANCH  19  20
ATOM     20  C   UNL     1       2.801   4.066  18.836  0.00  0.00    +0.000 A 
ATOM     21  C   UNL     1       2.354   2.750  18.719  0.00  0.00    +0.000 A 
ATOM     22  F   UNL     1       2.660   2.044  17.621  0.00  0.00    +0.000 F 
ATOM     23  C   UNL     1       1.622   2.132  19.730  0.00  0.00    +0.000 A 
ATOM     24  C   UNL     1       1.311   2.838  20.892  0.00  0.00    +0.000 A 
ATOM     25  C   UNL     1       1.735   4.158  21.026  0.00  0.00    +0.000 A 
ATOM     26  C   UNL     1       2.472   4.758  20.002  0.00  0.00    +0.000 A 
ATOM     27  F   UNL     1       2.897   6.017  20.168  0.00  0.00    +0.000 F 
ENDBRANCH  19  20
ENDBRANCH  16  19
ENDBRANCH   7  16
BRANCH   6  28
ATOM     28  C   UNL     1       5.344   6.790  15.504  0.00  0.00    +0.000 C 
BRANCH  28  29
ATOM     29  O   UNL     1       5.604   5.657  14.672  0.00  0.00    +0.000 OA
ATOM     30  H   UNL     1       6.274   5.133  15.158  0.00  0.00    +0.000 HD
ENDBRANCH  28  29
ENDBRANCH   6  28
TORSDOF 6
ENDMDL
MODEL 3
REMARK VINA RESULT:      -7.9      1.271      1.692
REMARK  Name = 
REMARK  6 active torsions:
REMARK  status: ('A' for Active; 'I' for Inactive)
REMARK    1  A    between atoms: C_2  and  C_23
REMARK    2  A    between atoms: CA_6  and  C_7
REMARK    3  A    between atoms: C_7  and  O_8
REMARK    4  A    between atoms: C_9  and  S_10
REMARK    5  A    between atoms: S_10  and  C_13
REMARK    6  A    between atoms: C_13  and  C_14
REMARK                            x       y       z     vdW  Elec       q    Type
REMARK                         _______ _______ _______ _____ _____    ______ ____
ROOT
ATOM      1  O   UNL     1       7.976  10.561  17.486  0.00  0.00    +0.000 OA
ATOM      2  C   UNL     1       8.820  10.033  18.206  0.00  0.00    +0.000 C 
ATOM      3  N   UNL     1       8.830   8.716  18.625  0.00  0.00    +0.000 N 
ATOM      4  C   UNL     1       7.869   7.844  18.192  0.00  0.00    +0.000 A 
ATOM      5  N   UNL     1       7.034   8.004  17.199  0.00  0.00    +0.000 NA
ATOM      6  CA  UNL     1       6.186   6.907  17.096  0.00  0.00    +0.000 A 
ATOM      7  C   UNL     1       6.349   5.962  18.096  0.00  0.00    +0.000 A 
ATOM      8  S   UNL     1       7.716   6.385  19.060  0.00  0.00    +0.000 S 
ATOM      9  H   UNL     1       9.513   8.424  19.312  0.00  0.00    +0.000 HD
ENDROOT
BRANCH   2  10
ATOM     10  C   UNL     1       9.928  10.883  18.743  0.00  0.00    +0.000 A 
ATOM     11  C   UNL     1       9.968  11.143  20.111  0.00  0.00    +0.000 A 
ATOM     12  C   UNL     1      10.970  11.970  20.604  0.00  0.00    +0.000 A 
ATOM     13  C   UNL     1      11.890  12.516  19.718  0.00  0.00    +0.000 A 
ATOM     14  C   UNL     1      11.783  12.192  18.370  0.00  0.00    +0.000 A 
ATOM     15  N   UNL     1      10.834  11.373  17.852  0.00  0.00    +0.000 NA
ENDBRANCH   2  10
BRANCH   7  16
ATOM     16  S   UNL     1       5.479   4.467  18.501  0.00  0.00    +0.000 S 
ATOM     17  O   UNL     1       5.067   3.940  17.216  0.00  0.00    +0.000 OA
ATOM     18  O   UNL     1       6.375   3.737  19.372  0.00  0.00    +0.000 OA
BRANCH  16  19
ATOM     19  C   UNL     1       4.041   5.026  19.405  0.00  0.00    +0.000 C 
BRANCH  19  20
ATOM     20  C   UNL     1       2.903   4.071  19.189  0.00  0.00    +0.000 A 
ATOM     21  C   UNL     1       2.836   2.860  19.879  0.00  0.00    +0.000 A 
ATOM     22  F   UNL     1       3.806   2.540  20.747  0.00  0.00    +0.000 F 
ATOM     23  C   UNL     1       1.765   1.983  19.717  0.00  0.00    +0.000 A 
ATOM     24  C   UNL     1       0.732   2.305  18.838  0.00  0.00    +0.000 A 
ATOM     25  C   UNL     1       0.784   3.502  18.128  0.00  0.00    +0.000 A 
ATOM     26  C   UNL     1       1.864   4.369  18.309  0.00  0.00    +0.000 A 
ATOM     27  F   UNL     1       1.876   5.530  17.639  0.00  0.00    +0.000 F 
ENDBRANCH  19  20
ENDBRANCH  16  19
ENDBRANCH   7  16
BRANCH   6  28
ATOM     28  C   UNL     1       5.215   6.905  15.959  0.00  0.00    +0.000 C 
BRANCH  28  29
ATOM     29  O   UNL     1       5.565   5.916  14.987  0.00  0.00    +0.000 OA
ATOM     30  H   UNL     1       6.540   5.970  14.910  0.00  0.00    +0.000 HD
ENDBRANCH  28  29
ENDBRANCH   6  28
TORSDOF 6
ENDMDL
MODEL 4
REMARK VINA RESULT:      -7.7      0.946      1.263
REMARK  Name = 
REMARK  6 active torsions:
REMARK  status: ('A' for Active; 'I' for Inactive)
REMARK    1  A    between atoms: C_2  and  C_23
REMARK    2  A    between atoms: CA_6  and  C_7
REMARK    3  A    between atoms: C_7  and  O_8
REMARK    4  A    between atoms: C_9  and  S_10
REMARK    5  A    between atoms: S_10  and  C_13
REMARK    6  A    between atoms: C_13  and  C_14
REMARK                            x       y       z     vdW  Elec       q    Type
REMARK                         _______ _______ _______ _____ _____    ______ ____
ROOT
ATOM      1  O   UNL     1       7.797  10.240  17.397  0.00  0.00    +0.000 OA
ATOM      2  C   UNL     1       8.528   9.702  18.226  0.00  0.00    +0.000 C 
ATOM      3  N   UNL     1       8.499   8.374  18.605  0.00  0.00    +0.000 N 
ATOM      4  C   UNL     1       7.634   7.501  18.001  0.00  0.00    +0.000 A 
ATOM      5  N   UNL     1       6.962   7.679  16.895  0.00  0.00    +0.000 NA
ATOM      6  CA  UNL     1       6.162   6.572  16.630  0.00  0.00    +0.000 A 
ATOM      7  C   UNL     1       6.186   5.600  17.616  0.00  0.00    +0.000 A 
ATOM      8  S   UNL     1       7.377   6.014  18.794  0.00  0.00    +0.000 S 
ATOM      9  H   UNL     1       9.072   8.072  19.381  0.00  0.00    +0.000 HD
ENDROOT
BRANCH   2  10
ATOM     10  C   UNL     1       9.522  10.553  18.954  0.00  0.00    +0.000 A 
ATOM     11  C   UNL     1      10.659  10.982  18.273  0.00  0.00    +0.000 A 
ATOM     12  C   UNL     1      11.604  11.733  18.961  0.00  0.00    +0.000 A 
ATOM     13  C   UNL     1      11.389  12.021  20.304  0.00  0.00    +0.000 A 
ATOM     14  C   UNL     1      10.218  11.565  20.899  0.00  0.00    +0.000 A 
ATOM     15  N   UNL     1       9.262  10.848  20.257  0.00  0.00    +0.000 NA
ENDBRANCH   2  10
BRANCH   7  16
ATOM     16  S   UNL     1       5.294   4.081  17.837  0.00  0.00    +0.000 S 
ATOM     17  O   UNL     1       5.827   3.206  16.813  0.00  0.00    +0.000 OA
ATOM     18  O   UNL     1       5.423   3.772  19.245  0.00  0.00    +0.000 OA
BRANCH  16  19
ATOM     19  C   UNL     1       3.602   4.502  17.440  0.00  0.00    +0.000 C 
BRANCH  19  20
ATOM     20  C   UNL     1       2.908   5.025  18.665  0.00  0.00    +0.000 A 
ATOM     21  C   UNL     1       2.838   6.393  18.926  0.00  0.00    +0.000 A 
ATOM     22  F   UNL     1       3.404   7.259  18.074  0.00  0.00    +0.000 F 
ATOM     23  C   UNL     1       2.164   6.893  20.038  0.00  0.00    +0.000 A 
ATOM     24  C   UNL     1       1.546   6.014  20.928  0.00  0.00    +0.000 A 
ATOM     25  C   UNL     1       1.614   4.643  20.695  0.00  0.00    +0.000 A 
ATOM     26  C   UNL     1       2.291   4.163  19.571  0.00  0.00    +0.000 A 
ATOM     27  F   UNL     1       2.315   2.841  19.350  0.00  0.00    +0.000 F 
ENDBRANCH  19  20
ENDBRANCH  16  19
ENDBRANCH   7  16
BRANCH   6  28
ATOM     28  C   UNL     1       5.381   6.591  15.355  0.00  0.00    +0.000 C 
BRANCH  28  29
ATOM     29  O   UNL     1       5.558   5.372  14.627  0.00  0.00    +0.000 OA
ATOM     30  H   UNL     1       6.457   5.063  14.865  0.00  0.00    +0.000 HD
ENDBRANCH  28  29
ENDBRANCH   6  28
TORSDOF 6
ENDMDL
MODEL 5
REMARK VINA RESULT:      -7.3      4.505      5.980
REMARK  Name = 
REMARK  6 active torsions:
REMARK  status: ('A' for Active; 'I' for Inactive)
REMARK    1  A    between atoms: C_2  and  C_23
REMARK    2  A    between atoms: CA_6  and  C_7
REMARK    3  A    between atoms: C_7  and  O_8
REMARK    4  A    between atoms: C_9  and  S_10
REMARK    5  A    between atoms: S_10  and  C_13
REMARK    6  A    between atoms: C_13  and  C_14
REMARK                            x       y       z     vdW  Elec       q    Type
REMARK                         _______ _______ _______ _____ _____    ______ ____
ROOT
ATOM      1  O   UNL     1       1.414   9.471  17.425  0.00  0.00    +0.000 OA
ATOM      2  C   UNL     1       1.388   9.264  18.636  0.00  0.00    +0.000 C 
ATOM      3  N   UNL     1       2.099   8.296  19.318  0.00  0.00    +0.000 N 
ATOM      4  C   UNL     1       2.980   7.486  18.652  0.00  0.00    +0.000 A 
ATOM      5  N   UNL     1       3.462   7.650  17.448  0.00  0.00    +0.000 NA
ATOM      6  CA  UNL     1       4.300   6.593  17.113  0.00  0.00    +0.000 A 
ATOM      7  C   UNL     1       4.360   5.587  18.063  0.00  0.00    +0.000 A 
ATOM      8  S   UNL     1       3.492   6.082  19.471  0.00  0.00    +0.000 S 
ATOM      9  H   UNL     1       1.908   8.144  20.300  0.00  0.00    +0.000 HD
ENDROOT
BRANCH   2  10
ATOM     10  C   UNL     1       0.464  10.089  19.478  0.00  0.00    +0.000 A 
ATOM     11  C   UNL     1       0.436   9.868  20.853  0.00  0.00    +0.000 A 
ATOM     12  C   UNL     1      -0.453  10.601  21.629  0.00  0.00    +0.000 A 
ATOM     13  C   UNL     1      -1.290  11.520  21.007  0.00  0.00    +0.000 A 
ATOM     14  C   UNL     1      -1.184  11.687  19.631  0.00  0.00    +0.000 A 
ATOM     15  N   UNL     1      -0.315  11.007  18.842  0.00  0.00    +0.000 NA
ENDBRANCH   2  10
BRANCH   7  16
ATOM     16  S   UNL     1       5.160   4.002  18.098  0.00  0.00    +0.000 S 
ATOM     17  O   UNL     1       5.975   3.992  16.899  0.00  0.00    +0.000 OA
ATOM     18  O   UNL     1       5.747   3.907  19.418  0.00  0.00    +0.000 OA
BRANCH  16  19
ATOM     19  C   UNL     1       3.822   2.829  17.920  0.00  0.00    +0.000 C 
BRANCH  19  20
ATOM     20  C   UNL     1       2.922   2.900  19.120  0.00  0.00    +0.000 A 
ATOM     21  C   UNL     1       1.639   3.440  19.030  0.00  0.00    +0.000 A 
ATOM     22  F   UNL     1       1.201   3.909  17.853  0.00  0.00    +0.000 F 
ATOM     23  C   UNL     1       0.781   3.475  20.127  0.00  0.00    +0.000 A 
ATOM     24  C   UNL     1       1.204   2.971  21.356  0.00  0.00    +0.000 A 
ATOM     25  C   UNL     1       2.486   2.440  21.474  0.00  0.00    +0.000 A 
ATOM     26  C   UNL     1       3.330   2.409  20.360  0.00  0.00    +0.000 A 
ATOM     27  F   UNL     1       4.547   1.863  20.489  0.00  0.00    +0.000 F 
ENDBRANCH  19  20
ENDBRANCH  16  19
ENDBRANCH   7  16
BRANCH   6  28
ATOM     28  C   UNL     1       4.991   6.669  15.789  0.00  0.00    +0.000 C 
BRANCH  28  29
ATOM     29  O   UNL     1       6.409   6.573  15.944  0.00  0.00    +0.000 OA
ATOM     30  H   UNL     1       6.543   5.902  16.646  0.00  0.00    +0.000 HD
ENDBRANCH  28  29
ENDBRANCH   6  28
TORSDOF 6
ENDMDL
MODEL 6
REMARK VINA RESULT:      -7.3      4.511      5.998
REMARK  Name = 
REMARK  6 active torsions:
REMARK  status: ('A' for Active; 'I' for Inactive)
REMARK    1  A    between atoms: C_2  and  C_23
REMARK    2  A    between atoms: CA_6  and  C_7
REMARK    3  A    between atoms: C_7  and  O_8
REMARK    4  A    between atoms: C_9  and  S_10
REMARK    5  A    between atoms: S_10  and  C_13
REMARK    6  A    between atoms: C_13  and  C_14
REMARK                            x       y       z     vdW  Elec       q    Type
REMARK                         _______ _______ _______ _____ _____    ______ ____
ROOT
ATOM      1  O   UNL     1       1.400   9.472  17.423  0.00  0.00    +0.000 OA
ATOM      2  C   UNL     1       1.370   9.263  18.634  0.00  0.00    +0.000 C 
ATOM      3  N   UNL     1       2.078   8.293  19.316  0.00  0.00    +0.000 N 
ATOM      4  C   UNL     1       2.959   7.483  18.651  0.00  0.00    +0.000 A 
ATOM      5  N   UNL     1       3.446   7.649  17.449  0.00  0.00    +0.000 NA
ATOM      6  CA  UNL     1       4.283   6.590  17.115  0.00  0.00    +0.000 A 
ATOM      7  C   UNL     1       4.339   5.583  18.064  0.00  0.00    +0.000 A 
ATOM      8  S   UNL     1       3.467   6.077  19.469  0.00  0.00    +0.000 S 
ATOM      9  H   UNL     1       1.883   8.140  20.297  0.00  0.00    +0.000 HD
ENDROOT
BRANCH   2  10
ATOM     10  C   UNL     1       0.444  10.089  19.474  0.00  0.00    +0.000 A 
ATOM     11  C   UNL     1       0.436   9.888  20.852  0.00  0.00    +0.000 A 
ATOM     12  C   UNL     1      -0.455  10.620  21.627  0.00  0.00    +0.000 A 
ATOM     13  C   UNL     1      -1.311  11.518  21.002  0.00  0.00    +0.000 A 
ATOM     14  C   UNL     1      -1.224  11.665  19.622  0.00  0.00    +0.000 A 
ATOM     15  N   UNL     1      -0.355  10.985  18.833  0.00  0.00    +0.000 NA
ENDBRANCH   2  10
BRANCH   7  16
ATOM     16  S   UNL     1       5.137   3.997  18.098  0.00  0.00    +0.000 S 
ATOM     17  O   UNL     1       5.970   3.995  16.912  0.00  0.00    +0.000 OA
ATOM     18  O   UNL     1       5.703   3.891  19.426  0.00  0.00    +0.000 OA
BRANCH  16  19
ATOM     19  C   UNL     1       3.801   2.827  17.891  0.00  0.00    +0.000 C 
BRANCH  19  20
ATOM     20  C   UNL     1       2.895   2.873  19.088  0.00  0.00    +0.000 A 
ATOM     21  C   UNL     1       3.308   2.379  20.325  0.00  0.00    +0.000 A 
ATOM     22  F   UNL     1       4.533   1.849  20.449  0.00  0.00    +0.000 F 
ATOM     23  C   UNL     1       2.492   2.451  21.452  0.00  0.00    +0.000 A 
ATOM     24  C   UNL     1       1.222   3.020  21.354  0.00  0.00    +0.000 A 
ATOM     25  C   UNL     1       0.783   3.508  20.126  0.00  0.00    +0.000 A 
ATOM     26  C   UNL     1       1.619   3.430  19.009  0.00  0.00    +0.000 A 
ATOM     27  F   UNL     1       1.187   3.936  17.846  0.00  0.00    +0.000 F 
ENDBRANCH  19  20
ENDBRANCH  16  19
ENDBRANCH   7  16
BRANCH   6  28
ATOM     28  C   UNL     1       4.978   6.668  15.793  0.00  0.00    +0.000 C 
BRANCH  28  29
ATOM     29  O   UNL     1       6.397   6.593  15.955  0.00  0.00    +0.000 OA
ATOM     30  H   UNL     1       6.649   5.721  15.585  0.00  0.00    +0.000 HD
ENDBRANCH  28  29
ENDBRANCH   6  28
TORSDOF 6
ENDMDL
MODEL 7
REMARK VINA RESULT:      -7.3      6.894     10.082
REMARK  Name = 
REMARK  6 active torsions:
REMARK  status: ('A' for Active; 'I' for Inactive)
REMARK    1  A    between atoms: C_2  and  C_23
REMARK    2  A    between atoms: CA_6  and  C_7
REMARK    3  A    between atoms: C_7  and  O_8
REMARK    4  A    between atoms: C_9  and  S_10
REMARK    5  A    between atoms: S_10  and  C_13
REMARK    6  A    between atoms: C_13  and  C_14
REMARK                            x       y       z     vdW  Elec       q    Type
REMARK                         _______ _______ _______ _____ _____    ______ ____
ROOT
ATOM      1  O   UNL     1       1.560   5.496  20.923  0.00  0.00    +0.000 OA
ATOM      2  C   UNL     1       2.126   5.884  19.904  0.00  0.00    +0.000 C 
ATOM      3  N   UNL     1       2.192   7.186  19.448  0.00  0.00    +0.000 N 
ATOM      4  C   UNL     1       1.641   8.204  20.179  0.00  0.00    +0.000 A 
ATOM      5  N   UNL     1       1.252   8.172  21.426  0.00  0.00    +0.000 NA
ATOM      6  CA  UNL     1       0.711   9.398  21.797  0.00  0.00    +0.000 A 
ATOM      7  C   UNL     1       0.622  10.320  20.767  0.00  0.00    +0.000 A 
ATOM      8  S   UNL     1       1.405   9.684  19.366  0.00  0.00    +0.000 S 
ATOM      9  H   UNL     1       2.587   7.368  18.534  0.00  0.00    +0.000 HD
ENDROOT
BRANCH   2  10
ATOM     10  C   UNL     1       2.773   4.864  19.018  0.00  0.00    +0.000 A 
ATOM     11  C   UNL     1       2.000   4.242  18.040  0.00  0.00    +0.000 A 
ATOM     12  C   UNL     1       2.587   3.263  17.249  0.00  0.00    +0.000 A 
ATOM     13  C   UNL     1       3.918   2.929  17.466  0.00  0.00    +0.000 A 
ATOM     14  C   UNL     1       4.618   3.611  18.455  0.00  0.00    +0.000 A 
ATOM     15  N   UNL     1       4.088   4.587  19.234  0.00  0.00    +0.000 NA
ENDBRANCH   2  10
BRANCH   7  16
ATOM     16  S   UNL     1      -0.072  11.951  20.661  0.00  0.00    +0.000 S 
ATOM     17  O   UNL     1      -1.463  11.767  21.020  0.00  0.00    +0.000 OA
ATOM     18  O   UNL     1       0.813  12.786  21.444  0.00  0.00    +0.000 OA
BRANCH  16  19
ATOM     19  C   UNL     1       0.046  12.366  18.925  0.00  0.00    +0.000 C 
BRANCH  19  20
ATOM     20  C   UNL     1       0.837  13.631  18.758  0.00  0.00    +0.000 A 
ATOM     21  C   UNL     1       2.169  13.601  18.346  0.00  0.00    +0.000 A 
ATOM     22  F   UNL     1       2.757  12.423  18.098  0.00  0.00    +0.000 F 
ATOM     23  C   UNL     1       2.901  14.770  18.150  0.00  0.00    +0.000 A 
ATOM     24  C   UNL     1       2.305  16.010  18.378  0.00  0.00    +0.000 A 
ATOM     25  C   UNL     1       0.980  16.064  18.803  0.00  0.00    +0.000 A 
ATOM     26  C   UNL     1       0.261  14.881  18.989  0.00  0.00    +0.000 A 
ATOM     27  F   UNL     1      -1.022  14.959  19.367  0.00  0.00    +0.000 F 
ENDBRANCH  19  20
ENDBRANCH  16  19
ENDBRANCH   7  16
BRANCH   6  28
ATOM     28  C   UNL     1       0.283   9.546  23.223  0.00  0.00    +0.000 C 
BRANCH  28  29
ATOM     29  O   UNL     1      -1.112   9.847  23.311  0.00  0.00    +0.000 OA
ATOM     30  H   UNL     1      -1.274  10.026  24.260  0.00  0.00    +0.000 HD
ENDBRANCH  28  29
ENDBRANCH   6  28
TORSDOF 6
ENDMDL
MODEL 8
REMARK VINA RESULT:      -7.3      6.474      8.619
REMARK  Name = 
REMARK  6 active torsions:
REMARK  status: ('A' for Active; 'I' for Inactive)
REMARK    1  A    between atoms: C_2  and  C_23
REMARK    2  A    between atoms: CA_6  and  C_7
REMARK    3  A    between atoms: C_7  and  O_8
REMARK    4  A    between atoms: C_9  and  S_10
REMARK    5  A    between atoms: S_10  and  C_13
REMARK    6  A    between atoms: C_13  and  C_14
REMARK                            x       y       z     vdW  Elec       q    Type
REMARK                         _______ _______ _______ _____ _____    ______ ____
ROOT
ATOM      1  O   UNL     1       3.106   5.507  18.970  0.00  0.00    +0.000 OA
ATOM      2  C   UNL     1       3.547   6.163  18.029  0.00  0.00    +0.000 C 
ATOM      3  N   UNL     1       3.242   7.477  17.732  0.00  0.00    +0.000 N 
ATOM      4  C   UNL     1       2.418   8.199  18.554  0.00  0.00    +0.000 A 
ATOM      5  N   UNL     1       2.045   7.903  19.771  0.00  0.00    +0.000 NA
ATOM      6  CA  UNL     1       1.174   8.871  20.260  0.00  0.00    +0.000 A 
ATOM      7  C   UNL     1       0.834   9.851  19.343  0.00  0.00    +0.000 A 
ATOM      8  S   UNL     1       1.777   9.643  17.912  0.00  0.00    +0.000 S 
ATOM      9  H   UNL     1       3.576   7.876  16.865  0.00  0.00    +0.000 HD
ENDROOT
BRANCH   2  10
ATOM     10  C   UNL     1       4.464   5.485  17.058  0.00  0.00    +0.000 A 
ATOM     11  C   UNL     1       5.062   6.250  16.059  0.00  0.00    +0.000 A 
ATOM     12  C   UNL     1       5.877   5.614  15.131  0.00  0.00    +0.000 A 
ATOM     13  C   UNL     1       6.059   4.239  15.223  0.00  0.00    +0.000 A 
ATOM     14  C   UNL     1       5.434   3.558  16.262  0.00  0.00    +0.000 A 
ATOM     15  N   UNL     1       4.649   4.144  17.200  0.00  0.00    +0.000 NA
ENDBRANCH   2  10
BRANCH   7  16
ATOM     16  S   UNL     1      -0.294  11.221  19.399  0.00  0.00    +0.000 S 
ATOM     17  O   UNL     1      -0.021  11.851  20.675  0.00  0.00    +0.000 OA
ATOM     18  O   UNL     1      -0.098  11.920  18.147  0.00  0.00    +0.000 OA
BRANCH  16  19
ATOM     19  C   UNL     1      -1.911  10.457  19.445  0.00  0.00    +0.000 C 
BRANCH  19  20
ATOM     20  C   UNL     1      -2.584  10.612  18.112  0.00  0.00    +0.000 A 
ATOM     21  C   UNL     1      -3.663  11.479  17.944  0.00  0.00    +0.000 A 
ATOM     22  F   UNL     1      -4.112  12.185  18.991  0.00  0.00    +0.000 F 
ATOM     23  C   UNL     1      -4.271  11.660  16.704  0.00  0.00    +0.000 A 
ATOM     24  C   UNL     1      -3.807  10.955  15.593  0.00  0.00    +0.000 A 
ATOM     25  C   UNL     1      -2.739  10.073  15.740  0.00  0.00    +0.000 A 
ATOM     26  C   UNL     1      -2.140   9.910  16.991  0.00  0.00    +0.000 A 
ATOM     27  F   UNL     1      -1.094   9.080  17.100  0.00  0.00    +0.000 F 
ENDBRANCH  19  20
ENDBRANCH  16  19
ENDBRANCH   7  16
BRANCH   6  28
ATOM     28  C   UNL     1       0.711   8.713  21.673  0.00  0.00    +0.000 C 
BRANCH  28  29
ATOM     29  O   UNL     1       1.272   9.726  22.513  0.00  0.00    +0.000 OA
ATOM     30  H   UNL     1       2.060  10.049  22.028  0.00  0.00    +0.000 HD
ENDBRANCH  28  29
ENDBRANCH   6  28
TORSDOF 6
ENDMDL
MODEL 9
REMARK VINA RESULT:      -7.2      6.392      8.654
REMARK  Name = 
REMARK  6 active torsions:
REMARK  status: ('A' for Active; 'I' for Inactive)
REMARK    1  A    between atoms: C_2  and  C_23
REMARK    2  A    between atoms: CA_6  and  C_7
REMARK    3  A    between atoms: C_7  and  O_8
REMARK    4  A    between atoms: C_9  and  S_10
REMARK    5  A    between atoms: S_10  and  C_13
REMARK    6  A    between atoms: C_13  and  C_14
REMARK                            x       y       z     vdW  Elec       q    Type
REMARK                         _______ _______ _______ _____ _____    ______ ____
ROOT
ATOM      1  O   UNL     1       3.289   5.393  18.951  0.00  0.00    +0.000 OA
ATOM      2  C   UNL     1       3.683   6.044  17.987  0.00  0.00    +0.000 C 
ATOM      3  N   UNL     1       3.345   7.350  17.687  0.00  0.00    +0.000 N 
ATOM      4  C   UNL     1       2.541   8.068  18.530  0.00  0.00    +0.000 A 
ATOM      5  N   UNL     1       2.217   7.781  19.764  0.00  0.00    +0.000 NA
ATOM      6  CA  UNL     1       1.349   8.739  20.273  0.00  0.00    +0.000 A 
ATOM      7  C   UNL     1       0.959   9.703  19.358  0.00  0.00    +0.000 A 
ATOM      8  S   UNL     1       1.852   9.492  17.896  0.00  0.00    +0.000 S 
ATOM      9  H   UNL     1       3.640   7.743  16.803  0.00  0.00    +0.000 HD
ENDROOT
BRANCH   2  10
ATOM     10  C   UNL     1       4.575   5.370  16.991  0.00  0.00    +0.000 A 
ATOM     11  C   UNL     1       5.380   6.160  16.173  0.00  0.00    +0.000 A 
ATOM     12  C   UNL     1       6.174   5.537  15.217  0.00  0.00    +0.000 A 
ATOM     13  C   UNL     1       6.131   4.153  15.104  0.00  0.00    +0.000 A 
ATOM     14  C   UNL     1       5.310   3.443  15.972  0.00  0.00    +0.000 A 
ATOM     15  N   UNL     1       4.536   4.011  16.931  0.00  0.00    +0.000 NA
ENDBRANCH   2  10
BRANCH   7  16
ATOM     16  S   UNL     1      -0.190  11.054  19.440  0.00  0.00    +0.000 S 
ATOM     17  O   UNL     1       0.055  11.648  20.739  0.00  0.00    +0.000 OA
ATOM     18  O   UNL     1       0.015  11.796  18.214  0.00  0.00    +0.000 OA
BRANCH  16  19
ATOM     19  C   UNL     1      -1.795  10.267  19.438  0.00  0.00    +0.000 C 
BRANCH  19  20
ATOM     20  C   UNL     1      -2.492  10.539  18.135  0.00  0.00    +0.000 A 
ATOM     21  C   UNL     1      -2.099   9.902  16.959  0.00  0.00    +0.000 A 
ATOM     22  F   UNL     1      -1.078   9.034  16.987  0.00  0.00    +0.000 F 
ATOM     23  C   UNL     1      -2.762  10.117  15.752  0.00  0.00    +0.000 A 
ATOM     24  C   UNL     1      -3.843  10.997  15.701  0.00  0.00    +0.000 A 
ATOM     25  C   UNL     1      -4.245  11.655  16.861  0.00  0.00    +0.000 A 
ATOM     26  C   UNL     1      -3.570  11.422  18.061  0.00  0.00    +0.000 A 
ATOM     27  F   UNL     1      -3.996  12.042  19.170  0.00  0.00    +0.000 F 
ENDBRANCH  19  20
ENDBRANCH  16  19
ENDBRANCH   7  16
BRANCH   6  28
ATOM     28  C   UNL     1       0.941   8.591  21.705  0.00  0.00    +0.000 C 
BRANCH  28  29
ATOM     29  O   UNL     1       1.469   9.655  22.501  0.00  0.00    +0.000 OA
ATOM     30  H   UNL     1       1.637   9.255  23.380  0.00  0.00    +0.000 HD
ENDBRANCH  28  29
ENDBRANCH   6  28
TORSDOF 6
ENDMDL
