MODEL 1
REMARK VINA RESULT:      -8.6      0.000      0.000
REMARK  Name = 
REMARK  6 active torsions:
REMARK  status: ('A' for Active; 'I' for Inactive)
REMARK    1  A    between atoms: C_2  and  C_21
REMARK    2  A    between atoms: N_3  and  C_4
REMARK    3  A    between atoms: C_8  and  N_9
REMARK    4  A    between atoms: N_9  and  C_10
REMARK    5  A    between atoms: C_13  and  C_14
REMARK    6  A    between atoms: C_26  and  C_27
REMARK                            x       y       z     vdW  Elec       q    Type
REMARK                         _______ _______ _______ _____ _____    ______ ____
ROOT
ATOM      1  C   UNL     1       5.784   6.381  17.006  0.00  0.00    +0.000 C 
ATOM      2  C   UNL     1       6.690   7.593  17.256  0.00  0.00    +0.000 C 
ATOM      3  C   UNL     1       7.719   7.130  18.279  0.00  0.00    +0.000 C 
ATOM      4  C   UNL     1       7.704   5.601  18.256  0.00  0.00    +0.000 C 
ATOM      5  C   UNL     1       6.770   5.183  17.102  0.00  0.00    +0.000 C 
ENDROOT
BRANCH   1   8
ATOM      6  O   UNL     1       3.134   7.697  16.704  0.00  0.00    +0.000 OA
ATOM      7  C   UNL     1       3.467   7.116  17.727  0.00  0.00    +0.000 C 
ATOM      8  N   UNL     1       4.616   6.368  17.897  0.00  0.00    +0.000 N 
ATOM      9  H   UNL     1       4.772   5.948  18.803  0.00  0.00    +0.000 HD
BRANCH   7  10
ATOM     10  C   UNL     1       2.541   7.161  18.880  0.00  0.00    +0.000 A 
ATOM     11  C   UNL     1       2.127   8.434  19.313  0.00  0.00    +0.000 A 
ATOM     12  C   UNL     1       1.412   8.570  20.499  0.00  0.00    +0.000 A 
ATOM     13  C   UNL     1       1.117   7.441  21.256  0.00  0.00    +0.000 A 
ATOM     14  C   UNL     1       1.520   6.174  20.818  0.00  0.00    +0.000 A 
ATOM     15  C   UNL     1       2.235   5.993  19.616  0.00  0.00    +0.000 A 
BRANCH  15  16
ATOM     16  C   UNL     1       2.658   4.637  19.213  0.00  0.00    +0.000 A 
ATOM     17  N   UNL     1       1.878   3.945  18.358  0.00  0.00    +0.000 NA
ATOM     18  C   UNL     1       2.372   2.775  17.906  0.00  0.00    +0.000 A 
ATOM     19  C   UNL     1       3.561   2.237  18.331  0.00  0.00    +0.000 A 
ATOM     20  C   UNL     1       4.232   2.971  19.280  0.00  0.00    +0.000 A 
ATOM     21  N   UNL     1       3.806   4.162  19.739  0.00  0.00    +0.000 NA
ENDBRANCH  15  16
ENDBRANCH   7  10
ENDBRANCH   1   8
BRANCH   5  22
ATOM     22  N   UNL     1       7.596   5.024  15.889  0.00  0.00    +0.000 N 
ATOM     23  H   UNL     1       8.441   4.491  16.076  0.00  0.00    +0.000 HD
BRANCH  22  24
ATOM     24  C   UNL     1       6.961   4.459  14.768  0.00  0.00    +0.000 A 
ATOM     25  N   UNL     1       5.889   3.651  14.929  0.00  0.00    +0.000 NA
ATOM     26  C   UNL     1       5.214   3.234  13.834  0.00  0.00    +0.000 A 
ATOM     27  C   UNL     1       5.564   3.569  12.535  0.00  0.00    +0.000 A 
ATOM     28  C   UNL     1       6.692   4.369  12.366  0.00  0.00    +0.000 A 
ATOM     29  C   UNL     1       7.394   4.808  13.487  0.00  0.00    +0.000 A 
ATOM     30  F   UNL     1       8.471   5.591  13.318  0.00  0.00    +0.000 F 
BRANCH  27  31
ATOM     31  C   UNL     1       4.739   3.110  11.375  0.00  0.00    +0.000 C 
ATOM     32  F   UNL     1       3.428   2.911  11.684  0.00  0.00    +0.000 F 
ATOM     33  F   UNL     1       4.744   4.004  10.350  0.00  0.00    +0.000 F 
ATOM     34  F   UNL     1       5.183   1.937  10.849  0.00  0.00    +0.000 F 
ENDBRANCH  27  31
ENDBRANCH  22  24
ENDBRANCH   5  22
TORSDOF 6
ENDMDL
MODEL 2
REMARK VINA RESULT:      -8.5      0.109      1.060
REMARK  Name = 
REMARK  6 active torsions:
REMARK  status: ('A' for Active; 'I' for Inactive)
REMARK    1  A    between atoms: C_2  and  C_21
REMARK    2  A    between atoms: N_3  and  C_4
REMARK    3  A    between atoms: C_8  and  N_9
REMARK    4  A    between atoms: N_9  and  C_10
REMARK    5  A    between atoms: C_13  and  C_14
REMARK    6  A    between atoms: C_26  and  C_27
REMARK                            x       y       z     vdW  Elec       q    Type
REMARK                         _______ _______ _______ _____ _____    ______ ____
ROOT
ATOM      1  C   UNL     1       5.758   6.365  17.000  0.00  0.00    +0.000 C 
ATOM      2  C   UNL     1       6.665   7.572  17.265  0.00  0.00    +0.000 C 
ATOM      3  C   UNL     1       7.689   7.097  18.287  0.00  0.00    +0.000 C 
ATOM      4  C   UNL     1       7.671   5.568  18.249  0.00  0.00    +0.000 C 
ATOM      5  C   UNL     1       6.740   5.164  17.088  0.00  0.00    +0.000 C 
ENDROOT
BRANCH   1   8
ATOM      6  O   UNL     1       3.156   7.786  16.763  0.00  0.00    +0.000 OA
ATOM      7  C   UNL     1       3.465   7.140  17.755  0.00  0.00    +0.000 C 
ATOM      8  N   UNL     1       4.586   6.345  17.887  0.00  0.00    +0.000 N 
ATOM      9  H   UNL     1       4.725   5.873  18.770  0.00  0.00    +0.000 HD
BRANCH   7  10
ATOM     10  C   UNL     1       2.537   7.157  18.907  0.00  0.00    +0.000 A 
ATOM     11  C   UNL     1       2.103   8.418  19.356  0.00  0.00    +0.000 A 
ATOM     12  C   UNL     1       1.385   8.528  20.543  0.00  0.00    +0.000 A 
ATOM     13  C   UNL     1       1.106   7.385  21.284  0.00  0.00    +0.000 A 
ATOM     14  C   UNL     1       1.527   6.130  20.830  0.00  0.00    +0.000 A 
ATOM     15  C   UNL     1       2.247   5.975  19.627  0.00  0.00    +0.000 A 
BRANCH  15  16
ATOM     16  C   UNL     1       2.689   4.631  19.206  0.00  0.00    +0.000 A 
ATOM     17  N   UNL     1       3.747   4.074  19.831  0.00  0.00    +0.000 NA
ATOM     18  C   UNL     1       4.025   2.793  19.516  0.00  0.00    +0.000 A 
ATOM     19  C   UNL     1       3.350   2.083  18.555  0.00  0.00    +0.000 A 
ATOM     20  C   UNL     1       2.357   2.774  17.903  0.00  0.00    +0.000 A 
ATOM     21  N   UNL     1       2.010   4.039  18.202  0.00  0.00    +0.000 NA
ENDBRANCH  15  16
ENDBRANCH   7  10
ENDBRANCH   1   8
BRANCH   5  22
ATOM     22  N   UNL     1       7.570   5.014  15.876  0.00  0.00    +0.000 N 
ATOM     23  H   UNL     1       8.416   4.483  16.063  0.00  0.00    +0.000 HD
BRANCH  22  24
ATOM     24  C   UNL     1       6.941   4.454  14.750  0.00  0.00    +0.000 A 
ATOM     25  N   UNL     1       5.859   3.657  14.902  0.00  0.00    +0.000 NA
ATOM     26  C   UNL     1       5.190   3.246  13.801  0.00  0.00    +0.000 A 
ATOM     27  C   UNL     1       5.556   3.575  12.506  0.00  0.00    +0.000 A 
ATOM     28  C   UNL     1       6.693   4.364  12.345  0.00  0.00    +0.000 A 
ATOM     29  C   UNL     1       7.389   4.798  13.472  0.00  0.00    +0.000 A 
ATOM     30  F   UNL     1       8.475   5.570  13.313  0.00  0.00    +0.000 F 
BRANCH  27  31
ATOM     31  C   UNL     1       4.737   3.124  11.339  0.00  0.00    +0.000 C 
ATOM     32  F   UNL     1       4.681   4.034  10.327  0.00  0.00    +0.000 F 
ATOM     33  F   UNL     1       5.217   1.981  10.779  0.00  0.00    +0.000 F 
ATOM     34  F   UNL     1       3.446   2.860  11.676  0.00  0.00    +0.000 F 
ENDBRANCH  27  31
ENDBRANCH  22  24
ENDBRANCH   5  22
TORSDOF 6
ENDMDL
MODEL 3
REMARK VINA RESULT:      -8.5      1.627      2.150
REMARK  Name = 
REMARK  6 active torsions:
REMARK  status: ('A' for Active; 'I' for Inactive)
REMARK    1  A    between atoms: C_2  and  C_21
REMARK    2  A    between atoms: N_3  and  C_4
REMARK    3  A    between atoms: C_8  and  N_9
REMARK    4  A    between atoms: N_9  and  C_10
REMARK    5  A    between atoms: C_13  and  C_14
REMARK    6  A    between atoms: C_26  and  C_27
REMARK                            x       y       z     vdW  Elec       q    Type
REMARK                         _______ _______ _______ _____ _____    ______ ____
ROOT
ATOM      1  C   UNL     1       5.957   6.403  17.507  0.00  0.00    +0.000 C 
ATOM      2  C   UNL     1       6.926   7.555  17.216  0.00  0.00    +0.000 C 
ATOM      3  C   UNL     1       7.941   7.531  18.351  0.00  0.00    +0.000 C 
ATOM      4  C   UNL     1       7.848   6.148  18.995  0.00  0.00    +0.000 C 
ATOM      5  C   UNL     1       6.881   5.318  18.126  0.00  0.00    +0.000 C 
ENDROOT
BRANCH   1   8
ATOM      6  O   UNL     1       3.170   5.368  17.548  0.00  0.00    +0.000 OA
ATOM      7  C   UNL     1       3.508   6.373  18.158  0.00  0.00    +0.000 C 
ATOM      8  N   UNL     1       4.800   6.838  18.300  0.00  0.00    +0.000 N 
ATOM      9  H   UNL     1       4.936   7.691  18.825  0.00  0.00    +0.000 HD
BRANCH   7  10
ATOM     10  C   UNL     1       2.456   7.141  18.860  0.00  0.00    +0.000 A 
ATOM     11  C   UNL     1       2.359   8.511  18.557  0.00  0.00    +0.000 A 
ATOM     12  C   UNL     1       1.527   9.336  19.307  0.00  0.00    +0.000 A 
ATOM     13  C   UNL     1       0.798   8.798  20.363  0.00  0.00    +0.000 A 
ATOM     14  C   UNL     1       0.886   7.432  20.656  0.00  0.00    +0.000 A 
ATOM     15  C   UNL     1       1.709   6.561  19.912  0.00  0.00    +0.000 A 
BRANCH  15  16
ATOM     16  C   UNL     1       1.784   5.133  20.279  0.00  0.00    +0.000 A 
ATOM     17  N   UNL     1       2.514   4.781  21.357  0.00  0.00    +0.000 NA
ATOM     18  C   UNL     1       2.438   3.490  21.739  0.00  0.00    +0.000 A 
ATOM     19  C   UNL     1       1.737   2.533  21.049  0.00  0.00    +0.000 A 
ATOM     20  C   UNL     1       1.111   2.973  19.907  0.00  0.00    +0.000 A 
ATOM     21  N   UNL     1       1.121   4.255  19.498  0.00  0.00    +0.000 NA
ENDBRANCH  15  16
ENDBRANCH   7  10
ENDBRANCH   1   8
BRANCH   5  22
ATOM     22  N   UNL     1       7.685   4.605  17.114  0.00  0.00    +0.000 N 
ATOM     23  H   UNL     1       8.001   3.701  17.453  0.00  0.00    +0.000 HD
BRANCH  22  24
ATOM     24  C   UNL     1       7.084   4.415  15.856  0.00  0.00    +0.000 A 
ATOM     25  N   UNL     1       7.672   4.903  14.741  0.00  0.00    +0.000 NA
ATOM     26  C   UNL     1       7.149   4.588  13.534  0.00  0.00    +0.000 A 
ATOM     27  C   UNL     1       6.021   3.803  13.361  0.00  0.00    +0.000 A 
ATOM     28  C   UNL     1       5.390   3.332  14.511  0.00  0.00    +0.000 A 
ATOM     29  C   UNL     1       5.922   3.647  15.760  0.00  0.00    +0.000 A 
ATOM     30  F   UNL     1       5.318   3.178  16.864  0.00  0.00    +0.000 F 
BRANCH  27  31
ATOM     31  C   UNL     1       5.529   3.457  11.993  0.00  0.00    +0.000 C 
ATOM     32  F   UNL     1       5.725   2.152  11.657  0.00  0.00    +0.000 F 
ATOM     33  F   UNL     1       4.194   3.677  11.850  0.00  0.00    +0.000 F 
ATOM     34  F   UNL     1       6.133   4.189  11.018  0.00  0.00    +0.000 F 
ENDBRANCH  27  31
ENDBRANCH  22  24
ENDBRANCH   5  22
TORSDOF 6
ENDMDL
MODEL 4
REMARK VINA RESULT:      -8.5      1.537      1.846
REMARK  Name = 
REMARK  6 active torsions:
REMARK  status: ('A' for Active; 'I' for Inactive)
REMARK    1  A    between atoms: C_2  and  C_21
REMARK    2  A    between atoms: N_3  and  C_4
REMARK    3  A    between atoms: C_8  and  N_9
REMARK    4  A    between atoms: N_9  and  C_10
REMARK    5  A    between atoms: C_13  and  C_14
REMARK    6  A    between atoms: C_26  and  C_27
REMARK                            x       y       z     vdW  Elec       q    Type
REMARK                         _______ _______ _______ _____ _____    ______ ____
ROOT
ATOM      1  C   UNL     1       5.974   6.412  17.485  0.00  0.00    +0.000 C 
ATOM      2  C   UNL     1       6.898   7.593  17.169  0.00  0.00    +0.000 C 
ATOM      3  C   UNL     1       7.939   7.607  18.281  0.00  0.00    +0.000 C 
ATOM      4  C   UNL     1       7.904   6.223  18.932  0.00  0.00    +0.000 C 
ATOM      5  C   UNL     1       6.946   5.359  18.087  0.00  0.00    +0.000 C 
ENDROOT
BRANCH   1   8
ATOM      6  O   UNL     1       3.108   5.652  17.253  0.00  0.00    +0.000 OA
ATOM      7  C   UNL     1       3.501   6.502  18.039  0.00  0.00    +0.000 C 
ATOM      8  N   UNL     1       4.821   6.813  18.303  0.00  0.00    +0.000 N 
ATOM      9  H   UNL     1       5.004   7.547  18.973  0.00  0.00    +0.000 HD
BRANCH   7  10
ATOM     10  C   UNL     1       2.487   7.235  18.828  0.00  0.00    +0.000 A 
ATOM     11  C   UNL     1       2.293   8.592  18.511  0.00  0.00    +0.000 A 
ATOM     12  C   UNL     1       1.499   9.393  19.326  0.00  0.00    +0.000 A 
ATOM     13  C   UNL     1       0.906   8.846  20.458  0.00  0.00    +0.000 A 
ATOM     14  C   UNL     1       1.090   7.493  20.766  0.00  0.00    +0.000 A 
ATOM     15  C   UNL     1       1.877   6.645  19.960  0.00  0.00    +0.000 A 
BRANCH  15  16
ATOM     16  C   UNL     1       2.060   5.231  20.344  0.00  0.00    +0.000 A 
ATOM     17  N   UNL     1       0.966   4.482  20.589  0.00  0.00    +0.000 NA
ATOM     18  C   UNL     1       1.173   3.165  20.794  0.00  0.00    +0.000 A 
ATOM     19  C   UNL     1       2.418   2.590  20.845  0.00  0.00    +0.000 A 
ATOM     20  C   UNL     1       3.472   3.457  20.685  0.00  0.00    +0.000 A 
ATOM     21  N   UNL     1       3.325   4.772  20.440  0.00  0.00    +0.000 NA
ENDBRANCH  15  16
ENDBRANCH   7  10
ENDBRANCH   1   8
BRANCH   5  22
ATOM     22  N   UNL     1       7.749   4.669  17.059  0.00  0.00    +0.000 N 
ATOM     23  H   UNL     1       8.099   3.775  17.392  0.00  0.00    +0.000 HD
BRANCH  22  24
ATOM     24  C   UNL     1       7.128   4.460  15.814  0.00  0.00    +0.000 A 
ATOM     25  N   UNL     1       7.698   4.931  14.682  0.00  0.00    +0.000 NA
ATOM     26  C   UNL     1       7.156   4.597  13.489  0.00  0.00    +0.000 A 
ATOM     27  C   UNL     1       6.026   3.809  13.346  0.00  0.00    +0.000 A 
ATOM     28  C   UNL     1       5.414   3.354  14.513  0.00  0.00    +0.000 A 
ATOM     29  C   UNL     1       5.966   3.688  15.749  0.00  0.00    +0.000 A 
ATOM     30  F   UNL     1       5.381   3.235  16.869  0.00  0.00    +0.000 F 
BRANCH  27  31
ATOM     31  C   UNL     1       5.513   3.440  11.991  0.00  0.00    +0.000 C 
ATOM     32  F   UNL     1       4.192   3.719  11.814  0.00  0.00    +0.000 F 
ATOM     33  F   UNL     1       6.164   4.097  10.994  0.00  0.00    +0.000 F 
ATOM     34  F   UNL     1       5.656   2.115  11.720  0.00  0.00    +0.000 F 
ENDBRANCH  27  31
ENDBRANCH  22  24
ENDBRANCH   5  22
TORSDOF 6
ENDMDL
MODEL 5
REMARK VINA RESULT:      -8.5      6.460      9.927
REMARK  Name = 
REMARK  6 active torsions:
REMARK  status: ('A' for Active; 'I' for Inactive)
REMARK    1  A    between atoms: C_2  and  C_21
REMARK    2  A    between atoms: N_3  and  C_4
REMARK    3  A    between atoms: C_8  and  N_9
REMARK    4  A    between atoms: N_9  and  C_10
REMARK    5  A    between atoms: C_13  and  C_14
REMARK    6  A    between atoms: C_26  and  C_27
REMARK                            x       y       z     vdW  Elec       q    Type
REMARK                         _______ _______ _______ _____ _____    ______ ____
ROOT
ATOM      1  C   UNL     1       2.127   8.414  19.203  0.00  0.00    +0.000 C 
ATOM      2  C   UNL     1       2.121   9.397  18.026  0.00  0.00    +0.000 C 
ATOM      3  C   UNL     1       0.656   9.742  17.789  0.00  0.00    +0.000 C 
ATOM      4  C   UNL     1      -0.097   9.358  19.063  0.00  0.00    +0.000 C 
ATOM      5  C   UNL     1       0.966   8.933  20.096  0.00  0.00    +0.000 C 
ENDROOT
BRANCH   1   8
ATOM      6  O   UNL     1       2.431   5.897  20.758  0.00  0.00    +0.000 OA
ATOM      7  C   UNL     1       2.342   5.910  19.538  0.00  0.00    +0.000 C 
ATOM      8  N   UNL     1       2.064   7.015  18.758  0.00  0.00    +0.000 N 
ATOM      9  H   UNL     1       2.029   6.885  17.756  0.00  0.00    +0.000 HD
BRANCH   7  10
ATOM     10  C   UNL     1       2.489   4.625  18.821  0.00  0.00    +0.000 A 
ATOM     11  C   UNL     1       1.384   3.754  18.841  0.00  0.00    +0.000 A 
ATOM     12  C   UNL     1       1.507   2.457  18.355  0.00  0.00    +0.000 A 
ATOM     13  C   UNL     1       2.731   2.023  17.858  0.00  0.00    +0.000 A 
ATOM     14  C   UNL     1       3.827   2.893  17.827  0.00  0.00    +0.000 A 
ATOM     15  C   UNL     1       3.740   4.220  18.299  0.00  0.00    +0.000 A 
BRANCH  15  16
ATOM     16  C   UNL     1       4.934   5.088  18.267  0.00  0.00    +0.000 A 
ATOM     17  N   UNL     1       5.922   4.860  19.155  0.00  0.00    +0.000 NA
ATOM     18  C   UNL     1       7.050   5.581  18.997  0.00  0.00    +0.000 A 
ATOM     19  C   UNL     1       7.198   6.564  18.051  0.00  0.00    +0.000 A 
ATOM     20  C   UNL     1       6.096   6.790  17.262  0.00  0.00    +0.000 A 
ATOM     21  N   UNL     1       4.958   6.077  17.349  0.00  0.00    +0.000 NA
ENDBRANCH  15  16
ENDBRANCH   7  10
ENDBRANCH   1   8
BRANCH   5  22
ATOM     22  N   UNL     1       1.336  10.128  20.879  0.00  0.00    +0.000 N 
ATOM     23  H   UNL     1       1.838  10.807  20.314  0.00  0.00    +0.000 HD
BRANCH  22  24
ATOM     24  C   UNL     1       0.289  10.794  21.540  0.00  0.00    +0.000 A 
ATOM     25  N   UNL     1      -0.217  11.940  21.030  0.00  0.00    +0.000 NA
ATOM     26  C   UNL     1      -1.313  12.484  21.606  0.00  0.00    +0.000 A 
ATOM     27  C   UNL     1      -1.951  11.950  22.714  0.00  0.00    +0.000 A 
ATOM     28  C   UNL     1      -1.407  10.791  23.265  0.00  0.00    +0.000 A 
ATOM     29  C   UNL     1      -0.281  10.218  22.678  0.00  0.00    +0.000 A 
ATOM     30  F   UNL     1       0.230   9.093  23.204  0.00  0.00    +0.000 F 
BRANCH  27  31
ATOM     31  C   UNL     1      -3.189  12.581  23.266  0.00  0.00    +0.000 C 
ATOM     32  F   UNL     1      -3.013  13.873  23.660  0.00  0.00    +0.000 F 
ATOM     33  F   UNL     1      -4.205  12.607  22.362  0.00  0.00    +0.000 F 
ATOM     34  F   UNL     1      -3.673  11.921  24.352  0.00  0.00    +0.000 F 
ENDBRANCH  27  31
ENDBRANCH  22  24
ENDBRANCH   5  22
TORSDOF 6
ENDMDL
MODEL 6
REMARK VINA RESULT:      -8.4      0.667      1.181
REMARK  Name = 
REMARK  6 active torsions:
REMARK  status: ('A' for Active; 'I' for Inactive)
REMARK    1  A    between atoms: C_2  and  C_21
REMARK    2  A    between atoms: N_3  and  C_4
REMARK    3  A    between atoms: C_8  and  N_9
REMARK    4  A    between atoms: N_9  and  C_10
REMARK    5  A    between atoms: C_13  and  C_14
REMARK    6  A    between atoms: C_26  and  C_27
REMARK                            x       y       z     vdW  Elec       q    Type
REMARK                         _______ _______ _______ _____ _____    ______ ____
ROOT
ATOM      1  C   UNL     1       5.682   6.851  16.884  0.00  0.00    +0.000 C 
ATOM      2  C   UNL     1       6.733   7.825  17.429  0.00  0.00    +0.000 C 
ATOM      3  C   UNL     1       7.706   6.970  18.230  0.00  0.00    +0.000 C 
ATOM      4  C   UNL     1       7.501   5.525  17.773  0.00  0.00    +0.000 C 
ATOM      5  C   UNL     1       6.511   5.570  16.590  0.00  0.00    +0.000 C 
ENDROOT
BRANCH   1   8
ATOM      6  O   UNL     1       3.020   8.173  16.793  0.00  0.00    +0.000 OA
ATOM      7  C   UNL     1       3.374   7.472  17.730  0.00  0.00    +0.000 C 
ATOM      8  N   UNL     1       4.529   6.718  17.786  0.00  0.00    +0.000 N 
ATOM      9  H   UNL     1       4.704   6.189  18.630  0.00  0.00    +0.000 HD
BRANCH   7  10
ATOM     10  C   UNL     1       2.468   7.366  18.895  0.00  0.00    +0.000 A 
ATOM     11  C   UNL     1       1.956   8.569  19.414  0.00  0.00    +0.000 A 
ATOM     12  C   UNL     1       1.253   8.569  20.615  0.00  0.00    +0.000 A 
ATOM     13  C   UNL     1       1.068   7.374  21.302  0.00  0.00    +0.000 A 
ATOM     14  C   UNL     1       1.567   6.176  20.778  0.00  0.00    +0.000 A 
ATOM     15  C   UNL     1       2.274   6.132  19.558  0.00  0.00    +0.000 A 
BRANCH  15  16
ATOM     16  C   UNL     1       2.802   4.845  19.063  0.00  0.00    +0.000 A 
ATOM     17  N   UNL     1       3.918   4.343  19.631  0.00  0.00    +0.000 NA
ATOM     18  C   UNL     1       4.280   3.102  19.249  0.00  0.00    +0.000 A 
ATOM     19  C   UNL     1       3.629   2.385  18.276  0.00  0.00    +0.000 A 
ATOM     20  C   UNL     1       2.566   3.027  17.687  0.00  0.00    +0.000 A 
ATOM     21  N   UNL     1       2.136   4.248  18.053  0.00  0.00    +0.000 NA
ENDBRANCH  15  16
ENDBRANCH   7  10
ENDBRANCH   1   8
BRANCH   5  22
ATOM     22  N   UNL     1       7.300   5.672  15.347  0.00  0.00    +0.000 N 
ATOM     23  H   UNL     1       8.299   5.661  15.532  0.00  0.00    +0.000 HD
BRANCH  22  24
ATOM     24  C   UNL     1       7.028   4.716  14.352  0.00  0.00    +0.000 A 
ATOM     25  N   UNL     1       6.148   3.718  14.590  0.00  0.00    +0.000 NA
ATOM     26  C   UNL     1       5.800   2.896  13.574  0.00  0.00    +0.000 A 
ATOM     27  C   UNL     1       6.308   2.996  12.289  0.00  0.00    +0.000 A 
ATOM     28  C   UNL     1       7.245   4.000  12.051  0.00  0.00    +0.000 A 
ATOM     29  C   UNL     1       7.609   4.856  13.089  0.00  0.00    +0.000 A 
ATOM     30  F   UNL     1       8.501   5.830  12.851  0.00  0.00    +0.000 F 
BRANCH  27  31
ATOM     31  C   UNL     1       5.838   2.081  11.204  0.00  0.00    +0.000 C 
ATOM     32  F   UNL     1       5.592   0.812  11.630  0.00  0.00    +0.000 F 
ATOM     33  F   UNL     1       4.680   2.508  10.631  0.00  0.00    +0.000 F 
ATOM     34  F   UNL     1       6.736   1.969  10.189  0.00  0.00    +0.000 F 
ENDBRANCH  27  31
ENDBRANCH  22  24
ENDBRANCH   5  22
TORSDOF 6
ENDMDL
MODEL 7
REMARK VINA RESULT:      -8.3      6.433      9.872
REMARK  Name = 
REMARK  6 active torsions:
REMARK  status: ('A' for Active; 'I' for Inactive)
REMARK    1  A    between atoms: C_2  and  C_21
REMARK    2  A    between atoms: N_3  and  C_4
REMARK    3  A    between atoms: C_8  and  N_9
REMARK    4  A    between atoms: N_9  and  C_10
REMARK    5  A    between atoms: C_13  and  C_14
REMARK    6  A    between atoms: C_26  and  C_27
REMARK                            x       y       z     vdW  Elec       q    Type
REMARK                         _______ _______ _______ _____ _____    ______ ____
ROOT
ATOM      1  C   UNL     1       2.145   8.356  19.130  0.00  0.00    +0.000 C 
ATOM      2  C   UNL     1       2.183   9.312  17.933  0.00  0.00    +0.000 C 
ATOM      3  C   UNL     1       0.733   9.696  17.670  0.00  0.00    +0.000 C 
ATOM      4  C   UNL     1      -0.047   9.363  18.942  0.00  0.00    +0.000 C 
ATOM      5  C   UNL     1       0.990   8.928  19.998  0.00  0.00    +0.000 C 
ENDROOT
BRANCH   1   8
ATOM      6  O   UNL     1       2.589   5.864  20.692  0.00  0.00    +0.000 OA
ATOM      7  C   UNL     1       2.393   5.858  19.485  0.00  0.00    +0.000 C 
ATOM      8  N   UNL     1       2.046   6.950  18.715  0.00  0.00    +0.000 N 
ATOM      9  H   UNL     1       1.923   6.804  17.722  0.00  0.00    +0.000 HD
BRANCH   7  10
ATOM     10  C   UNL     1       2.478   4.561  18.778  0.00  0.00    +0.000 A 
ATOM     11  C   UNL     1       1.365   3.706  18.880  0.00  0.00    +0.000 A 
ATOM     12  C   UNL     1       1.441   2.400  18.406  0.00  0.00    +0.000 A 
ATOM     13  C   UNL     1       2.625   1.944  17.838  0.00  0.00    +0.000 A 
ATOM     14  C   UNL     1       3.728   2.799  17.726  0.00  0.00    +0.000 A 
ATOM     15  C   UNL     1       3.688   4.132  18.184  0.00  0.00    +0.000 A 
BRANCH  15  16
ATOM     16  C   UNL     1       4.888   4.984  18.065  0.00  0.00    +0.000 A 
ATOM     17  N   UNL     1       4.885   5.981  17.157  0.00  0.00    +0.000 NA
ATOM     18  C   UNL     1       5.940   6.820  17.182  0.00  0.00    +0.000 A 
ATOM     19  C   UNL     1       7.021   6.657  18.011  0.00  0.00    +0.000 A 
ATOM     20  C   UNL     1       6.975   5.551  18.827  0.00  0.00    +0.000 A 
ATOM     21  N   UNL     1       5.932   4.702  18.872  0.00  0.00    +0.000 NA
ENDBRANCH  15  16
ENDBRANCH   7  10
ENDBRANCH   1   8
BRANCH   5  22
ATOM     22  N   UNL     1       1.388  10.129  20.760  0.00  0.00    +0.000 N 
ATOM     23  H   UNL     1       1.858  10.809  20.170  0.00  0.00    +0.000 HD
BRANCH  22  24
ATOM     24  C   UNL     1       0.367  10.790  21.465  0.00  0.00    +0.000 A 
ATOM     25  N   UNL     1      -0.123  11.966  21.010  0.00  0.00    +0.000 NA
ATOM     26  C   UNL     1      -1.197  12.510  21.626  0.00  0.00    +0.000 A 
ATOM     27  C   UNL     1      -1.827  11.945  22.724  0.00  0.00    +0.000 A 
ATOM     28  C   UNL     1      -1.300  10.754  23.218  0.00  0.00    +0.000 A 
ATOM     29  C   UNL     1      -0.196  10.182  22.589  0.00  0.00    +0.000 A 
ATOM     30  F   UNL     1       0.299   9.026  23.061  0.00  0.00    +0.000 F 
BRANCH  27  31
ATOM     31  C   UNL     1      -3.041  12.580  23.322  0.00  0.00    +0.000 C 
ATOM     32  F   UNL     1      -4.028  12.831  22.418  0.00  0.00    +0.000 F 
ATOM     33  F   UNL     1      -3.611  11.805  24.284  0.00  0.00    +0.000 F 
ATOM     34  F   UNL     1      -2.768  13.772  23.918  0.00  0.00    +0.000 F 
ENDBRANCH  27  31
ENDBRANCH  22  24
ENDBRANCH   5  22
TORSDOF 6
ENDMDL
MODEL 8
REMARK VINA RESULT:      -8.2      1.533      3.006
REMARK  Name = 
REMARK  6 active torsions:
REMARK  status: ('A' for Active; 'I' for Inactive)
REMARK    1  A    between atoms: C_2  and  C_21
REMARK    2  A    between atoms: N_3  and  C_4
REMARK    3  A    between atoms: C_8  and  N_9
REMARK    4  A    between atoms: N_9  and  C_10
REMARK    5  A    between atoms: C_13  and  C_14
REMARK    6  A    between atoms: C_26  and  C_27
REMARK                            x       y       z     vdW  Elec       q    Type
REMARK                         _______ _______ _______ _____ _____    ______ ____
ROOT
ATOM      1  C   UNL     1       5.925   5.575  17.634  0.00  0.00    +0.000 C 
ATOM      2  C   UNL     1       6.597   6.886  18.057  0.00  0.00    +0.000 C 
ATOM      3  C   UNL     1       7.936   6.483  18.661  0.00  0.00    +0.000 C 
ATOM      4  C   UNL     1       8.228   5.064  18.174  0.00  0.00    +0.000 C 
ATOM      5  C   UNL     1       7.123   4.706  17.159  0.00  0.00    +0.000 C 
ENDROOT
BRANCH   1   8
ATOM      6  O   UNL     1       4.105   3.224  17.591  0.00  0.00    +0.000 OA
ATOM      7  C   UNL     1       4.160   3.996  18.538  0.00  0.00    +0.000 C 
ATOM      8  N   UNL     1       5.069   5.024  18.693  0.00  0.00    +0.000 N 
ATOM      9  H   UNL     1       4.994   5.594  19.525  0.00  0.00    +0.000 HD
BRANCH   7  10
ATOM     10  C   UNL     1       3.211   3.789  19.653  0.00  0.00    +0.000 A 
ATOM     11  C   UNL     1       3.178   2.508  20.233  0.00  0.00    +0.000 A 
ATOM     12  C   UNL     1       2.188   2.181  21.154  0.00  0.00    +0.000 A 
ATOM     13  C   UNL     1       1.225   3.127  21.490  0.00  0.00    +0.000 A 
ATOM     14  C   UNL     1       1.265   4.406  20.922  0.00  0.00    +0.000 A 
ATOM     15  C   UNL     1       2.260   4.779  19.994  0.00  0.00    +0.000 A 
BRANCH  15  16
ATOM     16  C   UNL     1       2.241   6.133  19.405  0.00  0.00    +0.000 A 
ATOM     17  N   UNL     1       2.485   6.267  18.086  0.00  0.00    +0.000 NA
ATOM     18  C   UNL     1       2.315   7.499  17.565  0.00  0.00    +0.000 A 
ATOM     19  C   UNL     1       1.996   8.604  18.314  0.00  0.00    +0.000 A 
ATOM     20  C   UNL     1       1.870   8.381  19.665  0.00  0.00    +0.000 A 
ATOM     21  N   UNL     1       1.990   7.168  20.235  0.00  0.00    +0.000 NA
ENDBRANCH  15  16
ENDBRANCH   7  10
ENDBRANCH   1   8
BRANCH   5  22
ATOM     22  N   UNL     1       7.606   5.083  15.816  0.00  0.00    +0.000 N 
ATOM     23  H   UNL     1       8.599   4.896  15.707  0.00  0.00    +0.000 HD
BRANCH  22  24
ATOM     24  C   UNL     1       6.929   4.513  14.724  0.00  0.00    +0.000 A 
ATOM     25  N   UNL     1       5.829   3.754  14.926  0.00  0.00    +0.000 NA
ATOM     26  C   UNL     1       5.118   3.334  13.855  0.00  0.00    +0.000 A 
ATOM     27  C   UNL     1       5.457   3.617  12.542  0.00  0.00    +0.000 A 
ATOM     28  C   UNL     1       6.613   4.366  12.330  0.00  0.00    +0.000 A 
ATOM     29  C   UNL     1       7.352   4.808  13.425  0.00  0.00    +0.000 A 
ATOM     30  F   UNL     1       8.457   5.542  13.215  0.00  0.00    +0.000 F 
BRANCH  27  31
ATOM     31  C   UNL     1       4.593   3.160  11.410  0.00  0.00    +0.000 C 
ATOM     32  F   UNL     1       4.526   4.050  10.382  0.00  0.00    +0.000 F 
ATOM     33  F   UNL     1       5.031   1.995  10.861  0.00  0.00    +0.000 F 
ATOM     34  F   UNL     1       3.308   2.931  11.792  0.00  0.00    +0.000 F 
ENDBRANCH  27  31
ENDBRANCH  22  24
ENDBRANCH   5  22
TORSDOF 6
ENDMDL
MODEL 9
REMARK VINA RESULT:      -8.1      6.503      9.957
REMARK  Name = 
REMARK  6 active torsions:
REMARK  status: ('A' for Active; 'I' for Inactive)
REMARK    1  A    between atoms: C_2  and  C_21
REMARK    2  A    between atoms: N_3  and  C_4
REMARK    3  A    between atoms: C_8  and  N_9
REMARK    4  A    between atoms: N_9  and  C_10
REMARK    5  A    between atoms: C_13  and  C_14
REMARK    6  A    between atoms: C_26  and  C_27
REMARK                            x       y       z     vdW  Elec       q    Type
REMARK                         _______ _______ _______ _____ _____    ______ ____
ROOT
ATOM      1  C   UNL     1       2.138   8.373  19.299  0.00  0.00    +0.000 C 
ATOM      2  C   UNL     1       2.175   9.375  18.141  0.00  0.00    +0.000 C 
ATOM      3  C   UNL     1       0.721   9.744  17.873  0.00  0.00    +0.000 C 
ATOM      4  C   UNL     1      -0.069   9.349  19.121  0.00  0.00    +0.000 C 
ATOM      5  C   UNL     1       0.962   8.892  20.173  0.00  0.00    +0.000 C 
ENDROOT
BRANCH   1   8
ATOM      6  O   UNL     1       2.401   5.826  20.813  0.00  0.00    +0.000 OA
ATOM      7  C   UNL     1       2.328   5.862  19.592  0.00  0.00    +0.000 C 
ATOM      8  N   UNL     1       2.068   6.983  18.829  0.00  0.00    +0.000 N 
ATOM      9  H   UNL     1       2.045   6.871  17.825  0.00  0.00    +0.000 HD
BRANCH   7  10
ATOM     10  C   UNL     1       2.472   4.588  18.855  0.00  0.00    +0.000 A 
ATOM     11  C   UNL     1       1.369   3.714  18.871  0.00  0.00    +0.000 A 
ATOM     12  C   UNL     1       1.491   2.424  18.364  0.00  0.00    +0.000 A 
ATOM     13  C   UNL     1       2.712   2.002  17.849  0.00  0.00    +0.000 A 
ATOM     14  C   UNL     1       3.806   2.876  17.822  0.00  0.00    +0.000 A 
ATOM     15  C   UNL     1       3.719   4.194  18.315  0.00  0.00    +0.000 A 
BRANCH  15  16
ATOM     16  C   UNL     1       4.910   5.067  18.287  0.00  0.00    +0.000 A 
ATOM     17  N   UNL     1       5.889   4.853  19.189  0.00  0.00    +0.000 NA
ATOM     18  C   UNL     1       7.016   5.576  19.035  0.00  0.00    +0.000 A 
ATOM     19  C   UNL     1       7.172   6.548  18.079  0.00  0.00    +0.000 A 
ATOM     20  C   UNL     1       6.078   6.760  17.275  0.00  0.00    +0.000 A 
ATOM     21  N   UNL     1       4.941   6.044  17.357  0.00  0.00    +0.000 NA
ENDBRANCH  15  16
ENDBRANCH   7  10
ENDBRANCH   1   8
BRANCH   5  22
ATOM     22  N   UNL     1       1.328  10.068  20.986  0.00  0.00    +0.000 N 
ATOM     23  H   UNL     1       1.923  10.711  20.470  0.00  0.00    +0.000 HD
BRANCH  22  24
ATOM     24  C   UNL     1       0.265  10.803  21.540  0.00  0.00    +0.000 A 
ATOM     25  N   UNL     1      -0.472  10.280  22.546  0.00  0.00    +0.000 NA
ATOM     26  C   UNL     1      -1.395  11.058  23.154  0.00  0.00    +0.000 A 
ATOM     27  C   UNL     1      -1.655  12.372  22.797  0.00  0.00    +0.000 A 
ATOM     28  C   UNL     1      -0.925  12.900  21.735  0.00  0.00    +0.000 A 
ATOM     29  C   UNL     1       0.033  12.109  21.103  0.00  0.00    +0.000 A 
ATOM     30  F   UNL     1       0.745  12.628  20.090  0.00  0.00    +0.000 F 
BRANCH  27  31
ATOM     31  C   UNL     1      -2.658  13.187  23.549  0.00  0.00    +0.000 C 
ATOM     32  F   UNL     1      -2.098  14.091  24.399  0.00  0.00    +0.000 F 
ATOM     33  F   UNL     1      -3.465  13.907  22.724  0.00  0.00    +0.000 F 
ATOM     34  F   UNL     1      -3.489  12.424  24.309  0.00  0.00    +0.000 F 
ENDBRANCH  27  31
ENDBRANCH  22  24
ENDBRANCH   5  22
TORSDOF 6
ENDMDL
