MODEL 1
REMARK VINA RESULT:      -8.8      0.000      0.000
REMARK  Name = 
REMARK  10 active torsions:
REMARK  status: ('A' for Active; 'I' for Inactive)
REMARK    1  A    between atoms: C_1  and  O_2
REMARK    2  A    between atoms: O_2  and  C_3
REMARK    3  A    between atoms: C_3  and  C_4
REMARK    4  A    between atoms: C_9  and  O_10
REMARK    5  A    between atoms: O_10  and  C_11
REMARK    6  A    between atoms: C_11  and  C_12
REMARK    7  A    between atoms: C_14  and  C_15
REMARK    8  A    between atoms: N_21  and  C_22
REMARK    9  A    between atoms: C_25  and  C_26
REMARK   10  A    between atoms: C_27  and  C_28
REMARK                            x       y       z     vdW  Elec       q    Type
REMARK                         _______ _______ _______ _____ _____    ______ ____
ROOT
ATOM      1  C   UNL     1       1.466   9.789  18.571  0.00  0.00    +0.000 A 
ATOM      2  C   UNL     1       0.495   9.706  19.588  0.00  0.00    +0.000 A 
ATOM      3  C   UNL     1       0.224  11.010  19.968  0.00  0.00    +0.000 A 
ATOM      4  N   UNL     1       1.114  11.789  19.225  0.00  0.00    +0.000 N 
ATOM      5  N   UNL     1       1.722  11.063  18.250  0.00  0.00    +0.000 NA
ENDROOT
BRANCH   4   6
ATOM      6  C   UNL     1       1.505  13.145  19.406  0.00  0.00    +0.000 A 
ATOM      7  C   UNL     1       0.805  14.157  18.754  0.00  0.00    +0.000 A 
ATOM      8  C   UNL     1       1.203  15.484  18.916  0.00  0.00    +0.000 A 
ATOM      9  C   UNL     1       2.329  15.813  19.692  0.00  0.00    +0.000 A 
ATOM     10  C   UNL     1       2.752  17.252  19.784  0.00  0.00    +0.000 C 
ATOM     11  C   UNL     1       3.047  14.786  20.334  0.00  0.00    +0.000 A 
ATOM     12  C   UNL     1       4.283  15.022  21.158  0.00  0.00    +0.000 C 
ATOM     13  C   UNL     1       2.618  13.457  20.193  0.00  0.00    +0.000 A 
ENDBRANCH   4   6
BRANCH   3  14
ATOM     14  C   UNL     1      -0.803  11.493  20.899  0.00  0.00    +0.000 A 
ATOM     15  C   UNL     1      -1.884  12.251  20.427  0.00  0.00    +0.000 A 
ATOM     16  C   UNL     1      -2.853  12.739  21.309  0.00  0.00    +0.000 A 
ATOM     17  C   UNL     1      -2.759  12.464  22.671  0.00  0.00    +0.000 A 
ATOM     18  C   UNL     1      -1.694  11.715  23.156  0.00  0.00    +0.000 A 
ATOM     19  C   UNL     1      -0.710  11.254  22.279  0.00  0.00    +0.000 A 
ENDBRANCH   3  14
BRANCH   1  20
ATOM     20  C   UNL     1       2.133   8.680  17.836  0.00  0.00    +0.000 C 
BRANCH  20  21
ATOM     21  O   UNL     1       2.031   7.430  18.538  0.00  0.00    +0.000 OA
BRANCH  21  27
ATOM     22  C   UNL     1       4.819   5.488  16.987  0.00  0.00    +0.000 A 
ATOM     23  C   UNL     1       4.186   4.232  16.983  0.00  0.00    +0.000 A 
ATOM     24  C   UNL     1       2.901   4.078  17.504  0.00  0.00    +0.000 A 
ATOM     25  F   UNL     1       2.332   2.865  17.490  0.00  0.00    +0.000 F 
ATOM     26  C   UNL     1       2.198   5.156  18.018  0.00  0.00    +0.000 A 
ATOM     27  C   UNL     1       2.801   6.407  18.052  0.00  0.00    +0.000 A 
ATOM     28  C   UNL     1       4.117   6.548  17.590  0.00  0.00    +0.000 A 
BRANCH  22  29
ATOM     29  C   UNL     1       6.210   5.711  16.356  0.00  0.00    +0.000 C 
ATOM     30  C   UNL     1       6.924   6.982  16.884  0.00  0.00    +0.000 C 
ATOM     31  C   UNL     1       7.333   6.815  18.345  0.00  0.00    +0.000 C 
ATOM     32  O   UNL     1       8.207   5.701  18.507  0.00  0.00    +0.000 OA
ATOM     33  C   UNL     1       7.607   4.475  18.099  0.00  0.00    +0.000 C 
ATOM     34  C   UNL     1       7.206   4.549  16.633  0.00  0.00    +0.000 C 
BRANCH  29  36
ATOM     35  C   UNL     1       6.719   4.667  14.199  0.00  0.00    +0.000 C 
ATOM     36  O   UNL     1       6.105   5.723  14.918  0.00  0.00    +0.000 OA
ENDBRANCH  29  36
ENDBRANCH  22  29
ENDBRANCH  21  27
ENDBRANCH  20  21
ENDBRANCH   1  20
TORSDOF 7
ENDMDL
MODEL 2
REMARK VINA RESULT:      -8.8      2.048      4.039
REMARK  Name = 
REMARK  10 active torsions:
REMARK  status: ('A' for Active; 'I' for Inactive)
REMARK    1  A    between atoms: C_1  and  O_2
REMARK    2  A    between atoms: O_2  and  C_3
REMARK    3  A    between atoms: C_3  and  C_4
REMARK    4  A    between atoms: C_9  and  O_10
REMARK    5  A    between atoms: O_10  and  C_11
REMARK    6  A    between atoms: C_11  and  C_12
REMARK    7  A    between atoms: C_14  and  C_15
REMARK    8  A    between atoms: N_21  and  C_22
REMARK    9  A    between atoms: C_25  and  C_26
REMARK   10  A    between atoms: C_27  and  C_28
REMARK                            x       y       z     vdW  Elec       q    Type
REMARK                         _______ _______ _______ _____ _____    ______ ____
ROOT
ATOM      1  C   UNL     1       1.786   9.454  18.042  0.00  0.00    +0.000 A 
ATOM      2  C   UNL     1       2.210  10.710  18.517  0.00  0.00    +0.000 A 
ATOM      3  C   UNL     1       1.056  11.431  18.779  0.00  0.00    +0.000 A 
ATOM      4  N   UNL     1       0.015  10.601  18.359  0.00  0.00    +0.000 N 
ATOM      5  N   UNL     1       0.454   9.341  18.095  0.00  0.00    +0.000 NA
ENDROOT
BRANCH   4   6
ATOM      6  C   UNL     1      -1.349  10.913  18.101  0.00  0.00    +0.000 A 
ATOM      7  C   UNL     1      -2.111  11.533  19.089  0.00  0.00    +0.000 A 
ATOM      8  C   UNL     1      -3.454  11.820  18.842  0.00  0.00    +0.000 A 
ATOM      9  C   UNL     1      -4.062  11.451  17.630  0.00  0.00    +0.000 A 
ATOM     10  C   UNL     1      -5.528  11.727  17.440  0.00  0.00    +0.000 C 
ATOM     11  C   UNL     1      -3.295  10.805  16.642  0.00  0.00    +0.000 A 
ATOM     12  C   UNL     1      -3.853  10.338  15.326  0.00  0.00    +0.000 C 
ATOM     13  C   UNL     1      -1.936  10.553  16.885  0.00  0.00    +0.000 A 
ENDBRANCH   4   6
BRANCH   3  14
ATOM     14  C   UNL     1       0.931  12.750  19.410  0.00  0.00    +0.000 A 
ATOM     15  C   UNL     1       0.922  13.911  18.623  0.00  0.00    +0.000 A 
ATOM     16  C   UNL     1       0.831  15.174  19.215  0.00  0.00    +0.000 A 
ATOM     17  C   UNL     1       0.735  15.291  20.599  0.00  0.00    +0.000 A 
ATOM     18  C   UNL     1       0.742  14.152  21.394  0.00  0.00    +0.000 A 
ATOM     19  C   UNL     1       0.865  12.892  20.805  0.00  0.00    +0.000 A 
ENDBRANCH   3  14
BRANCH   1  20
ATOM     20  C   UNL     1       2.620   8.309  17.584  0.00  0.00    +0.000 C 
BRANCH  20  21
ATOM     21  O   UNL     1       2.152   7.057  18.112  0.00  0.00    +0.000 OA
BRANCH  21  27
ATOM     22  C   UNL     1       5.066   4.903  17.205  0.00  0.00    +0.000 A 
ATOM     23  C   UNL     1       4.418   3.661  17.324  0.00  0.00    +0.000 A 
ATOM     24  C   UNL     1       3.081   3.587  17.712  0.00  0.00    +0.000 A 
ATOM     25  F   UNL     1       2.498   2.385  17.822  0.00  0.00    +0.000 F 
ATOM     26  C   UNL     1       2.340   4.730  17.971  0.00  0.00    +0.000 A 
ATOM     27  C   UNL     1       2.956   5.972  17.880  0.00  0.00    +0.000 A 
ATOM     28  C   UNL     1       4.317   6.043  17.554  0.00  0.00    +0.000 A 
BRANCH  22  29
ATOM     29  C   UNL     1       6.522   5.029  16.710  0.00  0.00    +0.000 C 
ATOM     30  C   UNL     1       6.913   6.478  16.323  0.00  0.00    +0.000 C 
ATOM     31  C   UNL     1       6.988   7.376  17.555  0.00  0.00    +0.000 C 
ATOM     32  O   UNL     1       7.943   6.881  18.490  0.00  0.00    +0.000 OA
ATOM     33  C   UNL     1       7.627   5.568  18.947  0.00  0.00    +0.000 C 
ATOM     34  C   UNL     1       7.574   4.601  17.773  0.00  0.00    +0.000 C 
BRANCH  29  36
ATOM     35  C   UNL     1       6.411   4.529  14.313  0.00  0.00    +0.000 C 
ATOM     36  O   UNL     1       6.756   4.110  15.623  0.00  0.00    +0.000 OA
ENDBRANCH  29  36
ENDBRANCH  22  29
ENDBRANCH  21  27
ENDBRANCH  20  21
ENDBRANCH   1  20
TORSDOF 7
ENDMDL
MODEL 3
REMARK VINA RESULT:      -8.7      1.973      3.108
REMARK  Name = 
REMARK  10 active torsions:
REMARK  status: ('A' for Active; 'I' for Inactive)
REMARK    1  A    between atoms: C_1  and  O_2
REMARK    2  A    between atoms: O_2  and  C_3
REMARK    3  A    between atoms: C_3  and  C_4
REMARK    4  A    between atoms: C_9  and  O_10
REMARK    5  A    between atoms: O_10  and  C_11
REMARK    6  A    between atoms: C_11  and  C_12
REMARK    7  A    between atoms: C_14  and  C_15
REMARK    8  A    between atoms: N_21  and  C_22
REMARK    9  A    between atoms: C_25  and  C_26
REMARK   10  A    between atoms: C_27  and  C_28
REMARK                            x       y       z     vdW  Elec       q    Type
REMARK                         _______ _______ _______ _____ _____    ______ ____
ROOT
ATOM      1  C   UNL     1       1.179   9.548  18.269  0.00  0.00    +0.000 A 
ATOM      2  C   UNL     1      -0.059   9.351  17.627  0.00  0.00    +0.000 A 
ATOM      3  C   UNL     1      -0.867  10.406  18.017  0.00  0.00    +0.000 A 
ATOM      4  N   UNL     1      -0.099  11.119  18.939  0.00  0.00    +0.000 N 
ATOM      5  N   UNL     1       1.196  10.706  18.940  0.00  0.00    +0.000 NA
ENDROOT
BRANCH   4   6
ATOM      6  C   UNL     1      -0.499  12.105  19.885  0.00  0.00    +0.000 A 
ATOM      7  C   UNL     1      -0.222  13.447  19.638  0.00  0.00    +0.000 A 
ATOM      8  C   UNL     1      -0.596  14.410  20.577  0.00  0.00    +0.000 A 
ATOM      9  C   UNL     1      -1.206  14.042  21.788  0.00  0.00    +0.000 A 
ATOM     10  C   UNL     1      -1.532  15.113  22.791  0.00  0.00    +0.000 C 
ATOM     11  C   UNL     1      -1.465  12.682  22.044  0.00  0.00    +0.000 A 
ATOM     12  C   UNL     1      -2.081  12.177  23.319  0.00  0.00    +0.000 C 
ATOM     13  C   UNL     1      -1.118  11.724  21.079  0.00  0.00    +0.000 A 
ENDBRANCH   4   6
BRANCH   3  14
ATOM     14  C   UNL     1      -2.211  10.748  17.537  0.00  0.00    +0.000 A 
ATOM     15  C   UNL     1      -2.564  10.516  16.199  0.00  0.00    +0.000 A 
ATOM     16  C   UNL     1      -3.832  10.865  15.725  0.00  0.00    +0.000 A 
ATOM     17  C   UNL     1      -4.767  11.437  16.585  0.00  0.00    +0.000 A 
ATOM     18  C   UNL     1      -4.434  11.674  17.913  0.00  0.00    +0.000 A 
ATOM     19  C   UNL     1      -3.157  11.355  18.379  0.00  0.00    +0.000 A 
ENDBRANCH   3  14
BRANCH   1  20
ATOM     20  C   UNL     1       2.393   8.690  18.221  0.00  0.00    +0.000 C 
BRANCH  20  21
ATOM     21  O   UNL     1       2.138   7.367  18.721  0.00  0.00    +0.000 OA
BRANCH  21  27
ATOM     22  C   UNL     1       4.850   5.463  16.997  0.00  0.00    +0.000 A 
ATOM     23  C   UNL     1       4.179   4.232  16.905  0.00  0.00    +0.000 A 
ATOM     24  C   UNL     1       2.894   4.077  17.427  0.00  0.00    +0.000 A 
ATOM     25  F   UNL     1       2.287   2.887  17.328  0.00  0.00    +0.000 F 
ATOM     26  C   UNL     1       2.229   5.134  18.029  0.00  0.00    +0.000 A 
ATOM     27  C   UNL     1       2.872   6.360  18.151  0.00  0.00    +0.000 A 
ATOM     28  C   UNL     1       4.187   6.496  17.686  0.00  0.00    +0.000 A 
BRANCH  22  29
ATOM     29  C   UNL     1       6.242   5.691  16.369  0.00  0.00    +0.000 C 
ATOM     30  C   UNL     1       6.946   6.970  16.891  0.00  0.00    +0.000 C 
ATOM     31  C   UNL     1       7.351   6.817  18.355  0.00  0.00    +0.000 C 
ATOM     32  O   UNL     1       8.232   5.709  18.527  0.00  0.00    +0.000 OA
ATOM     33  C   UNL     1       7.640   4.476  18.126  0.00  0.00    +0.000 C 
ATOM     34  C   UNL     1       7.244   4.537  16.658  0.00  0.00    +0.000 C 
BRANCH  29  36
ATOM     35  C   UNL     1       6.541   4.522  14.236  0.00  0.00    +0.000 C 
ATOM     36  O   UNL     1       6.142   5.692  14.930  0.00  0.00    +0.000 OA
ENDBRANCH  29  36
ENDBRANCH  22  29
ENDBRANCH  21  27
ENDBRANCH  20  21
ENDBRANCH   1  20
TORSDOF 7
ENDMDL
MODEL 4
REMARK VINA RESULT:      -8.7      0.926      1.616
REMARK  Name = 
REMARK  10 active torsions:
REMARK  status: ('A' for Active; 'I' for Inactive)
REMARK    1  A    between atoms: C_1  and  O_2
REMARK    2  A    between atoms: O_2  and  C_3
REMARK    3  A    between atoms: C_3  and  C_4
REMARK    4  A    between atoms: C_9  and  O_10
REMARK    5  A    between atoms: O_10  and  C_11
REMARK    6  A    between atoms: C_11  and  C_12
REMARK    7  A    between atoms: C_14  and  C_15
REMARK    8  A    between atoms: N_21  and  C_22
REMARK    9  A    between atoms: C_25  and  C_26
REMARK   10  A    between atoms: C_27  and  C_28
REMARK                            x       y       z     vdW  Elec       q    Type
REMARK                         _______ _______ _______ _____ _____    ______ ____
ROOT
ATOM      1  C   UNL     1       1.850   9.450  18.369  0.00  0.00    +0.000 A 
ATOM      2  C   UNL     1       0.974   9.438  19.472  0.00  0.00    +0.000 A 
ATOM      3  C   UNL     1       0.595  10.754  19.677  0.00  0.00    +0.000 A 
ATOM      4  N   UNL     1       1.336  11.486  18.748  0.00  0.00    +0.000 N 
ATOM      5  N   UNL     1       1.943  10.676  17.840  0.00  0.00    +0.000 NA
ENDROOT
BRANCH   4   6
ATOM      6  C   UNL     1       1.593  12.885  18.690  0.00  0.00    +0.000 A 
ATOM      7  C   UNL     1       2.908  13.340  18.614  0.00  0.00    +0.000 A 
ATOM      8  C   UNL     1       3.159  14.712  18.578  0.00  0.00    +0.000 A 
ATOM      9  C   UNL     1       2.109  15.643  18.663  0.00  0.00    +0.000 A 
ATOM     10  C   UNL     1       2.440  17.109  18.682  0.00  0.00    +0.000 C 
ATOM     11  C   UNL     1       0.783  15.180  18.760  0.00  0.00    +0.000 A 
ATOM     12  C   UNL     1      -0.409  16.087  18.890  0.00  0.00    +0.000 C 
ATOM     13  C   UNL     1       0.538  13.798  18.760  0.00  0.00    +0.000 A 
ENDBRANCH   4   6
BRANCH   3  14
ATOM     14  C   UNL     1      -0.404  11.278  20.617  0.00  0.00    +0.000 A 
ATOM     15  C   UNL     1      -0.211  11.143  22.000  0.00  0.00    +0.000 A 
ATOM     16  C   UNL     1      -1.169  11.613  22.903  0.00  0.00    +0.000 A 
ATOM     17  C   UNL     1      -2.324  12.235  22.435  0.00  0.00    +0.000 A 
ATOM     18  C   UNL     1      -2.531  12.377  21.069  0.00  0.00    +0.000 A 
ATOM     19  C   UNL     1      -1.590  11.879  20.166  0.00  0.00    +0.000 A 
ENDBRANCH   3  14
BRANCH   1  20
ATOM     20  C   UNL     1       2.573   8.308  17.749  0.00  0.00    +0.000 C 
BRANCH  20  21
ATOM     21  O   UNL     1       2.251   7.058  18.382  0.00  0.00    +0.000 OA
BRANCH  21  27
ATOM     22  C   UNL     1       5.069   4.929  17.168  0.00  0.00    +0.000 A 
ATOM     23  C   UNL     1       4.374   3.708  17.135  0.00  0.00    +0.000 A 
ATOM     24  C   UNL     1       3.038   3.635  17.528  0.00  0.00    +0.000 A 
ATOM     25  F   UNL     1       2.408   2.453  17.490  0.00  0.00    +0.000 F 
ATOM     26  C   UNL     1       2.346   4.763  17.941  0.00  0.00    +0.000 A 
ATOM     27  C   UNL     1       3.010   5.982  18.002  0.00  0.00    +0.000 A 
ATOM     28  C   UNL     1       4.370   6.042  17.671  0.00  0.00    +0.000 A 
BRANCH  22  29
ATOM     29  C   UNL     1       6.526   5.061  16.674  0.00  0.00    +0.000 C 
ATOM     30  C   UNL     1       6.925   6.519  16.332  0.00  0.00    +0.000 C 
ATOM     31  C   UNL     1       7.007   7.378  17.592  0.00  0.00    +0.000 C 
ATOM     32  O   UNL     1       7.961   6.848  18.509  0.00  0.00    +0.000 OA
ATOM     33  C   UNL     1       7.637   5.524  18.925  0.00  0.00    +0.000 C 
ATOM     34  C   UNL     1       7.577   4.594  17.722  0.00  0.00    +0.000 C 
BRANCH  29  36
ATOM     35  C   UNL     1       6.932   4.754  14.277  0.00  0.00    +0.000 C 
ATOM     36  O   UNL     1       6.753   4.175  15.559  0.00  0.00    +0.000 OA
ENDBRANCH  29  36
ENDBRANCH  22  29
ENDBRANCH  21  27
ENDBRANCH  20  21
ENDBRANCH   1  20
TORSDOF 7
ENDMDL
MODEL 5
REMARK VINA RESULT:      -8.7      0.504      1.272
REMARK  Name = 
REMARK  10 active torsions:
REMARK  status: ('A' for Active; 'I' for Inactive)
REMARK    1  A    between atoms: C_1  and  O_2
REMARK    2  A    between atoms: O_2  and  C_3
REMARK    3  A    between atoms: C_3  and  C_4
REMARK    4  A    between atoms: C_9  and  O_10
REMARK    5  A    between atoms: O_10  and  C_11
REMARK    6  A    between atoms: C_11  and  C_12
REMARK    7  A    between atoms: C_14  and  C_15
REMARK    8  A    between atoms: N_21  and  C_22
REMARK    9  A    between atoms: C_25  and  C_26
REMARK   10  A    between atoms: C_27  and  C_28
REMARK                            x       y       z     vdW  Elec       q    Type
REMARK                         _______ _______ _______ _____ _____    ______ ____
ROOT
ATOM      1  C   UNL     1       1.402   9.775  18.755  0.00  0.00    +0.000 A 
ATOM      2  C   UNL     1       0.414   9.714  19.756  0.00  0.00    +0.000 A 
ATOM      3  C   UNL     1       0.111  11.026  20.078  0.00  0.00    +0.000 A 
ATOM      4  N   UNL     1       0.999  11.792  19.320  0.00  0.00    +0.000 N 
ATOM      5  N   UNL     1       1.640  11.039  18.387  0.00  0.00    +0.000 NA
ENDROOT
BRANCH   4   6
ATOM      6  C   UNL     1       1.361  13.162  19.454  0.00  0.00    +0.000 A 
ATOM      7  C   UNL     1       2.490  13.506  20.194  0.00  0.00    +0.000 A 
ATOM      8  C   UNL     1       2.832  14.851  20.341  0.00  0.00    +0.000 A 
ATOM      9  C   UNL     1       2.030  15.866  19.793  0.00  0.00    +0.000 A 
ATOM     10  C   UNL     1       2.409  17.300  20.034  0.00  0.00    +0.000 C 
ATOM     11  C   UNL     1       0.877  15.516  19.063  0.00  0.00    +0.000 A 
ATOM     12  C   UNL     1      -0.067  16.521  18.464  0.00  0.00    +0.000 C 
ATOM     13  C   UNL     1       0.561  14.160  18.890  0.00  0.00    +0.000 A 
ENDBRANCH   4   6
BRANCH   3  14
ATOM     14  C   UNL     1      -0.942  11.525  20.970  0.00  0.00    +0.000 A 
ATOM     15  C   UNL     1      -2.056  12.196  20.443  0.00  0.00    +0.000 A 
ATOM     16  C   UNL     1      -3.050  12.700  21.285  0.00  0.00    +0.000 A 
ATOM     17  C   UNL     1      -2.951  12.528  22.664  0.00  0.00    +0.000 A 
ATOM     18  C   UNL     1      -1.856  11.866  23.204  0.00  0.00    +0.000 A 
ATOM     19  C   UNL     1      -0.846  11.390  22.364  0.00  0.00    +0.000 A 
ENDBRANCH   3  14
BRANCH   1  20
ATOM     20  C   UNL     1       2.103   8.651  18.077  0.00  0.00    +0.000 C 
BRANCH  20  21
ATOM     21  O   UNL     1       2.123   7.462  18.885  0.00  0.00    +0.000 OA
BRANCH  21  27
ATOM     22  C   UNL     1       4.465   5.263  16.981  0.00  0.00    +0.000 A 
ATOM     23  C   UNL     1       3.755   4.060  17.139  0.00  0.00    +0.000 A 
ATOM     24  C   UNL     1       2.569   4.022  17.873  0.00  0.00    +0.000 A 
ATOM     25  F   UNL     1       1.922   2.856  18.008  0.00  0.00    +0.000 F 
ATOM     26  C   UNL     1       2.040   5.166  18.448  0.00  0.00    +0.000 A 
ATOM     27  C   UNL     1       2.727   6.368  18.325  0.00  0.00    +0.000 A 
ATOM     28  C   UNL     1       3.952   6.393  17.645  0.00  0.00    +0.000 A 
BRANCH  22  29
ATOM     29  C   UNL     1       5.742   5.358  16.119  0.00  0.00    +0.000 C 
ATOM     30  C   UNL     1       6.435   6.742  16.203  0.00  0.00    +0.000 C 
ATOM     31  C   UNL     1       7.046   6.968  17.584  0.00  0.00    +0.000 C 
ATOM     32  O   UNL     1       8.005   5.959  17.889  0.00  0.00    +0.000 OA
ATOM     33  C   UNL     1       7.437   4.652  17.892  0.00  0.00    +0.000 C 
ATOM     34  C   UNL     1       6.840   4.335  16.528  0.00  0.00    +0.000 C 
BRANCH  29  36
ATOM     35  C   UNL     1       6.458   4.349  14.004  0.00  0.00    +0.000 C 
ATOM     36  O   UNL     1       5.446   4.998  14.754  0.00  0.00    +0.000 OA
ENDBRANCH  29  36
ENDBRANCH  22  29
ENDBRANCH  21  27
ENDBRANCH  20  21
ENDBRANCH   1  20
TORSDOF 7
ENDMDL
MODEL 6
REMARK VINA RESULT:      -8.7      2.279      3.928
REMARK  Name = 
REMARK  10 active torsions:
REMARK  status: ('A' for Active; 'I' for Inactive)
REMARK    1  A    between atoms: C_1  and  O_2
REMARK    2  A    between atoms: O_2  and  C_3
REMARK    3  A    between atoms: C_3  and  C_4
REMARK    4  A    between atoms: C_9  and  O_10
REMARK    5  A    between atoms: O_10  and  C_11
REMARK    6  A    between atoms: C_11  and  C_12
REMARK    7  A    between atoms: C_14  and  C_15
REMARK    8  A    between atoms: N_21  and  C_22
REMARK    9  A    between atoms: C_25  and  C_26
REMARK   10  A    between atoms: C_27  and  C_28
REMARK                            x       y       z     vdW  Elec       q    Type
REMARK                         _______ _______ _______ _____ _____    ______ ____
ROOT
ATOM      1  C   UNL     1       1.001  10.184  18.597  0.00  0.00    +0.000 A 
ATOM      2  C   UNL     1       1.078  11.004  19.740  0.00  0.00    +0.000 A 
ATOM      3  C   UNL     1      -0.218  11.414  20.006  0.00  0.00    +0.000 A 
ATOM      4  N   UNL     1      -0.979  10.893  18.958  0.00  0.00    +0.000 N 
ATOM      5  N   UNL     1      -0.270   9.997  18.221  0.00  0.00    +0.000 NA
ENDROOT
BRANCH   4   6
ATOM      6  C   UNL     1      -2.295  11.230  18.535  0.00  0.00    +0.000 A 
ATOM      7  C   UNL     1      -2.688  10.959  17.226  0.00  0.00    +0.000 A 
ATOM      8  C   UNL     1      -3.972  11.309  16.807  0.00  0.00    +0.000 A 
ATOM      9  C   UNL     1      -4.860  11.972  17.672  0.00  0.00    +0.000 A 
ATOM     10  C   UNL     1      -6.210  12.382  17.151  0.00  0.00    +0.000 C 
ATOM     11  C   UNL     1      -4.453  12.263  18.988  0.00  0.00    +0.000 A 
ATOM     12  C   UNL     1      -5.310  12.997  19.982  0.00  0.00    +0.000 C 
ATOM     13  C   UNL     1      -3.172  11.876  19.411  0.00  0.00    +0.000 A 
ENDBRANCH   4   6
BRANCH   3  14
ATOM     14  C   UNL     1      -0.712  12.178  21.158  0.00  0.00    +0.000 A 
ATOM     15  C   UNL     1      -0.583  13.574  21.188  0.00  0.00    +0.000 A 
ATOM     16  C   UNL     1      -1.025  14.308  22.293  0.00  0.00    +0.000 A 
ATOM     17  C   UNL     1      -1.613  13.657  23.374  0.00  0.00    +0.000 A 
ATOM     18  C   UNL     1      -1.749  12.275  23.362  0.00  0.00    +0.000 A 
ATOM     19  C   UNL     1      -1.279  11.539  22.273  0.00  0.00    +0.000 A 
ENDBRANCH   3  14
BRANCH   1  20
ATOM     20  C   UNL     1       2.107   9.508  17.868  0.00  0.00    +0.000 C 
BRANCH  20  21
ATOM     21  O   UNL     1       1.810   8.129  17.595  0.00  0.00    +0.000 OA
BRANCH  21  27
ATOM     22  C   UNL     1       4.730   5.850  18.070  0.00  0.00    +0.000 A 
ATOM     23  C   UNL     1       4.289   5.232  19.253  0.00  0.00    +0.000 A 
ATOM     24  C   UNL     1       3.081   5.602  19.845  0.00  0.00    +0.000 A 
ATOM     25  F   UNL     1       2.695   4.996  20.976  0.00  0.00    +0.000 F 
ATOM     26  C   UNL     1       2.267   6.570  19.277  0.00  0.00    +0.000 A 
ATOM     27  C   UNL     1       2.683   7.213  18.118  0.00  0.00    +0.000 A 
ATOM     28  C   UNL     1       3.927   6.888  17.560  0.00  0.00    +0.000 A 
BRANCH  22  29
ATOM     29  C   UNL     1       6.025   5.418  17.349  0.00  0.00    +0.000 C 
ATOM     30  C   UNL     1       6.750   6.590  16.640  0.00  0.00    +0.000 C 
ATOM     31  C   UNL     1       7.341   7.566  17.655  0.00  0.00    +0.000 C 
ATOM     32  O   UNL     1       8.269   6.909  18.514  0.00  0.00    +0.000 OA
ATOM     33  C   UNL     1       7.669   5.848  19.254  0.00  0.00    +0.000 C 
ATOM     34  C   UNL     1       7.089   4.808  18.305  0.00  0.00    +0.000 C 
BRANCH  29  36
ATOM     35  C   UNL     1       5.709   4.636  15.048  0.00  0.00    +0.000 C 
ATOM     36  O   UNL     1       5.745   4.339  16.433  0.00  0.00    +0.000 OA
ENDBRANCH  29  36
ENDBRANCH  22  29
ENDBRANCH  21  27
ENDBRANCH  20  21
ENDBRANCH   1  20
TORSDOF 7
ENDMDL
MODEL 7
REMARK VINA RESULT:      -8.7      0.504      1.357
REMARK  Name = 
REMARK  10 active torsions:
REMARK  status: ('A' for Active; 'I' for Inactive)
REMARK    1  A    between atoms: C_1  and  O_2
REMARK    2  A    between atoms: O_2  and  C_3
REMARK    3  A    between atoms: C_3  and  C_4
REMARK    4  A    between atoms: C_9  and  O_10
REMARK    5  A    between atoms: O_10  and  C_11
REMARK    6  A    between atoms: C_11  and  C_12
REMARK    7  A    between atoms: C_14  and  C_15
REMARK    8  A    between atoms: N_21  and  C_22
REMARK    9  A    between atoms: C_25  and  C_26
REMARK   10  A    between atoms: C_27  and  C_28
REMARK                            x       y       z     vdW  Elec       q    Type
REMARK                         _______ _______ _______ _____ _____    ______ ____
ROOT
ATOM      1  C   UNL     1       1.605   9.891  18.504  0.00  0.00    +0.000 A 
ATOM      2  C   UNL     1       0.535   9.854  19.420  0.00  0.00    +0.000 A 
ATOM      3  C   UNL     1       0.375  11.151  19.877  0.00  0.00    +0.000 A 
ATOM      4  N   UNL     1       1.413  11.869  19.280  0.00  0.00    +0.000 N 
ATOM      5  N   UNL     1       2.030  11.145  18.309  0.00  0.00    +0.000 NA
ENDROOT
BRANCH   4   6
ATOM      6  C   UNL     1       1.933  13.154  19.604  0.00  0.00    +0.000 A 
ATOM      7  C   UNL     1       2.460  13.384  20.872  0.00  0.00    +0.000 A 
ATOM      8  C   UNL     1       2.950  14.650  21.195  0.00  0.00    +0.000 A 
ATOM      9  C   UNL     1       2.879  15.710  20.275  0.00  0.00    +0.000 A 
ATOM     10  C   UNL     1       3.364  17.069  20.694  0.00  0.00    +0.000 C 
ATOM     11  C   UNL     1       2.326  15.480  19.000  0.00  0.00    +0.000 A 
ATOM     12  C   UNL     1       2.171  16.549  17.954  0.00  0.00    +0.000 C 
ATOM     13  C   UNL     1       1.868  14.194  18.673  0.00  0.00    +0.000 A 
ENDBRANCH   4   6
BRANCH   3  14
ATOM     14  C   UNL     1      -0.679  11.686  20.748  0.00  0.00    +0.000 A 
ATOM     15  C   UNL     1      -0.593  11.527  22.139  0.00  0.00    +0.000 A 
ATOM     16  C   UNL     1      -1.605  12.007  22.976  0.00  0.00    +0.000 A 
ATOM     17  C   UNL     1      -2.707  12.664  22.434  0.00  0.00    +0.000 A 
ATOM     18  C   UNL     1      -2.808  12.830  21.058  0.00  0.00    +0.000 A 
ATOM     19  C   UNL     1      -1.813  12.322  20.220  0.00  0.00    +0.000 A 
ENDBRANCH   3  14
BRANCH   1  20
ATOM     20  C   UNL     1       2.213   8.765  17.746  0.00  0.00    +0.000 C 
BRANCH  20  21
ATOM     21  O   UNL     1       1.994   7.500  18.391  0.00  0.00    +0.000 OA
BRANCH  21  27
ATOM     22  C   UNL     1       4.836   5.531  16.979  0.00  0.00    +0.000 A 
ATOM     23  C   UNL     1       4.225   4.266  17.030  0.00  0.00    +0.000 A 
ATOM     24  C   UNL     1       2.935   4.115  17.539  0.00  0.00    +0.000 A 
ATOM     25  F   UNL     1       2.386   2.894  17.579  0.00  0.00    +0.000 F 
ATOM     26  C   UNL     1       2.206   5.205  17.989  0.00  0.00    +0.000 A 
ATOM     27  C   UNL     1       2.788   6.467  17.968  0.00  0.00    +0.000 A 
ATOM     28  C   UNL     1       4.108   6.608  17.518  0.00  0.00    +0.000 A 
BRANCH  22  29
ATOM     29  C   UNL     1       6.232   5.746  16.357  0.00  0.00    +0.000 C 
ATOM     30  C   UNL     1       6.953   7.009  16.894  0.00  0.00    +0.000 C 
ATOM     31  C   UNL     1       7.352   6.834  18.357  0.00  0.00    +0.000 C 
ATOM     32  O   UNL     1       8.217   5.712  18.519  0.00  0.00    +0.000 OA
ATOM     33  C   UNL     1       7.610   4.492  18.103  0.00  0.00    +0.000 C 
ATOM     34  C   UNL     1       7.218   4.575  16.634  0.00  0.00    +0.000 C 
BRANCH  29  36
ATOM     35  C   UNL     1       6.904   4.823  14.189  0.00  0.00    +0.000 C 
ATOM     36  O   UNL     1       6.136   5.765  14.918  0.00  0.00    +0.000 OA
ENDBRANCH  29  36
ENDBRANCH  22  29
ENDBRANCH  21  27
ENDBRANCH  20  21
ENDBRANCH   1  20
TORSDOF 7
ENDMDL
MODEL 8
REMARK VINA RESULT:      -8.7      1.854      3.940
REMARK  Name = 
REMARK  10 active torsions:
REMARK  status: ('A' for Active; 'I' for Inactive)
REMARK    1  A    between atoms: C_1  and  O_2
REMARK    2  A    between atoms: O_2  and  C_3
REMARK    3  A    between atoms: C_3  and  C_4
REMARK    4  A    between atoms: C_9  and  O_10
REMARK    5  A    between atoms: O_10  and  C_11
REMARK    6  A    between atoms: C_11  and  C_12
REMARK    7  A    between atoms: C_14  and  C_15
REMARK    8  A    between atoms: N_21  and  C_22
REMARK    9  A    between atoms: C_25  and  C_26
REMARK   10  A    between atoms: C_27  and  C_28
REMARK                            x       y       z     vdW  Elec       q    Type
REMARK                         _______ _______ _______ _____ _____    ______ ____
ROOT
ATOM      1  C   UNL     1       1.699   9.482  18.058  0.00  0.00    +0.000 A 
ATOM      2  C   UNL     1       2.121  10.759  18.478  0.00  0.00    +0.000 A 
ATOM      3  C   UNL     1       0.967  11.472  18.757  0.00  0.00    +0.000 A 
ATOM      4  N   UNL     1      -0.076  10.615  18.401  0.00  0.00    +0.000 N 
ATOM      5  N   UNL     1       0.371   9.353  18.162  0.00  0.00    +0.000 NA
ENDROOT
BRANCH   4   6
ATOM      6  C   UNL     1      -1.453  10.901  18.182  0.00  0.00    +0.000 A 
ATOM      7  C   UNL     1      -2.045  10.547  16.972  0.00  0.00    +0.000 A 
ATOM      8  C   UNL     1      -3.390  10.846  16.751  0.00  0.00    +0.000 A 
ATOM      9  C   UNL     1      -4.144  11.541  17.712  0.00  0.00    +0.000 A 
ATOM     10  C   UNL     1      -5.572  11.893  17.398  0.00  0.00    +0.000 C 
ATOM     11  C   UNL     1      -3.537  11.916  18.926  0.00  0.00    +0.000 A 
ATOM     12  C   UNL     1      -4.241  12.690  20.006  0.00  0.00    +0.000 C 
ATOM     13  C   UNL     1      -2.194  11.579  19.154  0.00  0.00    +0.000 A 
ENDBRANCH   4   6
BRANCH   3  14
ATOM     14  C   UNL     1       0.845  12.810  19.350  0.00  0.00    +0.000 A 
ATOM     15  C   UNL     1       0.886  12.972  20.742  0.00  0.00    +0.000 A 
ATOM     16  C   UNL     1       0.742  14.237  21.318  0.00  0.00    +0.000 A 
ATOM     17  C   UNL     1       0.569  15.357  20.509  0.00  0.00    +0.000 A 
ATOM     18  C   UNL     1       0.526  15.215  19.127  0.00  0.00    +0.000 A 
ATOM     19  C   UNL     1       0.637  13.947  18.554  0.00  0.00    +0.000 A 
ENDBRANCH   3  14
BRANCH   1  20
ATOM     20  C   UNL     1       2.532   8.334  17.608  0.00  0.00    +0.000 C 
BRANCH  20  21
ATOM     21  O   UNL     1       2.049   7.083  18.124  0.00  0.00    +0.000 OA
BRANCH  21  27
ATOM     22  C   UNL     1       5.075   4.993  17.469  0.00  0.00    +0.000 A 
ATOM     23  C   UNL     1       4.546   3.765  17.904  0.00  0.00    +0.000 A 
ATOM     24  C   UNL     1       3.247   3.684  18.407  0.00  0.00    +0.000 A 
ATOM     25  F   UNL     1       2.778   2.499  18.819  0.00  0.00    +0.000 F 
ATOM     26  C   UNL     1       2.429   4.801  18.473  0.00  0.00    +0.000 A 
ATOM     27  C   UNL     1       2.928   6.033  18.067  0.00  0.00    +0.000 A 
ATOM     28  C   UNL     1       4.254   6.126  17.624  0.00  0.00    +0.000 A 
BRANCH  22  29
ATOM     29  C   UNL     1       6.480   5.108  16.842  0.00  0.00    +0.000 C 
ATOM     30  C   UNL     1       6.848   6.556  16.427  0.00  0.00    +0.000 C 
ATOM     31  C   UNL     1       7.045   7.446  17.652  0.00  0.00    +0.000 C 
ATOM     32  O   UNL     1       8.077   6.937  18.493  0.00  0.00    +0.000 OA
ATOM     33  C   UNL     1       7.791   5.625  18.971  0.00  0.00    +0.000 C 
ATOM     34  C   UNL     1       7.621   4.665  17.802  0.00  0.00    +0.000 C 
BRANCH  29  36
ATOM     35  C   UNL     1       6.902   4.733  14.457  0.00  0.00    +0.000 C 
ATOM     36  O   UNL     1       6.605   4.194  15.734  0.00  0.00    +0.000 OA
ENDBRANCH  29  36
ENDBRANCH  22  29
ENDBRANCH  21  27
ENDBRANCH  20  21
ENDBRANCH   1  20
TORSDOF 7
ENDMDL
MODEL 9
REMARK VINA RESULT:      -8.7      1.085      3.898
REMARK  Name = 
REMARK  10 active torsions:
REMARK  status: ('A' for Active; 'I' for Inactive)
REMARK    1  A    between atoms: C_1  and  O_2
REMARK    2  A    between atoms: O_2  and  C_3
REMARK    3  A    between atoms: C_3  and  C_4
REMARK    4  A    between atoms: C_9  and  O_10
REMARK    5  A    between atoms: O_10  and  C_11
REMARK    6  A    between atoms: C_11  and  C_12
REMARK    7  A    between atoms: C_14  and  C_15
REMARK    8  A    between atoms: N_21  and  C_22
REMARK    9  A    between atoms: C_25  and  C_26
REMARK   10  A    between atoms: C_27  and  C_28
REMARK                            x       y       z     vdW  Elec       q    Type
REMARK                         _______ _______ _______ _____ _____    ______ ____
ROOT
ATOM      1  C   UNL     1       1.128  10.127  18.630  0.00  0.00    +0.000 A 
ATOM      2  C   UNL     1       1.737  11.392  18.505  0.00  0.00    +0.000 A 
ATOM      3  C   UNL     1       1.238  12.162  19.542  0.00  0.00    +0.000 A 
ATOM      4  N   UNL     1       0.293  11.347  20.168  0.00  0.00    +0.000 N 
ATOM      5  N   UNL     1       0.372  10.062  19.732  0.00  0.00    +0.000 NA
ENDROOT
BRANCH   4   6
ATOM      6  C   UNL     1      -0.740  11.692  21.085  0.00  0.00    +0.000 A 
ATOM      7  C   UNL     1      -0.649  11.276  22.411  0.00  0.00    +0.000 A 
ATOM      8  C   UNL     1      -1.672  11.596  23.304  0.00  0.00    +0.000 A 
ATOM      9  C   UNL     1      -2.815  12.293  22.875  0.00  0.00    +0.000 A 
ATOM     10  C   UNL     1      -3.916  12.559  23.863  0.00  0.00    +0.000 C 
ATOM     11  C   UNL     1      -2.914  12.694  21.529  0.00  0.00    +0.000 A 
ATOM     12  C   UNL     1      -4.105  13.412  20.958  0.00  0.00    +0.000 C 
ATOM     13  C   UNL     1      -1.863  12.398  20.647  0.00  0.00    +0.000 A 
ENDBRANCH   4   6
BRANCH   3  14
ATOM     14  C   UNL     1       1.639  13.515  19.945  0.00  0.00    +0.000 A 
ATOM     15  C   UNL     1       0.983  14.635  19.413  0.00  0.00    +0.000 A 
ATOM     16  C   UNL     1       1.376  15.928  19.768  0.00  0.00    +0.000 A 
ATOM     17  C   UNL     1       2.420  16.119  20.670  0.00  0.00    +0.000 A 
ATOM     18  C   UNL     1       3.081  15.021  21.207  0.00  0.00    +0.000 A 
ATOM     19  C   UNL     1       2.710  13.730  20.828  0.00  0.00    +0.000 A 
ENDBRANCH   3  14
BRANCH   1  20
ATOM     20  C   UNL     1       1.287   8.934  17.756  0.00  0.00    +0.000 C 
BRANCH  20  21
ATOM     21  O   UNL     1       2.657   8.721  17.378  0.00  0.00    +0.000 OA
BRANCH  21  27
ATOM     22  C   UNL     1       4.899   5.737  17.508  0.00  0.00    +0.000 A 
ATOM     23  C   UNL     1       3.973   4.837  18.063  0.00  0.00    +0.000 A 
ATOM     24  C   UNL     1       2.681   5.250  18.386  0.00  0.00    +0.000 A 
ATOM     25  F   UNL     1       1.827   4.366  18.920  0.00  0.00    +0.000 F 
ATOM     26  C   UNL     1       2.259   6.549  18.151  0.00  0.00    +0.000 A 
ATOM     27  C   UNL     1       3.156   7.468  17.619  0.00  0.00    +0.000 A 
ATOM     28  C   UNL     1       4.474   7.070  17.357  0.00  0.00    +0.000 A 
BRANCH  22  29
ATOM     29  C   UNL     1       6.314   5.299  17.072  0.00  0.00    +0.000 C 
ATOM     30  C   UNL     1       7.176   6.468  16.529  0.00  0.00    +0.000 C 
ATOM     31  C   UNL     1       7.546   7.443  17.645  0.00  0.00    +0.000 C 
ATOM     32  O   UNL     1       8.272   6.784  18.679  0.00  0.00    +0.000 OA
ATOM     33  C   UNL     1       7.527   5.727  19.278  0.00  0.00    +0.000 C 
ATOM     34  C   UNL     1       7.154   4.688  18.230  0.00  0.00    +0.000 C 
BRANCH  29  36
ATOM     35  C   UNL     1       6.650   4.472  14.790  0.00  0.00    +0.000 C 
ATOM     36  O   UNL     1       6.227   4.220  16.120  0.00  0.00    +0.000 OA
ENDBRANCH  29  36
ENDBRANCH  22  29
ENDBRANCH  21  27
ENDBRANCH  20  21
ENDBRANCH   1  20
TORSDOF 7
ENDMDL
