MODEL 1
REMARK VINA RESULT:      -8.2      0.000      0.000
REMARK  Name = 
REMARK  5 active torsions:
REMARK  status: ('A' for Active; 'I' for Inactive)
REMARK    1  A    between atoms: C_1  and  C_2
REMARK    2  A    between atoms: C_2  and  C_3
REMARK    3  A    between atoms: C_2  and  N_18
REMARK    4  A    between atoms: N_9  and  C_10
REMARK    5  A    between atoms: C_21  and  C_22
REMARK                            x       y       z     vdW  Elec       q    Type
REMARK                         _______ _______ _______ _____ _____    ______ ____
ROOT
ATOM      1  C   UNL     1       1.374   7.812  20.474  0.00  0.00    +0.000 A 
ATOM      2  N   UNL     1       1.061   8.728  19.591  0.00  0.00    +0.000 NA
ATOM      3  C   UNL     1       0.622   9.907  20.134  0.00  0.00    +0.000 A 
ATOM      4  C   UNL     1       0.681  10.291  21.452  0.00  0.00    +0.000 A 
ATOM      5  C   UNL     1       0.291  11.629  21.492  0.00  0.00    +0.000 A 
ATOM      6  N   UNL     1      -0.121  12.048  20.291  0.00  0.00    +0.000 NA
ATOM      7  N   UNL     1       0.021  10.958  19.489  0.00  0.00    +0.000 N 
ATOM      8  C   UNL     1       1.134   9.334  22.408  0.00  0.00    +0.000 A 
ATOM      9  O   UNL     1       1.328   9.562  23.596  0.00  0.00    +0.000 OA
ATOM     10  N   UNL     1       1.333   8.077  21.849  0.00  0.00    +0.000 N 
ATOM     11  H   UNL     1       1.701   7.401  22.507  0.00  0.00    +0.000 HD
ENDROOT
BRANCH   7  12
ATOM     12  C   UNL     1      -0.626  10.927  18.192  0.00  0.00    +0.000 C 
ATOM     13  C   UNL     1      -1.411   9.640  17.941  0.00  0.00    +0.000 C 
ATOM     14  C   UNL     1      -2.287   9.982  16.741  0.00  0.00    +0.000 C 
ATOM     15  C   UNL     1      -2.554  11.483  16.836  0.00  0.00    +0.000 C 
ATOM     16  C   UNL     1      -1.673  12.017  17.965  0.00  0.00    +0.000 C 
ENDBRANCH   7  12
BRANCH   1  18
ATOM     17  C   UNL     1       2.292   5.343  21.154  0.00  0.00    +0.000 C 
ATOM     18  C   UNL     1       1.902   6.365  20.039  0.00  0.00    +0.000 C 
BRANCH  18  19
ATOM     19  N   UNL     1       3.132   6.494  19.243  0.00  0.00    +0.000 NA
ATOM     20  C   UNL     1       2.904   6.440  17.794  0.00  0.00    +0.000 C 
ATOM     21  C   UNL     1       2.852   4.962  17.495  0.00  0.00    +0.000 C 
ATOM     22  C   UNL     1       3.977   4.416  18.360  0.00  0.00    +0.000 C 
ATOM     23  C   UNL     1       4.019   5.347  19.565  0.00  0.00    +0.000 C 
BRANCH  22  24
ATOM     24  C   UNL     1       5.299   4.362  17.644  0.00  0.00    +0.000 A 
ATOM     25  C   UNL     1       5.413   4.080  16.273  0.00  0.00    +0.000 A 
ATOM     26  C   UNL     1       6.656   4.156  15.684  0.00  0.00    +0.000 A 
ATOM     27  N   UNL     1       7.783   4.460  16.359  0.00  0.00    +0.000 NA
ATOM     28  C   UNL     1       7.660   4.683  17.689  0.00  0.00    +0.000 A 
ATOM     29  C   UNL     1       6.458   4.649  18.362  0.00  0.00    +0.000 A 
ENDBRANCH  22  24
ENDBRANCH  18  19
ENDBRANCH   1  18
TORSDOF 4
ENDMDL
MODEL 2
REMARK VINA RESULT:      -7.9      3.210      9.387
REMARK  Name = 
REMARK  5 active torsions:
REMARK  status: ('A' for Active; 'I' for Inactive)
REMARK    1  A    between atoms: C_1  and  C_2
REMARK    2  A    between atoms: C_2  and  C_3
REMARK    3  A    between atoms: C_2  and  N_18
REMARK    4  A    between atoms: N_9  and  C_10
REMARK    5  A    between atoms: C_21  and  C_22
REMARK                            x       y       z     vdW  Elec       q    Type
REMARK                         _______ _______ _______ _____ _____    ______ ____
ROOT
ATOM      1  C   UNL     1       1.028   9.302  20.830  0.00  0.00    +0.000 A 
ATOM      2  N   UNL     1       1.411   8.060  20.999  0.00  0.00    +0.000 NA
ATOM      3  C   UNL     1       1.859   7.450  19.856  0.00  0.00    +0.000 A 
ATOM      4  C   UNL     1       2.142   8.042  18.650  0.00  0.00    +0.000 A 
ATOM      5  C   UNL     1       2.736   7.062  17.858  0.00  0.00    +0.000 A 
ATOM      6  N   UNL     1       2.720   5.872  18.467  0.00  0.00    +0.000 NA
ATOM      7  N   UNL     1       2.114   6.116  19.661  0.00  0.00    +0.000 N 
ATOM      8  C   UNL     1       1.835   9.427  18.497  0.00  0.00    +0.000 A 
ATOM      9  O   UNL     1       2.117  10.107  17.517  0.00  0.00    +0.000 OA
ATOM     10  N   UNL     1       1.157   9.946  19.593  0.00  0.00    +0.000 N 
ATOM     11  H   UNL     1       0.976  10.939  19.517  0.00  0.00    +0.000 HD
ENDROOT
BRANCH   7  12
ATOM     12  C   UNL     1       1.624   5.010  20.460  0.00  0.00    +0.000 C 
ATOM     13  C   UNL     1       1.144   3.826  19.622  0.00  0.00    +0.000 C 
ATOM     14  C   UNL     1       1.050   2.686  20.630  0.00  0.00    +0.000 C 
ATOM     15  C   UNL     1       2.109   2.981  21.690  0.00  0.00    +0.000 C 
ATOM     16  C   UNL     1       2.658   4.376  21.389  0.00  0.00    +0.000 C 
ENDBRANCH   7  12
BRANCH   1  18
ATOM     17  C   UNL     1       0.066   9.464  23.370  0.00  0.00    +0.000 C 
ATOM     18  C   UNL     1       0.468  10.185  22.043  0.00  0.00    +0.000 C 
BRANCH  18  19
ATOM     19  N   UNL     1      -0.764  10.877  21.638  0.00  0.00    +0.000 NA
ATOM     20  C   UNL     1      -0.524  12.156  20.958  0.00  0.00    +0.000 C 
ATOM     21  C   UNL     1      -0.333  13.133  22.090  0.00  0.00    +0.000 C 
ATOM     22  C   UNL     1      -1.407  12.701  23.077  0.00  0.00    +0.000 C 
ATOM     23  C   UNL     1      -1.542  11.200  22.861  0.00  0.00    +0.000 C 
BRANCH  22  24
ATOM     24  C   UNL     1      -2.715  13.419  22.877  0.00  0.00    +0.000 A 
ATOM     25  C   UNL     1      -3.911  12.753  22.567  0.00  0.00    +0.000 A 
ATOM     26  C   UNL     1      -5.077  13.484  22.506  0.00  0.00    +0.000 A 
ATOM     27  N   UNL     1      -5.131  14.817  22.699  0.00  0.00    +0.000 NA
ATOM     28  C   UNL     1      -3.961  15.448  22.952  0.00  0.00    +0.000 A 
ATOM     29  C   UNL     1      -2.749  14.800  23.051  0.00  0.00    +0.000 A 
ENDBRANCH  22  24
ENDBRANCH  18  19
ENDBRANCH   1  18
TORSDOF 4
ENDMDL
MODEL 3
REMARK VINA RESULT:      -7.8      3.028      9.239
REMARK  Name = 
REMARK  5 active torsions:
REMARK  status: ('A' for Active; 'I' for Inactive)
REMARK    1  A    between atoms: C_1  and  C_2
REMARK    2  A    between atoms: C_2  and  C_3
REMARK    3  A    between atoms: C_2  and  N_18
REMARK    4  A    between atoms: N_9  and  C_10
REMARK    5  A    between atoms: C_21  and  C_22
REMARK                            x       y       z     vdW  Elec       q    Type
REMARK                         _______ _______ _______ _____ _____    ______ ____
ROOT
ATOM      1  C   UNL     1       1.269   9.013  20.716  0.00  0.00    +0.000 A 
ATOM      2  N   UNL     1       1.817   7.843  20.935  0.00  0.00    +0.000 NA
ATOM      3  C   UNL     1       2.238   7.198  19.801  0.00  0.00    +0.000 A 
ATOM      4  C   UNL     1       2.340   7.719  18.535  0.00  0.00    +0.000 A 
ATOM      5  C   UNL     1       2.983   6.754  17.761  0.00  0.00    +0.000 A 
ATOM      6  N   UNL     1       3.167   5.624  18.452  0.00  0.00    +0.000 NA
ATOM      7  N   UNL     1       2.640   5.892  19.677  0.00  0.00    +0.000 N 
ATOM      8  C   UNL     1       1.851   9.041  18.314  0.00  0.00    +0.000 A 
ATOM      9  O   UNL     1       1.962   9.667  17.266  0.00  0.00    +0.000 OA
ATOM     10  N   UNL     1       1.210   9.564  19.430  0.00  0.00    +0.000 N 
ATOM     11  H   UNL     1       0.901  10.520  19.301  0.00  0.00    +0.000 HD
ENDROOT
BRANCH   7  12
ATOM     12  C   UNL     1       2.362   4.805  20.596  0.00  0.00    +0.000 C 
ATOM     13  C   UNL     1       0.977   4.191  20.401  0.00  0.00    +0.000 C 
ATOM     14  C   UNL     1       1.055   2.876  21.170  0.00  0.00    +0.000 C 
ATOM     15  C   UNL     1       2.518   2.442  21.102  0.00  0.00    +0.000 C 
ATOM     16  C   UNL     1       3.293   3.600  20.473  0.00  0.00    +0.000 C 
ENDBRANCH   7  12
BRANCH   1  18
ATOM     17  C   UNL     1       0.689   9.325  23.356  0.00  0.00    +0.000 C 
ATOM     18  C   UNL     1       0.710   9.920  21.911  0.00  0.00    +0.000 C 
BRANCH  18  19
ATOM     19  N   UNL     1      -0.696  10.273  21.662  0.00  0.00    +0.000 NA
ATOM     20  C   UNL     1      -0.865  11.393  20.729  0.00  0.00    +0.000 C 
ATOM     21  C   UNL     1      -0.699  12.613  21.599  0.00  0.00    +0.000 C 
ATOM     22  C   UNL     1      -1.465  12.222  22.855  0.00  0.00    +0.000 C 
ATOM     23  C   UNL     1      -1.301  10.711  22.946  0.00  0.00    +0.000 C 
BRANCH  22  24
ATOM     24  C   UNL     1      -2.912  12.631  22.814  0.00  0.00    +0.000 A 
ATOM     25  C   UNL     1      -3.538  13.107  21.652  0.00  0.00    +0.000 A 
ATOM     26  C   UNL     1      -4.893  13.357  21.686  0.00  0.00    +0.000 A 
ATOM     27  N   UNL     1      -5.652  13.198  22.789  0.00  0.00    +0.000 NA
ATOM     28  C   UNL     1      -5.021  12.783  23.912  0.00  0.00    +0.000 A 
ATOM     29  C   UNL     1      -3.676  12.489  23.970  0.00  0.00    +0.000 A 
ENDBRANCH  22  24
ENDBRANCH  18  19
ENDBRANCH   1  18
TORSDOF 4
ENDMDL
MODEL 4
REMARK VINA RESULT:      -7.7      2.168      8.428
REMARK  Name = 
REMARK  5 active torsions:
REMARK  status: ('A' for Active; 'I' for Inactive)
REMARK    1  A    between atoms: C_1  and  C_2
REMARK    2  A    between atoms: C_2  and  C_3
REMARK    3  A    between atoms: C_2  and  N_18
REMARK    4  A    between atoms: N_9  and  C_10
REMARK    5  A    between atoms: C_21  and  C_22
REMARK                            x       y       z     vdW  Elec       q    Type
REMARK                         _______ _______ _______ _____ _____    ______ ____
ROOT
ATOM      1  C   UNL     1       2.209   6.872  19.917  0.00  0.00    +0.000 A 
ATOM      2  N   UNL     1       2.797   6.581  18.782  0.00  0.00    +0.000 NA
ATOM      3  C   UNL     1       3.071   5.249  18.615  0.00  0.00    +0.000 A 
ATOM      4  C   UNL     1       2.620   4.203  19.381  0.00  0.00    +0.000 A 
ATOM      5  C   UNL     1       3.006   3.036  18.723  0.00  0.00    +0.000 A 
ATOM      6  N   UNL     1       3.775   3.310  17.664  0.00  0.00    +0.000 NA
ATOM      7  N   UNL     1       3.862   4.668  17.657  0.00  0.00    +0.000 N 
ATOM      8  C   UNL     1       1.877   4.508  20.560  0.00  0.00    +0.000 A 
ATOM      9  O   UNL     1       1.334   3.682  21.284  0.00  0.00    +0.000 OA
ATOM     10  N   UNL     1       1.833   5.871  20.823  0.00  0.00    +0.000 N 
ATOM     11  H   UNL     1       1.268   6.105  21.630  0.00  0.00    +0.000 HD
ENDROOT
BRANCH   7  12
ATOM     12  C   UNL     1       4.874   5.321  16.850  0.00  0.00    +0.000 C 
ATOM     13  C   UNL     1       6.061   5.828  17.668  0.00  0.00    +0.000 C 
ATOM     14  C   UNL     1       7.128   6.111  16.616  0.00  0.00    +0.000 C 
ATOM     15  C   UNL     1       6.861   5.126  15.479  0.00  0.00    +0.000 C 
ATOM     16  C   UNL     1       5.537   4.432  15.799  0.00  0.00    +0.000 C 
ENDBRANCH   7  12
BRANCH   1  18
ATOM     17  C   UNL     1       1.540   8.717  21.802  0.00  0.00    +0.000 C 
ATOM     18  C   UNL     1       1.811   8.374  20.302  0.00  0.00    +0.000 C 
BRANCH  18  19
ATOM     19  N   UNL     1       0.559   8.752  19.629  0.00  0.00    +0.000 NA
ATOM     20  C   UNL     1       0.755   9.631  18.470  0.00  0.00    +0.000 C 
ATOM     21  C   UNL     1       0.859  11.007  19.078  0.00  0.00    +0.000 C 
ATOM     22  C   UNL     1      -0.224  10.973  20.146  0.00  0.00    +0.000 C 
ATOM     23  C   UNL     1      -0.275   9.518  20.592  0.00  0.00    +0.000 C 
BRANCH  22  24
ATOM     24  C   UNL     1      -1.559  11.457  19.648  0.00  0.00    +0.000 A 
ATOM     25  C   UNL     1      -2.081  11.100  18.395  0.00  0.00    +0.000 A 
ATOM     26  C   UNL     1      -3.356  11.506  18.070  0.00  0.00    +0.000 A 
ATOM     27  N   UNL     1      -4.128  12.258  18.881  0.00  0.00    +0.000 NA
ATOM     28  C   UNL     1      -3.590  12.631  20.066  0.00  0.00    +0.000 A 
ATOM     29  C   UNL     1      -2.332  12.257  20.486  0.00  0.00    +0.000 A 
ENDBRANCH  22  24
ENDBRANCH  18  19
ENDBRANCH   1  18
TORSDOF 4
ENDMDL
MODEL 5
REMARK VINA RESULT:      -7.7      2.953      5.071
REMARK  Name = 
REMARK  5 active torsions:
REMARK  status: ('A' for Active; 'I' for Inactive)
REMARK    1  A    between atoms: C_1  and  C_2
REMARK    2  A    between atoms: C_2  and  C_3
REMARK    3  A    between atoms: C_2  and  N_18
REMARK    4  A    between atoms: N_9  and  C_10
REMARK    5  A    between atoms: C_21  and  C_22
REMARK                            x       y       z     vdW  Elec       q    Type
REMARK                         _______ _______ _______ _____ _____    ______ ____
ROOT
ATOM      1  C   UNL     1       5.110   4.820  19.154  0.00  0.00    +0.000 A 
ATOM      2  N   UNL     1       4.459   5.903  19.502  0.00  0.00    +0.000 NA
ATOM      3  C   UNL     1       3.152   5.686  19.851  0.00  0.00    +0.000 A 
ATOM      4  C   UNL     1       2.539   4.478  20.075  0.00  0.00    +0.000 A 
ATOM      5  C   UNL     1       1.272   4.766  20.580  0.00  0.00    +0.000 A 
ATOM      6  N   UNL     1       1.031   6.081  20.561  0.00  0.00    +0.000 NA
ATOM      7  N   UNL     1       2.167   6.622  20.044  0.00  0.00    +0.000 N 
ATOM      8  C   UNL     1       3.282   3.290  19.809  0.00  0.00    +0.000 A 
ATOM      9  O   UNL     1       2.901   2.151  20.050  0.00  0.00    +0.000 OA
ATOM     10  N   UNL     1       4.514   3.555  19.224  0.00  0.00    +0.000 N 
ATOM     11  H   UNL     1       5.073   2.723  19.074  0.00  0.00    +0.000 HD
ENDROOT
BRANCH   7  12
ATOM     12  C   UNL     1       2.163   7.991  19.569  0.00  0.00    +0.000 C 
ATOM     13  C   UNL     1       1.994   8.103  18.054  0.00  0.00    +0.000 C 
ATOM     14  C   UNL     1       1.638   9.570  17.840  0.00  0.00    +0.000 C 
ATOM     15  C   UNL     1       0.907  10.009  19.106  0.00  0.00    +0.000 C 
ATOM     16  C   UNL     1       1.026   8.859  20.106  0.00  0.00    +0.000 C 
ENDBRANCH   7  12
BRANCH   1  18
ATOM     17  C   UNL     1       7.639   5.751  19.528  0.00  0.00    +0.000 C 
ATOM     18  C   UNL     1       6.647   4.866  18.708  0.00  0.00    +0.000 C 
BRANCH  18  19
ATOM     19  N   UNL     1       6.761   5.396  17.340  0.00  0.00    +0.000 NA
ATOM     20  C   UNL     1       5.466   5.637  16.693  0.00  0.00    +0.000 C 
ATOM     21  C   UNL     1       5.079   4.285  16.150  0.00  0.00    +0.000 C 
ATOM     22  C   UNL     1       6.400   3.765  15.602  0.00  0.00    +0.000 C 
ATOM     23  C   UNL     1       7.458   4.384  16.505  0.00  0.00    +0.000 C 
BRANCH  22  24
ATOM     24  C   UNL     1       6.618   4.117  14.155  0.00  0.00    +0.000 A 
ATOM     25  C   UNL     1       7.505   5.123  13.740  0.00  0.00    +0.000 A 
ATOM     26  C   UNL     1       7.715   5.302  12.390  0.00  0.00    +0.000 A 
ATOM     27  N   UNL     1       7.091   4.581  11.437  0.00  0.00    +0.000 NA
ATOM     28  C   UNL     1       6.206   3.647  11.856  0.00  0.00    +0.000 A 
ATOM     29  C   UNL     1       5.944   3.382  13.183  0.00  0.00    +0.000 A 
ENDBRANCH  22  24
ENDBRANCH  18  19
ENDBRANCH   1  18
TORSDOF 4
ENDMDL
MODEL 6
REMARK VINA RESULT:      -7.6      2.655      8.423
REMARK  Name = 
REMARK  5 active torsions:
REMARK  status: ('A' for Active; 'I' for Inactive)
REMARK    1  A    between atoms: C_1  and  C_2
REMARK    2  A    between atoms: C_2  and  C_3
REMARK    3  A    between atoms: C_2  and  N_18
REMARK    4  A    between atoms: N_9  and  C_10
REMARK    5  A    between atoms: C_21  and  C_22
REMARK                            x       y       z     vdW  Elec       q    Type
REMARK                         _______ _______ _______ _____ _____    ______ ____
ROOT
ATOM      1  C   UNL     1       2.684   7.208  18.491  0.00  0.00    +0.000 A 
ATOM      2  N   UNL     1       2.791   6.165  19.277  0.00  0.00    +0.000 NA
ATOM      3  C   UNL     1       3.906   5.402  19.050  0.00  0.00    +0.000 A 
ATOM      4  C   UNL     1       4.989   5.719  18.267  0.00  0.00    +0.000 A 
ATOM      5  C   UNL     1       5.943   4.728  18.490  0.00  0.00    +0.000 A 
ATOM      6  N   UNL     1       5.457   3.756  19.270  0.00  0.00    +0.000 NA
ATOM      7  N   UNL     1       4.185   4.152  19.544  0.00  0.00    +0.000 N 
ATOM      8  C   UNL     1       4.928   6.918  17.495  0.00  0.00    +0.000 A 
ATOM      9  O   UNL     1       5.849   7.374  16.829  0.00  0.00    +0.000 OA
ATOM     10  N   UNL     1       3.684   7.532  17.565  0.00  0.00    +0.000 N 
ATOM     11  H   UNL     1       3.642   8.409  17.061  0.00  0.00    +0.000 HD
ENDROOT
BRANCH   7  12
ATOM     12  C   UNL     1       3.237   3.203  20.093  0.00  0.00    +0.000 C 
ATOM     13  C   UNL     1       2.522   3.719  21.341  0.00  0.00    +0.000 C 
ATOM     14  C   UNL     1       1.347   2.762  21.505  0.00  0.00    +0.000 C 
ATOM     15  C   UNL     1       0.991   2.298  20.094  0.00  0.00    +0.000 C 
ATOM     16  C   UNL     1       2.081   2.832  19.165  0.00  0.00    +0.000 C 
ENDBRANCH   7  12
BRANCH   1  18
ATOM     17  C   UNL     1       1.054   9.055  17.335  0.00  0.00    +0.000 C 
ATOM     18  C   UNL     1       1.448   8.221  18.596  0.00  0.00    +0.000 C 
BRANCH  18  19
ATOM     19  N   UNL     1       1.719   9.244  19.617  0.00  0.00    +0.000 NA
ATOM     20  C   UNL     1       1.153   8.926  20.934  0.00  0.00    +0.000 C 
ATOM     21  C   UNL     1      -0.278   9.391  20.830  0.00  0.00    +0.000 C 
ATOM     22  C   UNL     1      -0.137  10.709  20.084  0.00  0.00    +0.000 C 
ATOM     23  C   UNL     1       1.078  10.513  19.188  0.00  0.00    +0.000 C 
BRANCH  22  24
ATOM     24  C   UNL     1       0.023  11.892  21.001  0.00  0.00    +0.000 A 
ATOM     25  C   UNL     1       0.997  12.883  20.803  0.00  0.00    +0.000 A 
ATOM     26  C   UNL     1       0.998  13.982  21.635  0.00  0.00    +0.000 A 
ATOM     27  N   UNL     1       0.131  14.146  22.654  0.00  0.00    +0.000 NA
ATOM     28  C   UNL     1      -0.771  13.157  22.856  0.00  0.00    +0.000 A 
ATOM     29  C   UNL     1      -0.862  12.032  22.066  0.00  0.00    +0.000 A 
ENDBRANCH  22  24
ENDBRANCH  18  19
ENDBRANCH   1  18
TORSDOF 4
ENDMDL
MODEL 7
REMARK VINA RESULT:      -7.5      2.399      8.421
REMARK  Name = 
REMARK  5 active torsions:
REMARK  status: ('A' for Active; 'I' for Inactive)
REMARK    1  A    between atoms: C_1  and  C_2
REMARK    2  A    between atoms: C_2  and  C_3
REMARK    3  A    between atoms: C_2  and  N_18
REMARK    4  A    between atoms: N_9  and  C_10
REMARK    5  A    between atoms: C_21  and  C_22
REMARK                            x       y       z     vdW  Elec       q    Type
REMARK                         _______ _______ _______ _____ _____    ______ ____
ROOT
ATOM      1  C   UNL     1       2.360   6.380  19.253  0.00  0.00    +0.000 A 
ATOM      2  N   UNL     1       3.441   5.932  18.662  0.00  0.00    +0.000 NA
ATOM      3  C   UNL     1       3.917   4.755  19.177  0.00  0.00    +0.000 A 
ATOM      4  C   UNL     1       3.286   3.918  20.064  0.00  0.00    +0.000 A 
ATOM      5  C   UNL     1       4.071   2.768  20.148  0.00  0.00    +0.000 A 
ATOM      6  N   UNL     1       5.208   2.907  19.459  0.00  0.00    +0.000 NA
ATOM      7  N   UNL     1       5.128   4.158  18.930  0.00  0.00    +0.000 N 
ATOM      8  C   UNL     1       2.046   4.347  20.624  0.00  0.00    +0.000 A 
ATOM      9  O   UNL     1       1.329   3.669  21.350  0.00  0.00    +0.000 OA
ATOM     10  N   UNL     1       1.724   5.650  20.265  0.00  0.00    +0.000 N 
ATOM     11  H   UNL     1       0.823   5.950  20.616  0.00  0.00    +0.000 HD
ENDROOT
BRANCH   7  12
ATOM     12  C   UNL     1       6.315   4.790  18.389  0.00  0.00    +0.000 C 
ATOM     13  C   UNL     1       6.035   5.629  17.143  0.00  0.00    +0.000 C 
ATOM     14  C   UNL     1       7.295   6.475  16.989  0.00  0.00    +0.000 C 
ATOM     15  C   UNL     1       7.836   6.674  18.403  0.00  0.00    +0.000 C 
ATOM     16  C   UNL     1       7.002   5.784  19.324  0.00  0.00    +0.000 C 
ENDBRANCH   7  12
BRANCH   1  18
ATOM     17  C   UNL     1       2.213   8.498  17.551  0.00  0.00    +0.000 C 
ATOM     18  C   UNL     1       1.654   7.744  18.800  0.00  0.00    +0.000 C 
BRANCH  18  19
ATOM     19  N   UNL     1       1.745   8.742  19.876  0.00  0.00    +0.000 NA
ATOM     20  C   UNL     1       1.048   8.346  21.106  0.00  0.00    +0.000 C 
ATOM     21  C   UNL     1      -0.385   8.738  20.848  0.00  0.00    +0.000 C 
ATOM     22  C   UNL     1      -0.235  10.088  20.163  0.00  0.00    +0.000 C 
ATOM     23  C   UNL     1       1.086   9.990  19.412  0.00  0.00    +0.000 C 
BRANCH  22  24
ATOM     24  C   UNL     1      -0.250  11.243  21.127  0.00  0.00    +0.000 A 
ATOM     25  C   UNL     1       0.508  12.409  20.934  0.00  0.00    +0.000 A 
ATOM     26  C   UNL     1       0.348  13.454  21.816  0.00  0.00    +0.000 A 
ATOM     27  N   UNL     1      -0.479  13.412  22.880  0.00  0.00    +0.000 NA
ATOM     28  C   UNL     1      -1.167  12.262  23.076  0.00  0.00    +0.000 A 
ATOM     29  C   UNL     1      -1.088  11.172  22.238  0.00  0.00    +0.000 A 
ENDBRANCH  22  24
ENDBRANCH  18  19
ENDBRANCH   1  18
TORSDOF 4
ENDMDL
MODEL 8
REMARK VINA RESULT:      -7.4      2.204      8.284
REMARK  Name = 
REMARK  5 active torsions:
REMARK  status: ('A' for Active; 'I' for Inactive)
REMARK    1  A    between atoms: C_1  and  C_2
REMARK    2  A    between atoms: C_2  and  C_3
REMARK    3  A    between atoms: C_2  and  N_18
REMARK    4  A    between atoms: N_9  and  C_10
REMARK    5  A    between atoms: C_21  and  C_22
REMARK                            x       y       z     vdW  Elec       q    Type
REMARK                         _______ _______ _______ _____ _____    ______ ____
ROOT
ATOM      1  C   UNL     1       2.411   6.759  20.078  0.00  0.00    +0.000 A 
ATOM      2  N   UNL     1       3.322   6.470  19.181  0.00  0.00    +0.000 NA
ATOM      3  C   UNL     1       3.639   5.139  19.109  0.00  0.00    +0.000 A 
ATOM      4  C   UNL     1       2.975   4.091  19.699  0.00  0.00    +0.000 A 
ATOM      5  C   UNL     1       3.550   2.925  19.194  0.00  0.00    +0.000 A 
ATOM      6  N   UNL     1       4.608   3.201  18.426  0.00  0.00    +0.000 NA
ATOM      7  N   UNL     1       4.690   4.560  18.444  0.00  0.00    +0.000 N 
ATOM      8  C   UNL     1       1.902   4.394  20.588  0.00  0.00    +0.000 A 
ATOM      9  O   UNL     1       1.163   3.567  21.109  0.00  0.00    +0.000 OA
ATOM     10  N   UNL     1       1.775   5.757  20.823  0.00  0.00    +0.000 N 
ATOM     11  H   UNL     1       0.986   5.989  21.415  0.00  0.00    +0.000 HD
ENDROOT
BRANCH   7  12
ATOM     12  C   UNL     1       5.900   5.216  17.991  0.00  0.00    +0.000 C 
ATOM     13  C   UNL     1       5.643   6.580  17.353  0.00  0.00    +0.000 C 
ATOM     14  C   UNL     1       7.025   7.225  17.314  0.00  0.00    +0.000 C 
ATOM     15  C   UNL     1       7.787   6.645  18.504  0.00  0.00    +0.000 C 
ATOM     16  C   UNL     1       6.913   5.536  19.090  0.00  0.00    +0.000 C 
ENDBRANCH   7  12
BRANCH   1  18
ATOM     17  C   UNL     1       1.472   8.683  21.757  0.00  0.00    +0.000 C 
ATOM     18  C   UNL     1       1.908   8.260  20.318  0.00  0.00    +0.000 C 
BRANCH  18  19
ATOM     19  N   UNL     1       0.715   8.530  19.501  0.00  0.00    +0.000 NA
ATOM     20  C   UNL     1       1.006   9.248  18.254  0.00  0.00    +0.000 C 
ATOM     21  C   UNL     1       1.058  10.694  18.677  0.00  0.00    +0.000 C 
ATOM     22  C   UNL     1      -0.109  10.791  19.649  0.00  0.00    +0.000 C 
ATOM     23  C   UNL     1      -0.195   9.408  20.281  0.00  0.00    +0.000 C 
BRANCH  22  24
ATOM     24  C   UNL     1      -1.399  11.188  18.984  0.00  0.00    +0.000 A 
ATOM     25  C   UNL     1      -1.719  10.829  17.665  0.00  0.00    +0.000 A 
ATOM     26  C   UNL     1      -2.967  11.149  17.178  0.00  0.00    +0.000 A 
ATOM     27  N   UNL     1      -3.896  11.818  17.891  0.00  0.00    +0.000 NA
ATOM     28  C   UNL     1      -3.552  12.195  19.144  0.00  0.00    +0.000 A 
ATOM     29  C   UNL     1      -2.336  11.904  19.724  0.00  0.00    +0.000 A 
ENDBRANCH  22  24
ENDBRANCH  18  19
ENDBRANCH   1  18
TORSDOF 4
ENDMDL
MODEL 9
REMARK VINA RESULT:      -7.3      2.679      8.477
REMARK  Name = 
REMARK  5 active torsions:
REMARK  status: ('A' for Active; 'I' for Inactive)
REMARK    1  A    between atoms: C_1  and  C_2
REMARK    2  A    between atoms: C_2  and  C_3
REMARK    3  A    between atoms: C_2  and  N_18
REMARK    4  A    between atoms: N_9  and  C_10
REMARK    5  A    between atoms: C_21  and  C_22
REMARK                            x       y       z     vdW  Elec       q    Type
REMARK                         _______ _______ _______ _____ _____    ______ ____
ROOT
ATOM      1  C   UNL     1       2.681   8.069  18.003  0.00  0.00    +0.000 A 
ATOM      2  N   UNL     1       2.594   7.200  18.981  0.00  0.00    +0.000 NA
ATOM      3  C   UNL     1       3.462   6.145  18.875  0.00  0.00    +0.000 A 
ATOM      4  C   UNL     1       4.518   6.019  18.006  0.00  0.00    +0.000 A 
ATOM      5  C   UNL     1       5.213   4.873  18.393  0.00  0.00    +0.000 A 
ATOM      6  N   UNL     1       4.570   4.225  19.370  0.00  0.00    +0.000 NA
ATOM      7  N   UNL     1       3.463   4.981  19.601  0.00  0.00    +0.000 N 
ATOM      8  C   UNL     1       4.690   7.025  17.010  0.00  0.00    +0.000 A 
ATOM      9  O   UNL     1       5.635   7.094  16.234  0.00  0.00    +0.000 OA
ATOM     10  N   UNL     1       3.647   7.943  16.997  0.00  0.00    +0.000 N 
ATOM     11  H   UNL     1       3.782   8.691  16.327  0.00  0.00    +0.000 HD
ENDROOT
BRANCH   7  12
ATOM     12  C   UNL     1       2.360   4.431  20.364  0.00  0.00    +0.000 C 
ATOM     13  C   UNL     1       1.304   3.753  19.493  0.00  0.00    +0.000 C 
ATOM     14  C   UNL     1       0.481   2.943  20.489  0.00  0.00    +0.000 C 
ATOM     15  C   UNL     1       1.444   2.571  21.616  0.00  0.00    +0.000 C 
ATOM     16  C   UNL     1       2.743   3.333  21.355  0.00  0.00    +0.000 C 
ENDBRANCH   7  12
BRANCH   1  18
ATOM     17  C   UNL     1       2.424  10.777  17.967  0.00  0.00    +0.000 C 
ATOM     18  C   UNL     1       1.748   9.369  17.944  0.00  0.00    +0.000 C 
BRANCH  18  19
ATOM     19  N   UNL     1       0.847   9.398  19.106  0.00  0.00    +0.000 NA
ATOM     20  C   UNL     1      -0.576   9.368  18.748  0.00  0.00    +0.000 C 
ATOM     21  C   UNL     1      -0.900  10.809  18.445  0.00  0.00    +0.000 C 
ATOM     22  C   UNL     1      -0.151  11.548  19.545  0.00  0.00    +0.000 C 
ATOM     23  C   UNL     1       1.064  10.676  19.831  0.00  0.00    +0.000 C 
BRANCH  22  24
ATOM     24  C   UNL     1      -0.986  11.775  20.776  0.00  0.00    +0.000 A 
ATOM     25  C   UNL     1      -2.181  12.511  20.763  0.00  0.00    +0.000 A 
ATOM     26  C   UNL     1      -2.929  12.576  21.918  0.00  0.00    +0.000 A 
ATOM     27  N   UNL     1      -2.562  11.993  23.077  0.00  0.00    +0.000 NA
ATOM     28  C   UNL     1      -1.384  11.327  23.082  0.00  0.00    +0.000 A 
ATOM     29  C   UNL     1      -0.578  11.191  21.973  0.00  0.00    +0.000 A 
ENDBRANCH  22  24
ENDBRANCH  18  19
ENDBRANCH   1  18
TORSDOF 4
ENDMDL
