MODEL 1
REMARK VINA RESULT:      -8.3      0.000      0.000
REMARK  Name = 
REMARK  4 active torsions:
REMARK  status: ('A' for Active; 'I' for Inactive)
REMARK    1  A    between atoms: C_1  and  C_2
REMARK    2  A    between atoms: C_6  and  N_7
REMARK    3  A    between atoms: N_7  and  S_8
REMARK    4  A    between atoms: S_8  and  C_10
REMARK                            x       y       z     vdW  Elec       q    Type
REMARK                         _______ _______ _______ _____ _____    ______ ____
ROOT
ATOM      1  S   UNL     1       3.322   6.616  19.069  0.00  0.00    +0.000 S 
ATOM      2  O   UNL     1       2.121   7.582  19.355  0.00  0.00    +0.000 OA
ENDROOT
BRANCH   1   3
ATOM      3  C   UNL     1       2.757   4.893  19.303  0.00  0.00    +0.000 C 
ATOM      4  C   UNL     1       3.918   3.967  19.716  0.00  0.00    +0.000 C 
ATOM      5  C   UNL     1       3.385   2.550  20.014  0.00  0.00    +0.000 C 
ATOM      6  C   UNL     1       2.363   2.618  21.160  0.00  0.00    +0.000 C 
ATOM      7  C   UNL     1       1.188   3.524  20.762  0.00  0.00    +0.000 C 
ATOM      8  C   UNL     1       0.512   2.972  19.498  0.00  0.00    +0.000 C 
ATOM      9  C   UNL     1       1.528   2.905  18.343  0.00  0.00    +0.000 C 
ATOM     10  C   UNL     1       2.695   1.992  18.757  0.00  0.00    +0.000 C 
ATOM     11  C   UNL     1       2.067   4.320  18.048  0.00  0.00    +0.000 C 
ATOM     12  C   UNL     1       1.724   4.928  20.464  0.00  0.00    +0.000 C 
ENDBRANCH   1   3
BRANCH   1  13
ATOM     13  N   UNL     1       3.764   6.678  17.462  0.00  0.00    +0.000 N 
ATOM     14  H   UNL     1       3.038   6.680  16.754  0.00  0.00    +0.000 HD
BRANCH  13  20
ATOM     15  C   UNL     1       6.219   3.929  14.103  0.00  0.00    +0.000 C 
ATOM     16  C   UNL     1       6.217   4.681  15.401  0.00  0.00    +0.000 A 
ATOM     17  C   UNL     1       7.342   4.744  16.221  0.00  0.00    +0.000 A 
ATOM     18  C   UNL     1       7.282   5.438  17.429  0.00  0.00    +0.000 A 
ATOM     19  C   UNL     1       6.100   6.084  17.820  0.00  0.00    +0.000 A 
ATOM     20  C   UNL     1       4.959   6.063  17.004  0.00  0.00    +0.000 A 
ATOM     21  C   UNL     1       5.042   5.330  15.807  0.00  0.00    +0.000 A 
ENDBRANCH  13  20
ENDBRANCH   1  13
TORSDOF 3
ENDMDL
MODEL 2
REMARK VINA RESULT:      -8.3      0.090      1.671
REMARK  Name = 
REMARK  4 active torsions:
REMARK  status: ('A' for Active; 'I' for Inactive)
REMARK    1  A    between atoms: C_1  and  C_2
REMARK    2  A    between atoms: C_6  and  N_7
REMARK    3  A    between atoms: N_7  and  S_8
REMARK    4  A    between atoms: S_8  and  C_10
REMARK                            x       y       z     vdW  Elec       q    Type
REMARK                         _______ _______ _______ _____ _____    ______ ____
ROOT
ATOM      1  S   UNL     1       3.292   6.610  19.074  0.00  0.00    +0.000 S 
ATOM      2  O   UNL     1       2.153   7.648  19.363  0.00  0.00    +0.000 OA
ENDROOT
BRANCH   1   3
ATOM      3  C   UNL     1       2.630   4.926  19.341  0.00  0.00    +0.000 C 
ATOM      4  C   UNL     1       2.034   4.340  18.046  0.00  0.00    +0.000 C 
ATOM      5  C   UNL     1       1.590   2.881  18.281  0.00  0.00    +0.000 C 
ATOM      6  C   UNL     1       2.804   2.038  18.703  0.00  0.00    +0.000 C 
ATOM      7  C   UNL     1       3.403   2.596  20.002  0.00  0.00    +0.000 C 
ATOM      8  C   UNL     1       2.345   2.572  21.115  0.00  0.00    +0.000 C 
ATOM      9  C   UNL     1       1.127   3.419  20.702  0.00  0.00    +0.000 C 
ATOM     10  C   UNL     1       0.537   2.844  19.402  0.00  0.00    +0.000 C 
ATOM     11  C   UNL     1       1.570   4.877  20.461  0.00  0.00    +0.000 C 
ATOM     12  C   UNL     1       3.839   4.046  19.764  0.00  0.00    +0.000 C 
ENDBRANCH   1   3
BRANCH   1  13
ATOM     13  N   UNL     1       3.712   6.623  17.460  0.00  0.00    +0.000 N 
ATOM     14  H   UNL     1       2.979   6.571  16.763  0.00  0.00    +0.000 HD
BRANCH  13  20
ATOM     15  C   UNL     1       6.247   3.908  14.134  0.00  0.00    +0.000 C 
ATOM     16  C   UNL     1       6.222   4.671  15.425  0.00  0.00    +0.000 A 
ATOM     17  C   UNL     1       7.342   4.768  16.249  0.00  0.00    +0.000 A 
ATOM     18  C   UNL     1       7.260   5.471  17.450  0.00  0.00    +0.000 A 
ATOM     19  C   UNL     1       6.061   6.090  17.832  0.00  0.00    +0.000 A 
ATOM     20  C   UNL     1       4.924   6.034  17.012  0.00  0.00    +0.000 A 
ATOM     21  C   UNL     1       5.029   5.294  15.822  0.00  0.00    +0.000 A 
ENDBRANCH  13  20
ENDBRANCH   1  13
TORSDOF 3
ENDMDL
MODEL 3
REMARK VINA RESULT:      -8.2      0.087      1.676
REMARK  Name = 
REMARK  4 active torsions:
REMARK  status: ('A' for Active; 'I' for Inactive)
REMARK    1  A    between atoms: C_1  and  C_2
REMARK    2  A    between atoms: C_6  and  N_7
REMARK    3  A    between atoms: N_7  and  S_8
REMARK    4  A    between atoms: S_8  and  C_10
REMARK                            x       y       z     vdW  Elec       q    Type
REMARK                         _______ _______ _______ _____ _____    ______ ____
ROOT
ATOM      1  S   UNL     1       3.302   6.661  19.040  0.00  0.00    +0.000 S 
ATOM      2  O   UNL     1       2.110   7.646  19.297  0.00  0.00    +0.000 OA
ENDROOT
BRANCH   1   3
ATOM      3  C   UNL     1       2.741   4.958  19.398  0.00  0.00    +0.000 C 
ATOM      4  C   UNL     1       1.710   4.930  20.545  0.00  0.00    +0.000 C 
ATOM      5  C   UNL     1       1.177   3.496  20.743  0.00  0.00    +0.000 C 
ATOM      6  C   UNL     1       0.501   3.018  19.448  0.00  0.00    +0.000 C 
ATOM      7  C   UNL     1       1.516   3.022  18.295  0.00  0.00    +0.000 C 
ATOM      8  C   UNL     1       2.693   2.097  18.636  0.00  0.00    +0.000 C 
ATOM      9  C   UNL     1       3.379   2.572  19.930  0.00  0.00    +0.000 C 
ATOM     10  C   UNL     1       2.350   2.558  21.074  0.00  0.00    +0.000 C 
ATOM     11  C   UNL     1       3.908   4.008  19.736  0.00  0.00    +0.000 C 
ATOM     12  C   UNL     1       2.045   4.448  18.105  0.00  0.00    +0.000 C 
ENDBRANCH   1   3
BRANCH   1  13
ATOM     13  N   UNL     1       3.699   6.619  17.421  0.00  0.00    +0.000 N 
ATOM     14  H   UNL     1       2.958   6.523  16.736  0.00  0.00    +0.000 HD
BRANCH  13  20
ATOM     15  C   UNL     1       6.264   3.895  14.124  0.00  0.00    +0.000 C 
ATOM     16  C   UNL     1       6.230   4.673  15.406  0.00  0.00    +0.000 A 
ATOM     17  C   UNL     1       7.350   4.793  16.227  0.00  0.00    +0.000 A 
ATOM     18  C   UNL     1       7.261   5.509  17.421  0.00  0.00    +0.000 A 
ATOM     19  C   UNL     1       6.055   6.118  17.796  0.00  0.00    +0.000 A 
ATOM     20  C   UNL     1       4.918   6.039  16.978  0.00  0.00    +0.000 A 
ATOM     21  C   UNL     1       5.031   5.286  15.797  0.00  0.00    +0.000 A 
ENDBRANCH  13  20
ENDBRANCH   1  13
TORSDOF 3
ENDMDL
MODEL 4
REMARK VINA RESULT:      -8.0      2.191      3.346
REMARK  Name = 
REMARK  4 active torsions:
REMARK  status: ('A' for Active; 'I' for Inactive)
REMARK    1  A    between atoms: C_1  and  C_2
REMARK    2  A    between atoms: C_6  and  N_7
REMARK    3  A    between atoms: N_7  and  S_8
REMARK    4  A    between atoms: S_8  and  C_10
REMARK                            x       y       z     vdW  Elec       q    Type
REMARK                         _______ _______ _______ _____ _____    ______ ____
ROOT
ATOM      1  S   UNL     1       5.770   5.833  16.751  0.00  0.00    +0.000 S 
ATOM      2  O   UNL     1       5.182   6.817  15.682  0.00  0.00    +0.000 OA
ENDROOT
BRANCH   1   3
ATOM      3  C   UNL     1       4.385   4.989  17.594  0.00  0.00    +0.000 C 
ATOM      4  C   UNL     1       3.811   3.844  16.735  0.00  0.00    +0.000 C 
ATOM      5  C   UNL     1       2.724   3.085  17.523  0.00  0.00    +0.000 C 
ATOM      6  C   UNL     1       3.337   2.495  18.803  0.00  0.00    +0.000 C 
ATOM      7  C   UNL     1       3.900   3.621  19.682  0.00  0.00    +0.000 C 
ATOM      8  C   UNL     1       2.777   4.603  20.051  0.00  0.00    +0.000 C 
ATOM      9  C   UNL     1       2.161   5.202  18.774  0.00  0.00    +0.000 C 
ATOM     10  C   UNL     1       1.599   4.062  17.908  0.00  0.00    +0.000 C 
ATOM     11  C   UNL     1       3.249   5.957  17.982  0.00  0.00    +0.000 C 
ATOM     12  C   UNL     1       4.977   4.374  18.893  0.00  0.00    +0.000 C 
ENDBRANCH   1   3
BRANCH   1  13
ATOM     13  N   UNL     1       6.608   4.591  16.017  0.00  0.00    +0.000 N 
ATOM     14  H   UNL     1       7.412   4.195  16.492  0.00  0.00    +0.000 HD
BRANCH  13  20
ATOM     15  C   UNL     1       5.382   2.507  11.657  0.00  0.00    +0.000 C 
ATOM     16  C   UNL     1       6.192   3.508  12.425  0.00  0.00    +0.000 A 
ATOM     17  C   UNL     1       7.124   4.338  11.804  0.00  0.00    +0.000 A 
ATOM     18  C   UNL     1       7.869   5.237  12.566  0.00  0.00    +0.000 A 
ATOM     19  C   UNL     1       7.679   5.320  13.953  0.00  0.00    +0.000 A 
ATOM     20  C   UNL     1       6.729   4.519  14.604  0.00  0.00    +0.000 A 
ATOM     21  C   UNL     1       6.016   3.603  13.813  0.00  0.00    +0.000 A 
ENDBRANCH  13  20
ENDBRANCH   1  13
TORSDOF 3
ENDMDL
MODEL 5
REMARK VINA RESULT:      -8.0      2.185      3.121
REMARK  Name = 
REMARK  4 active torsions:
REMARK  status: ('A' for Active; 'I' for Inactive)
REMARK    1  A    between atoms: C_1  and  C_2
REMARK    2  A    between atoms: C_6  and  N_7
REMARK    3  A    between atoms: N_7  and  S_8
REMARK    4  A    between atoms: S_8  and  C_10
REMARK                            x       y       z     vdW  Elec       q    Type
REMARK                         _______ _______ _______ _____ _____    ______ ____
ROOT
ATOM      1  S   UNL     1       5.799   5.798  16.798  0.00  0.00    +0.000 S 
ATOM      2  O   UNL     1       5.175   6.770  15.739  0.00  0.00    +0.000 OA
ENDROOT
BRANCH   1   3
ATOM      3  C   UNL     1       4.445   4.908  17.645  0.00  0.00    +0.000 C 
ATOM      4  C   UNL     1       4.918   4.292  18.978  0.00  0.00    +0.000 C 
ATOM      5  C   UNL     1       3.726   3.649  19.716  0.00  0.00    +0.000 C 
ATOM      6  C   UNL     1       2.664   4.722  20.006  0.00  0.00    +0.000 C 
ATOM      7  C   UNL     1       2.167   5.337  18.689  0.00  0.00    +0.000 C 
ATOM      8  C   UNL     1       1.564   4.240  17.799  0.00  0.00    +0.000 C 
ATOM      9  C   UNL     1       2.623   3.163  17.500  0.00  0.00    +0.000 C 
ATOM     10  C   UNL     1       3.107   2.556  18.827  0.00  0.00    +0.000 C 
ATOM     11  C   UNL     1       3.819   3.806  16.766  0.00  0.00    +0.000 C 
ATOM     12  C   UNL     1       3.355   5.971  17.959  0.00  0.00    +0.000 C 
ENDBRANCH   1   3
BRANCH   1  13
ATOM     13  N   UNL     1       6.669   4.586  16.052  0.00  0.00    +0.000 N 
ATOM     14  H   UNL     1       7.493   4.219  16.514  0.00  0.00    +0.000 HD
BRANCH  13  20
ATOM     15  C   UNL     1       5.383   2.512  11.704  0.00  0.00    +0.000 C 
ATOM     16  C   UNL     1       6.204   3.511  12.463  0.00  0.00    +0.000 A 
ATOM     17  C   UNL     1       7.128   4.342  11.832  0.00  0.00    +0.000 A 
ATOM     18  C   UNL     1       7.883   5.240  12.586  0.00  0.00    +0.000 A 
ATOM     19  C   UNL     1       7.712   5.320  13.975  0.00  0.00    +0.000 A 
ATOM     20  C   UNL     1       6.770   4.518  14.637  0.00  0.00    +0.000 A 
ATOM     21  C   UNL     1       6.046   3.603  13.854  0.00  0.00    +0.000 A 
ENDBRANCH  13  20
ENDBRANCH   1  13
TORSDOF 3
ENDMDL
MODEL 6
REMARK VINA RESULT:      -8.0      3.174      5.506
REMARK  Name = 
REMARK  4 active torsions:
REMARK  status: ('A' for Active; 'I' for Inactive)
REMARK    1  A    between atoms: C_1  and  C_2
REMARK    2  A    between atoms: C_6  and  N_7
REMARK    3  A    between atoms: N_7  and  S_8
REMARK    4  A    between atoms: S_8  and  C_10
REMARK                            x       y       z     vdW  Elec       q    Type
REMARK                         _______ _______ _______ _____ _____    ______ ____
ROOT
ATOM      1  S   UNL     1       2.495   6.619  18.652  0.00  0.00    +0.000 S 
ATOM      2  O   UNL     1       3.886   6.907  17.988  0.00  0.00    +0.000 OA
ENDROOT
BRANCH   1   3
ATOM      3  C   UNL     1       2.386   4.834  19.033  0.00  0.00    +0.000 C 
ATOM      4  C   UNL     1       3.742   4.273  19.508  0.00  0.00    +0.000 C 
ATOM      5  C   UNL     1       3.584   2.796  19.927  0.00  0.00    +0.000 C 
ATOM      6  C   UNL     1       2.568   2.695  21.075  0.00  0.00    +0.000 C 
ATOM      7  C   UNL     1       1.205   3.234  20.617  0.00  0.00    +0.000 C 
ATOM      8  C   UNL     1       0.705   2.426  19.410  0.00  0.00    +0.000 C 
ATOM      9  C   UNL     1       1.716   2.526  18.254  0.00  0.00    +0.000 C 
ATOM     10  C   UNL     1       3.073   1.979  18.728  0.00  0.00    +0.000 C 
ATOM     11  C   UNL     1       1.878   4.003  17.837  0.00  0.00    +0.000 C 
ATOM     12  C   UNL     1       1.367   4.700  20.198  0.00  0.00    +0.000 C 
ENDBRANCH   1   3
BRANCH   1  13
ATOM     13  N   UNL     1       2.386   7.354  20.145  0.00  0.00    +0.000 N 
ATOM     14  H   UNL     1       2.512   6.791  20.978  0.00  0.00    +0.000 HD
BRANCH  13  20
ATOM     15  C   UNL     1      -0.638   9.965  23.129  0.00  0.00    +0.000 C 
ATOM     16  C   UNL     1      -0.026   9.758  21.775  0.00  0.00    +0.000 A 
ATOM     17  C   UNL     1      -0.343  10.570  20.688  0.00  0.00    +0.000 A 
ATOM     18  C   UNL     1       0.237  10.322  19.444  0.00  0.00    +0.000 A 
ATOM     19  C   UNL     1       1.146   9.267  19.282  0.00  0.00    +0.000 A 
ATOM     20  C   UNL     1       1.508   8.449  20.363  0.00  0.00    +0.000 A 
ATOM     21  C   UNL     1       0.884   8.705  21.595  0.00  0.00    +0.000 A 
ENDBRANCH  13  20
ENDBRANCH   1  13
TORSDOF 3
ENDMDL
MODEL 7
REMARK VINA RESULT:      -7.9      2.140      3.456
REMARK  Name = 
REMARK  4 active torsions:
REMARK  status: ('A' for Active; 'I' for Inactive)
REMARK    1  A    between atoms: C_1  and  C_2
REMARK    2  A    between atoms: C_6  and  N_7
REMARK    3  A    between atoms: N_7  and  S_8
REMARK    4  A    between atoms: S_8  and  C_10
REMARK                            x       y       z     vdW  Elec       q    Type
REMARK                         _______ _______ _______ _____ _____    ______ ____
ROOT
ATOM      1  S   UNL     1       5.676   5.643  16.873  0.00  0.00    +0.000 S 
ATOM      2  O   UNL     1       4.988   6.599  15.838  0.00  0.00    +0.000 OA
ENDROOT
BRANCH   1   3
ATOM      3  C   UNL     1       4.375   4.779  17.826  0.00  0.00    +0.000 C 
ATOM      4  C   UNL     1       3.244   5.742  18.240  0.00  0.00    +0.000 C 
ATOM      5  C   UNL     1       2.115   4.958  18.941  0.00  0.00    +0.000 C 
ATOM      6  C   UNL     1       1.549   3.902  17.978  0.00  0.00    +0.000 C 
ATOM      7  C   UNL     1       2.658   2.923  17.566  0.00  0.00    +0.000 C 
ATOM      8  C   UNL     1       3.232   2.232  18.812  0.00  0.00    +0.000 C 
ATOM      9  C   UNL     1       3.805   3.284  19.780  0.00  0.00    +0.000 C 
ATOM     10  C   UNL     1       2.681   4.253  20.186  0.00  0.00    +0.000 C 
ATOM     11  C   UNL     1       4.931   4.071  19.078  0.00  0.00    +0.000 C 
ATOM     12  C   UNL     1       3.779   3.706  16.873  0.00  0.00    +0.000 C 
ENDBRANCH   1   3
BRANCH   1  13
ATOM     13  N   UNL     1       6.486   4.410  16.095  0.00  0.00    +0.000 N 
ATOM     14  H   UNL     1       7.264   3.962  16.566  0.00  0.00    +0.000 HD
BRANCH  13  20
ATOM     15  C   UNL     1       5.274   2.613  11.605  0.00  0.00    +0.000 C 
ATOM     16  C   UNL     1       6.109   3.534  12.442  0.00  0.00    +0.000 A 
ATOM     17  C   UNL     1       7.093   4.351  11.886  0.00  0.00    +0.000 A 
ATOM     18  C   UNL     1       7.858   5.174  12.711  0.00  0.00    +0.000 A 
ATOM     19  C   UNL     1       7.639   5.195  14.096  0.00  0.00    +0.000 A 
ATOM     20  C   UNL     1       6.638   4.406  14.683  0.00  0.00    +0.000 A 
ATOM     21  C   UNL     1       5.904   3.565  13.829  0.00  0.00    +0.000 A 
ENDBRANCH  13  20
ENDBRANCH   1  13
TORSDOF 3
ENDMDL
MODEL 8
REMARK VINA RESULT:      -7.9      3.186      5.750
REMARK  Name = 
REMARK  4 active torsions:
REMARK  status: ('A' for Active; 'I' for Inactive)
REMARK    1  A    between atoms: C_1  and  C_2
REMARK    2  A    between atoms: C_6  and  N_7
REMARK    3  A    between atoms: N_7  and  S_8
REMARK    4  A    between atoms: S_8  and  C_10
REMARK                            x       y       z     vdW  Elec       q    Type
REMARK                         _______ _______ _______ _____ _____    ______ ____
ROOT
ATOM      1  S   UNL     1       2.500   6.611  18.694  0.00  0.00    +0.000 S 
ATOM      2  O   UNL     1       3.926   6.803  18.072  0.00  0.00    +0.000 OA
ENDROOT
BRANCH   1   3
ATOM      3  C   UNL     1       2.267   4.841  19.091  0.00  0.00    +0.000 C 
ATOM      4  C   UNL     1       1.849   4.033  17.846  0.00  0.00    +0.000 C 
ATOM      5  C   UNL     1       1.772   2.531  18.192  0.00  0.00    +0.000 C 
ATOM      6  C   UNL     1       3.150   2.045  18.668  0.00  0.00    +0.000 C 
ATOM      7  C   UNL     1       3.579   2.827  19.919  0.00  0.00    +0.000 C 
ATOM      8  C   UNL     1       2.544   2.627  21.036  0.00  0.00    +0.000 C 
ATOM      9  C   UNL     1       1.162   3.116  20.569  0.00  0.00    +0.000 C 
ATOM     10  C   UNL     1       0.747   2.321  19.319  0.00  0.00    +0.000 C 
ATOM     11  C   UNL     1       1.238   4.617  20.217  0.00  0.00    +0.000 C 
ATOM     12  C   UNL     1       3.650   4.318  19.570  0.00  0.00    +0.000 C 
ENDBRANCH   1   3
BRANCH   1  13
ATOM     13  N   UNL     1       2.391   7.370  20.175  0.00  0.00    +0.000 N 
ATOM     14  H   UNL     1       2.529   6.823  21.018  0.00  0.00    +0.000 HD
BRANCH  13  20
ATOM     15  C   UNL     1      -0.661   9.984  23.128  0.00  0.00    +0.000 C 
ATOM     16  C   UNL     1      -0.047   9.767  21.777  0.00  0.00    +0.000 A 
ATOM     17  C   UNL     1      -0.373  10.563  20.680  0.00  0.00    +0.000 A 
ATOM     18  C   UNL     1       0.210  10.306  19.439  0.00  0.00    +0.000 A 
ATOM     19  C   UNL     1       1.130   9.259  19.290  0.00  0.00    +0.000 A 
ATOM     20  C   UNL     1       1.501   8.458  20.380  0.00  0.00    +0.000 A 
ATOM     21  C   UNL     1       0.874   8.723  21.610  0.00  0.00    +0.000 A 
ENDBRANCH  13  20
ENDBRANCH   1  13
TORSDOF 3
ENDMDL
MODEL 9
REMARK VINA RESULT:      -7.9      3.177      5.774
REMARK  Name = 
REMARK  4 active torsions:
REMARK  status: ('A' for Active; 'I' for Inactive)
REMARK    1  A    between atoms: C_1  and  C_2
REMARK    2  A    between atoms: C_6  and  N_7
REMARK    3  A    between atoms: N_7  and  S_8
REMARK    4  A    between atoms: S_8  and  C_10
REMARK                            x       y       z     vdW  Elec       q    Type
REMARK                         _______ _______ _______ _____ _____    ______ ____
ROOT
ATOM      1  S   UNL     1       2.524   6.600  18.706  0.00  0.00    +0.000 S 
ATOM      2  O   UNL     1       3.918   6.856  18.035  0.00  0.00    +0.000 OA
ENDROOT
BRANCH   1   3
ATOM      3  C   UNL     1       2.402   4.829  19.145  0.00  0.00    +0.000 C 
ATOM      4  C   UNL     1       1.321   4.585  20.218  0.00  0.00    +0.000 C 
ATOM      5  C   UNL     1       1.169   3.072  20.479  0.00  0.00    +0.000 C 
ATOM      6  C   UNL     1       0.756   2.366  19.178  0.00  0.00    +0.000 C 
ATOM      7  C   UNL     1       1.828   2.584  18.101  0.00  0.00    +0.000 C 
ATOM      8  C   UNL     1       3.174   2.026  18.588  0.00  0.00    +0.000 C 
ATOM      9  C   UNL     1       3.597   2.731  19.888  0.00  0.00    +0.000 C 
ATOM     10  C   UNL     1       2.515   2.501  20.957  0.00  0.00    +0.000 C 
ATOM     11  C   UNL     1       3.745   4.245  19.629  0.00  0.00    +0.000 C 
ATOM     12  C   UNL     1       1.978   4.088  17.847  0.00  0.00    +0.000 C 
ENDBRANCH   1   3
BRANCH   1  13
ATOM     13  N   UNL     1       2.419   7.385  20.174  0.00  0.00    +0.000 N 
ATOM     14  H   UNL     1       2.578   6.856  21.024  0.00  0.00    +0.000 HD
BRANCH  13  20
ATOM     15  C   UNL     1      -0.671   9.976  23.107  0.00  0.00    +0.000 C 
ATOM     16  C   UNL     1      -0.055   9.756  21.757  0.00  0.00    +0.000 A 
ATOM     17  C   UNL     1      -0.397  10.535  20.653  0.00  0.00    +0.000 A 
ATOM     18  C   UNL     1       0.187  10.276  19.414  0.00  0.00    +0.000 A 
ATOM     19  C   UNL     1       1.125   9.243  19.272  0.00  0.00    +0.000 A 
ATOM     20  C   UNL     1       1.512   8.459  20.370  0.00  0.00    +0.000 A 
ATOM     21  C   UNL     1       0.883   8.725  21.598  0.00  0.00    +0.000 A 
ENDBRANCH  13  20
ENDBRANCH   1  13
TORSDOF 3
ENDMDL
