MODEL 1
REMARK VINA RESULT:      -8.3      0.000      0.000
REMARK  Name = 
REMARK  5 active torsions:
REMARK  status: ('A' for Active; 'I' for Inactive)
REMARK    1  A    between atoms: C_1  and  O_2
REMARK    2  A    between atoms: O_2  and  C_3
REMARK    3  A    between atoms: C_5  and  O_6
REMARK    4  A    between atoms: O_6  and  C_7
REMARK    5  A    between atoms: C_9  and  C_10
REMARK                            x       y       z     vdW  Elec       q    Type
REMARK                         _______ _______ _______ _____ _____    ______ ____
ROOT
ATOM      1  C   UNL     1       3.923   4.917  18.813  0.00  0.00    +0.000 A 
ATOM      2  N   UNL     1       3.599   3.863  19.531  0.00  0.00    +0.000 NA
ATOM      3  N   UNL     1       2.676   4.296  20.455  0.00  0.00    +0.000 NA
ATOM      4  C   UNL     1       2.490   5.580  20.235  0.00  0.00    +0.000 A 
ATOM      5  N   UNL     1       1.689   6.407  20.919  0.00  0.00    +0.000 N 
ATOM      6  C   UNL     1       1.332   7.699  20.773  0.00  0.00    +0.000 A 
ATOM      7  N   UNL     1       0.534   8.241  21.661  0.00  0.00    +0.000 NA
ATOM      8  C   UNL     1       0.235   9.555  21.342  0.00  0.00    +0.000 A 
ATOM      9  C   UNL     1      -0.593  10.433  22.070  0.00  0.00    +0.000 A 
ATOM     10  F   UNL     1      -1.180  10.030  23.207  0.00  0.00    +0.000 F 
ATOM     11  C   UNL     1      -0.821  11.734  21.623  0.00  0.00    +0.000 A 
ATOM     12  C   UNL     1      -0.231  12.177  20.444  0.00  0.00    +0.000 A 
ATOM     13  C   UNL     1       0.604  11.332  19.700  0.00  0.00    +0.000 A 
ATOM     14  C   UNL     1       0.828  10.024  20.170  0.00  0.00    +0.000 A 
ATOM     15  S   UNL     1       1.794   8.763  19.499  0.00  0.00    +0.000 S 
ATOM     16  O   UNL     1       3.250   6.046  19.200  0.00  0.00    +0.000 OA
ATOM     17  H   UNL     1       1.238   5.969  21.715  0.00  0.00    +0.000 HD
ENDROOT
BRANCH   1  22
ATOM     18  C   UNL     1       5.676   4.246  15.541  0.00  0.00    +0.000 A 
ATOM     19  C   UNL     1       6.664   5.233  15.583  0.00  0.00    +0.000 A 
ATOM     20  C   UNL     1       6.761   6.105  16.667  0.00  0.00    +0.000 A 
ATOM     21  C   UNL     1       5.832   6.015  17.703  0.00  0.00    +0.000 A 
ATOM     22  C   UNL     1       4.837   5.024  17.686  0.00  0.00    +0.000 A 
ATOM     23  C   UNL     1       4.764   4.150  16.591  0.00  0.00    +0.000 A 
BRANCH  18  25
ATOM     24  C   UNL     1       6.420   3.918  13.301  0.00  0.00    +0.000 C 
ATOM     25  O   UNL     1       5.724   3.431  14.442  0.00  0.00    +0.000 OA
ENDBRANCH  18  25
BRANCH  20  26
ATOM     26  O   UNL     1       7.780   7.015  16.611  0.00  0.00    +0.000 OA
ATOM     27  C   UNL     1       7.728   8.049  17.590  0.00  0.00    +0.000 C 
ENDBRANCH  20  26
ENDBRANCH   1  22
TORSDOF 3
ENDMDL
MODEL 2
REMARK VINA RESULT:      -8.1      0.152      2.329
REMARK  Name = 
REMARK  5 active torsions:
REMARK  status: ('A' for Active; 'I' for Inactive)
REMARK    1  A    between atoms: C_1  and  O_2
REMARK    2  A    between atoms: O_2  and  C_3
REMARK    3  A    between atoms: C_5  and  O_6
REMARK    4  A    between atoms: O_6  and  C_7
REMARK    5  A    between atoms: C_9  and  C_10
REMARK                            x       y       z     vdW  Elec       q    Type
REMARK                         _______ _______ _______ _____ _____    ______ ____
ROOT
ATOM      1  C   UNL     1       3.896   4.971  18.956  0.00  0.00    +0.000 A 
ATOM      2  N   UNL     1       3.535   3.910  19.648  0.00  0.00    +0.000 NA
ATOM      3  N   UNL     1       2.588   4.343  20.547  0.00  0.00    +0.000 NA
ATOM      4  C   UNL     1       2.425   5.632  20.340  0.00  0.00    +0.000 A 
ATOM      5  N   UNL     1       1.613   6.459  21.011  0.00  0.00    +0.000 N 
ATOM      6  C   UNL     1       1.277   7.758  20.873  0.00  0.00    +0.000 A 
ATOM      7  N   UNL     1       0.456   8.297  21.742  0.00  0.00    +0.000 NA
ATOM      8  C   UNL     1       0.185   9.619  21.433  0.00  0.00    +0.000 A 
ATOM      9  C   UNL     1      -0.655  10.497  22.147  0.00  0.00    +0.000 A 
ATOM     10  F   UNL     1      -1.284  10.085  23.259  0.00  0.00    +0.000 F 
ATOM     11  C   UNL     1      -0.853  11.808  21.712  0.00  0.00    +0.000 A 
ATOM     12  C   UNL     1      -0.219  12.259  20.560  0.00  0.00    +0.000 A 
ATOM     13  C   UNL     1       0.630  11.415  19.831  0.00  0.00    +0.000 A 
ATOM     14  C   UNL     1       0.822  10.097  20.288  0.00  0.00    +0.000 A 
ATOM     15  S   UNL     1       1.793   8.834  19.630  0.00  0.00    +0.000 S 
ATOM     16  O   UNL     1       3.224   6.103  19.338  0.00  0.00    +0.000 OA
ATOM     17  H   UNL     1       1.130   6.015  21.785  0.00  0.00    +0.000 HD
ENDROOT
BRANCH   1  22
ATOM     18  C   UNL     1       6.748   6.156  16.792  0.00  0.00    +0.000 A 
ATOM     19  C   UNL     1       6.602   5.299  15.699  0.00  0.00    +0.000 A 
ATOM     20  C   UNL     1       5.583   4.347  15.665  0.00  0.00    +0.000 A 
ATOM     21  C   UNL     1       4.724   4.225  16.757  0.00  0.00    +0.000 A 
ATOM     22  C   UNL     1       4.847   5.083  17.861  0.00  0.00    +0.000 A 
ATOM     23  C   UNL     1       5.873   6.041  17.870  0.00  0.00    +0.000 A 
BRANCH  18  25
ATOM     24  C   UNL     1       7.777   8.146  17.606  0.00  0.00    +0.000 C 
ATOM     25  O   UNL     1       7.761   7.070  16.674  0.00  0.00    +0.000 OA
ENDBRANCH  18  25
BRANCH  20  26
ATOM     26  O   UNL     1       5.523   3.578  14.536  0.00  0.00    +0.000 OA
ATOM     27  C   UNL     1       6.408   3.965  13.488  0.00  0.00    +0.000 C 
ENDBRANCH  20  26
ENDBRANCH   1  22
TORSDOF 3
ENDMDL
MODEL 3
REMARK VINA RESULT:      -7.6      3.122      4.716
REMARK  Name = 
REMARK  5 active torsions:
REMARK  status: ('A' for Active; 'I' for Inactive)
REMARK    1  A    between atoms: C_1  and  O_2
REMARK    2  A    between atoms: O_2  and  C_3
REMARK    3  A    between atoms: C_5  and  O_6
REMARK    4  A    between atoms: O_6  and  C_7
REMARK    5  A    between atoms: C_9  and  C_10
REMARK                            x       y       z     vdW  Elec       q    Type
REMARK                         _______ _______ _______ _____ _____    ______ ____
ROOT
ATOM      1  C   UNL     1       2.457   7.762  18.467  0.00  0.00    +0.000 A 
ATOM      2  N   UNL     1       2.899   8.331  17.365  0.00  0.00    +0.000 NA
ATOM      3  N   UNL     1       2.310   9.573  17.311  0.00  0.00    +0.000 NA
ATOM      4  C   UNL     1       1.557   9.686  18.385  0.00  0.00    +0.000 A 
ATOM      5  N   UNL     1       0.786  10.727  18.721  0.00  0.00    +0.000 N 
ATOM      6  C   UNL     1       0.035  11.027  19.802  0.00  0.00    +0.000 A 
ATOM      7  N   UNL     1      -0.650  12.145  19.808  0.00  0.00    +0.000 NA
ATOM      8  C   UNL     1      -1.330  12.318  21.002  0.00  0.00    +0.000 A 
ATOM      9  C   UNL     1      -2.157  13.404  21.352  0.00  0.00    +0.000 A 
ATOM     10  F   UNL     1      -2.364  14.408  20.487  0.00  0.00    +0.000 F 
ATOM     11  C   UNL     1      -2.772  13.458  22.603  0.00  0.00    +0.000 A 
ATOM     12  C   UNL     1      -2.569  12.434  23.521  0.00  0.00    +0.000 A 
ATOM     13  C   UNL     1      -1.760  11.335  23.202  0.00  0.00    +0.000 A 
ATOM     14  C   UNL     1      -1.151  11.294  21.933  0.00  0.00    +0.000 A 
ATOM     15  S   UNL     1      -0.121  10.096  21.243  0.00  0.00    +0.000 S 
ATOM     16  O   UNL     1       1.603   8.570  19.172  0.00  0.00    +0.000 OA
ATOM     17  H   UNL     1       0.768  11.462  18.023  0.00  0.00    +0.000 HD
ENDROOT
BRANCH   1  22
ATOM     18  C   UNL     1       2.229   4.557  20.442  0.00  0.00    +0.000 A 
ATOM     19  C   UNL     1       3.465   3.986  20.130  0.00  0.00    +0.000 A 
ATOM     20  C   UNL     1       4.365   4.640  19.288  0.00  0.00    +0.000 A 
ATOM     21  C   UNL     1       4.007   5.861  18.720  0.00  0.00    +0.000 A 
ATOM     22  C   UNL     1       2.774   6.457  19.028  0.00  0.00    +0.000 A 
ATOM     23  C   UNL     1       1.887   5.788  19.885  0.00  0.00    +0.000 A 
BRANCH  18  25
ATOM     24  C   UNL     1       1.936   2.536  21.672  0.00  0.00    +0.000 C 
ATOM     25  O   UNL     1       1.463   3.829  21.314  0.00  0.00    +0.000 OA
ENDBRANCH  18  25
BRANCH  20  26
ATOM     26  O   UNL     1       5.553   3.998  19.072  0.00  0.00    +0.000 OA
ATOM     27  C   UNL     1       6.424   4.626  18.135  0.00  0.00    +0.000 C 
ENDBRANCH  20  26
ENDBRANCH   1  22
TORSDOF 3
ENDMDL
MODEL 4
REMARK VINA RESULT:      -7.6      3.151      4.805
REMARK  Name = 
REMARK  5 active torsions:
REMARK  status: ('A' for Active; 'I' for Inactive)
REMARK    1  A    between atoms: C_1  and  O_2
REMARK    2  A    between atoms: O_2  and  C_3
REMARK    3  A    between atoms: C_5  and  O_6
REMARK    4  A    between atoms: O_6  and  C_7
REMARK    5  A    between atoms: C_9  and  C_10
REMARK                            x       y       z     vdW  Elec       q    Type
REMARK                         _______ _______ _______ _____ _____    ______ ____
ROOT
ATOM      1  C   UNL     1       2.423   7.831  18.497  0.00  0.00    +0.000 A 
ATOM      2  N   UNL     1       2.827   8.391  17.377  0.00  0.00    +0.000 NA
ATOM      3  N   UNL     1       2.202   9.614  17.312  0.00  0.00    +0.000 NA
ATOM      4  C   UNL     1       1.467   9.726  18.397  0.00  0.00    +0.000 A 
ATOM      5  N   UNL     1       0.672  10.751  18.730  0.00  0.00    +0.000 N 
ATOM      6  C   UNL     1      -0.066  11.049  19.819  0.00  0.00    +0.000 A 
ATOM      7  N   UNL     1      -0.784  12.147  19.818  0.00  0.00    +0.000 NA
ATOM      8  C   UNL     1      -1.446  12.323  21.021  0.00  0.00    +0.000 A 
ATOM      9  C   UNL     1      -2.297  13.391  21.368  0.00  0.00    +0.000 A 
ATOM     10  F   UNL     1      -2.549  14.373  20.490  0.00  0.00    +0.000 F 
ATOM     11  C   UNL     1      -2.890  13.451  22.629  0.00  0.00    +0.000 A 
ATOM     12  C   UNL     1      -2.640  12.450  23.562  0.00  0.00    +0.000 A 
ATOM     13  C   UNL     1      -1.806  11.369  23.247  0.00  0.00    +0.000 A 
ATOM     14  C   UNL     1      -1.220  11.322  21.967  0.00  0.00    +0.000 A 
ATOM     15  S   UNL     1      -0.169  10.141  21.280  0.00  0.00    +0.000 S 
ATOM     16  O   UNL     1       1.559   8.627  19.203  0.00  0.00    +0.000 OA
ATOM     17  H   UNL     1       0.620  11.472  18.019  0.00  0.00    +0.000 HD
ENDROOT
BRANCH   1  22
ATOM     18  C   UNL     1       4.346   4.702  19.356  0.00  0.00    +0.000 A 
ATOM     19  C   UNL     1       3.406   4.044  20.153  0.00  0.00    +0.000 A 
ATOM     20  C   UNL     1       2.157   4.613  20.405  0.00  0.00    +0.000 A 
ATOM     21  C   UNL     1       1.861   5.872  19.886  0.00  0.00    +0.000 A 
ATOM     22  C   UNL     1       2.788   6.546  19.075  0.00  0.00    +0.000 A 
ATOM     23  C   UNL     1       4.034   5.952  18.825  0.00  0.00    +0.000 A 
BRANCH  18  25
ATOM     24  C   UNL     1       6.356   4.457  18.100  0.00  0.00    +0.000 C 
ATOM     25  O   UNL     1       5.512   4.012  19.154  0.00  0.00    +0.000 OA
ENDBRANCH  18  25
BRANCH  20  26
ATOM     26  O   UNL     1       1.309   3.869  21.179  0.00  0.00    +0.000 OA
ATOM     27  C   UNL     1       1.815   2.601  21.590  0.00  0.00    +0.000 C 
ENDBRANCH  20  26
ENDBRANCH   1  22
TORSDOF 3
ENDMDL
MODEL 5
REMARK VINA RESULT:      -7.6      3.418      4.633
REMARK  Name = 
REMARK  5 active torsions:
REMARK  status: ('A' for Active; 'I' for Inactive)
REMARK    1  A    between atoms: C_1  and  O_2
REMARK    2  A    between atoms: O_2  and  C_3
REMARK    3  A    between atoms: C_5  and  O_6
REMARK    4  A    between atoms: O_6  and  C_7
REMARK    5  A    between atoms: C_9  and  C_10
REMARK                            x       y       z     vdW  Elec       q    Type
REMARK                         _______ _______ _______ _____ _____    ______ ____
ROOT
ATOM      1  C   UNL     1       2.497   7.554  18.240  0.00  0.00    +0.000 A 
ATOM      2  N   UNL     1       3.007   8.168  17.193  0.00  0.00    +0.000 NA
ATOM      3  N   UNL     1       2.513   9.451  17.223  0.00  0.00    +0.000 NA
ATOM      4  C   UNL     1       1.745   9.541  18.287  0.00  0.00    +0.000 A 
ATOM      5  N   UNL     1       1.045  10.610  18.688  0.00  0.00    +0.000 N 
ATOM      6  C   UNL     1       0.293  10.884  19.773  0.00  0.00    +0.000 A 
ATOM      7  N   UNL     1      -0.308  12.047  19.851  0.00  0.00    +0.000 NA
ATOM      8  C   UNL     1      -1.002  12.182  21.042  0.00  0.00    +0.000 A 
ATOM      9  C   UNL     1      -1.755  13.299  21.458  0.00  0.00    +0.000 A 
ATOM     10  F   UNL     1      -1.865  14.378  20.669  0.00  0.00    +0.000 F 
ATOM     11  C   UNL     1      -2.394  13.306  22.697  0.00  0.00    +0.000 A 
ATOM     12  C   UNL     1      -2.291  12.204  23.539  0.00  0.00    +0.000 A 
ATOM     13  C   UNL     1      -1.557  11.074  23.153  0.00  0.00    +0.000 A 
ATOM     14  C   UNL     1      -0.923  11.081  21.895  0.00  0.00    +0.000 A 
ATOM     15  S   UNL     1       0.033   9.864  21.137  0.00  0.00    +0.000 S 
ATOM     16  O   UNL     1       1.689   8.370  18.988  0.00  0.00    +0.000 OA
ATOM     17  H   UNL     1       1.099  11.394  18.047  0.00  0.00    +0.000 HD
ENDROOT
BRANCH   1  22
ATOM     18  C   UNL     1       3.419   3.898  18.334  0.00  0.00    +0.000 A 
ATOM     19  C   UNL     1       3.008   3.572  19.629  0.00  0.00    +0.000 A 
ATOM     20  C   UNL     1       2.433   4.533  20.462  0.00  0.00    +0.000 A 
ATOM     21  C   UNL     1       2.305   5.844  20.007  0.00  0.00    +0.000 A 
ATOM     22  C   UNL     1       2.703   6.191  18.706  0.00  0.00    +0.000 A 
ATOM     23  C   UNL     1       3.268   5.207  17.880  0.00  0.00    +0.000 A 
BRANCH  18  25
ATOM     24  C   UNL     1       3.568   1.538  18.031  0.00  0.00    +0.000 C 
ATOM     25  O   UNL     1       3.924   2.850  17.611  0.00  0.00    +0.000 OA
ENDBRANCH  18  25
BRANCH  20  26
ATOM     26  O   UNL     1       2.049   4.095  21.699  0.00  0.00    +0.000 OA
ATOM     27  C   UNL     1       1.630   2.734  21.761  0.00  0.00    +0.000 C 
ENDBRANCH  20  26
ENDBRANCH   1  22
TORSDOF 3
ENDMDL
MODEL 6
REMARK VINA RESULT:      -7.5      3.596      5.024
REMARK  Name = 
REMARK  5 active torsions:
REMARK  status: ('A' for Active; 'I' for Inactive)
REMARK    1  A    between atoms: C_1  and  O_2
REMARK    2  A    between atoms: O_2  and  C_3
REMARK    3  A    between atoms: C_5  and  O_6
REMARK    4  A    between atoms: O_6  and  C_7
REMARK    5  A    between atoms: C_9  and  C_10
REMARK                            x       y       z     vdW  Elec       q    Type
REMARK                         _______ _______ _______ _____ _____    ______ ____
ROOT
ATOM      1  C   UNL     1       2.329   7.649  18.274  0.00  0.00    +0.000 A 
ATOM      2  N   UNL     1       2.927   8.247  17.265  0.00  0.00    +0.000 NA
ATOM      3  N   UNL     1       2.524   9.561  17.304  0.00  0.00    +0.000 NA
ATOM      4  C   UNL     1       1.717   9.683  18.336  0.00  0.00    +0.000 A 
ATOM      5  N   UNL     1       1.077  10.791  18.732  0.00  0.00    +0.000 N 
ATOM      6  C   UNL     1       0.298  11.095  19.790  0.00  0.00    +0.000 A 
ATOM      7  N   UNL     1      -0.223  12.296  19.870  0.00  0.00    +0.000 NA
ATOM      8  C   UNL     1      -0.958  12.455  21.032  0.00  0.00    +0.000 A 
ATOM      9  C   UNL     1      -1.649  13.614  21.443  0.00  0.00    +0.000 A 
ATOM     10  F   UNL     1      -1.647  14.714  20.675  0.00  0.00    +0.000 F 
ATOM     11  C   UNL     1      -2.341  13.641  22.652  0.00  0.00    +0.000 A 
ATOM     12  C   UNL     1      -2.353  12.516  23.471  0.00  0.00    +0.000 A 
ATOM     13  C   UNL     1      -1.685  11.345  23.089  0.00  0.00    +0.000 A 
ATOM     14  C   UNL     1      -0.995  11.334  21.861  0.00  0.00    +0.000 A 
ATOM     15  S   UNL     1      -0.095  10.067  21.115  0.00  0.00    +0.000 S 
ATOM     16  O   UNL     1       1.547   8.505  19.005  0.00  0.00    +0.000 OA
ATOM     17  H   UNL     1       1.215  11.583  18.113  0.00  0.00    +0.000 HD
ENDROOT
BRANCH   1  22
ATOM     18  C   UNL     1       2.316   4.574  20.457  0.00  0.00    +0.000 A 
ATOM     19  C   UNL     1       2.668   3.602  19.518  0.00  0.00    +0.000 A 
ATOM     20  C   UNL     1       2.911   3.945  18.187  0.00  0.00    +0.000 A 
ATOM     21  C   UNL     1       2.760   5.271  17.784  0.00  0.00    +0.000 A 
ATOM     22  C   UNL     1       2.416   6.265  18.714  0.00  0.00    +0.000 A 
ATOM     23  C   UNL     1       2.187   5.900  20.050  0.00  0.00    +0.000 A 
BRANCH  18  25
ATOM     24  C   UNL     1       1.680   2.771  21.881  0.00  0.00    +0.000 C 
ATOM     25  O   UNL     1       2.150   4.106  21.734  0.00  0.00    +0.000 OA
ENDBRANCH  18  25
BRANCH  20  26
ATOM     26  O   UNL     1       3.271   2.915  17.362  0.00  0.00    +0.000 OA
ATOM     27  C   UNL     1       3.496   1.666  18.011  0.00  0.00    +0.000 C 
ENDBRANCH  20  26
ENDBRANCH   1  22
TORSDOF 3
ENDMDL
MODEL 7
REMARK VINA RESULT:      -7.3      3.728      8.326
REMARK  Name = 
REMARK  5 active torsions:
REMARK  status: ('A' for Active; 'I' for Inactive)
REMARK    1  A    between atoms: C_1  and  O_2
REMARK    2  A    between atoms: O_2  and  C_3
REMARK    3  A    between atoms: C_5  and  O_6
REMARK    4  A    between atoms: O_6  and  C_7
REMARK    5  A    between atoms: C_9  and  C_10
REMARK                            x       y       z     vdW  Elec       q    Type
REMARK                         _______ _______ _______ _____ _____    ______ ____
ROOT
ATOM      1  C   UNL     1       0.341   9.655  20.344  0.00  0.00    +0.000 A 
ATOM      2  N   UNL     1       0.194   9.296  21.601  0.00  0.00    +0.000 NA
ATOM      3  N   UNL     1       0.986   8.185  21.778  0.00  0.00    +0.000 NA
ATOM      4  C   UNL     1       1.571   7.945  20.625  0.00  0.00    +0.000 A 
ATOM      5  N   UNL     1       2.411   6.942  20.341  0.00  0.00    +0.000 N 
ATOM      6  C   UNL     1       3.143   6.611  19.257  0.00  0.00    +0.000 A 
ATOM      7  N   UNL     1       3.857   5.511  19.285  0.00  0.00    +0.000 NA
ATOM      8  C   UNL     1       4.578   5.342  18.115  0.00  0.00    +0.000 A 
ATOM      9  C   UNL     1       5.448   4.278  17.806  0.00  0.00    +0.000 A 
ATOM     10  F   UNL     1       5.643   3.282  18.683  0.00  0.00    +0.000 F 
ATOM     11  C   UNL     1       6.126   4.241  16.588  0.00  0.00    +0.000 A 
ATOM     12  C   UNL     1       5.948   5.264  15.663  0.00  0.00    +0.000 A 
ATOM     13  C   UNL     1       5.083   6.333  15.934  0.00  0.00    +0.000 A 
ATOM     14  C   UNL     1       4.402   6.351  17.167  0.00  0.00    +0.000 A 
ATOM     15  S   UNL     1       3.282   7.503  17.790  0.00  0.00    +0.000 S 
ATOM     16  O   UNL     1       1.211   8.844  19.662  0.00  0.00    +0.000 OA
ATOM     17  H   UNL     1       2.541   6.292  21.108  0.00  0.00    +0.000 HD
ENDROOT
BRANCH   1  22
ATOM     18  C   UNL     1      -1.880  11.694  18.077  0.00  0.00    +0.000 A 
ATOM     19  C   UNL     1      -1.288  12.952  18.217  0.00  0.00    +0.000 A 
ATOM     20  C   UNL     1      -0.175  13.133  19.039  0.00  0.00    +0.000 A 
ATOM     21  C   UNL     1       0.327  12.051  19.759  0.00  0.00    +0.000 A 
ATOM     22  C   UNL     1      -0.246  10.777  19.626  0.00  0.00    +0.000 A 
ATOM     23  C   UNL     1      -1.359  10.613  18.786  0.00  0.00    +0.000 A 
BRANCH  18  25
ATOM     24  C   UNL     1      -2.746  10.937  15.990  0.00  0.00    +0.000 C 
ATOM     25  O   UNL     1      -2.936  11.650  17.207  0.00  0.00    +0.000 OA
ENDBRANCH  18  25
BRANCH  20  26
ATOM     26  O   UNL     1       0.334  14.402  19.081  0.00  0.00    +0.000 OA
ATOM     27  C   UNL     1       1.739  14.488  19.299  0.00  0.00    +0.000 C 
ENDBRANCH  20  26
ENDBRANCH   1  22
TORSDOF 3
ENDMDL
MODEL 8
REMARK VINA RESULT:      -7.3      1.212      1.285
REMARK  Name = 
REMARK  5 active torsions:
REMARK  status: ('A' for Active; 'I' for Inactive)
REMARK    1  A    between atoms: C_1  and  O_2
REMARK    2  A    between atoms: O_2  and  C_3
REMARK    3  A    between atoms: C_5  and  O_6
REMARK    4  A    between atoms: O_6  and  C_7
REMARK    5  A    between atoms: C_9  and  C_10
REMARK                            x       y       z     vdW  Elec       q    Type
REMARK                         _______ _______ _______ _____ _____    ______ ____
ROOT
ATOM      1  C   UNL     1       3.153   4.816  19.491  0.00  0.00    +0.000 A 
ATOM      2  N   UNL     1       2.521   3.839  20.108  0.00  0.00    +0.000 NA
ATOM      3  N   UNL     1       1.553   4.436  20.881  0.00  0.00    +0.000 NA
ATOM      4  C   UNL     1       1.649   5.732  20.681  0.00  0.00    +0.000 A 
ATOM      5  N   UNL     1       0.912   6.693  21.254  0.00  0.00    +0.000 N 
ATOM      6  C   UNL     1       0.832   8.030  21.098  0.00  0.00    +0.000 A 
ATOM      7  N   UNL     1       0.009   8.710  21.862  0.00  0.00    +0.000 NA
ATOM      8  C   UNL     1       0.018  10.057  21.546  0.00  0.00    +0.000 A 
ATOM      9  C   UNL     1      -0.742  11.073  22.159  0.00  0.00    +0.000 A 
ATOM     10  F   UNL     1      -1.577  10.783  23.168  0.00  0.00    +0.000 F 
ATOM     11  C   UNL     1      -0.646  12.396  21.728  0.00  0.00    +0.000 A 
ATOM     12  C   UNL     1       0.207  12.724  20.680  0.00  0.00    +0.000 A 
ATOM     13  C   UNL     1       0.984  11.740  20.053  0.00  0.00    +0.000 A 
ATOM     14  C   UNL     1       0.878  10.411  20.505  0.00  0.00    +0.000 A 
ATOM     15  S   UNL     1       1.691   8.993  19.958  0.00  0.00    +0.000 S 
ATOM     16  O   UNL     1       2.646   6.051  19.803  0.00  0.00    +0.000 OA
ATOM     17  H   UNL     1       0.259   6.345  21.947  0.00  0.00    +0.000 HD
ENDROOT
BRANCH   1  22
ATOM     18  C   UNL     1       5.090   4.427  16.278  0.00  0.00    +0.000 A 
ATOM     19  C   UNL     1       6.394   4.573  16.757  0.00  0.00    +0.000 A 
ATOM     20  C   UNL     1       6.640   4.793  18.112  0.00  0.00    +0.000 A 
ATOM     21  C   UNL     1       5.566   4.907  18.993  0.00  0.00    +0.000 A 
ATOM     22  C   UNL     1       4.248   4.754  18.535  0.00  0.00    +0.000 A 
ATOM     23  C   UNL     1       4.022   4.523  17.170  0.00  0.00    +0.000 A 
BRANCH  18  25
ATOM     24  C   UNL     1       6.208   4.134  14.194  0.00  0.00    +0.000 C 
ATOM     25  O   UNL     1       4.995   4.172  14.936  0.00  0.00    +0.000 OA
ENDBRANCH  18  25
BRANCH  20  26
ATOM     26  O   UNL     1       7.957   4.898  18.469  0.00  0.00    +0.000 OA
ATOM     27  C   UNL     1       8.212   5.684  19.630  0.00  0.00    +0.000 C 
ENDBRANCH  20  26
ENDBRANCH   1  22
TORSDOF 3
ENDMDL
MODEL 9
REMARK VINA RESULT:      -7.3      1.847      2.638
REMARK  Name = 
REMARK  5 active torsions:
REMARK  status: ('A' for Active; 'I' for Inactive)
REMARK    1  A    between atoms: C_1  and  O_2
REMARK    2  A    between atoms: O_2  and  C_3
REMARK    3  A    between atoms: C_5  and  O_6
REMARK    4  A    between atoms: O_6  and  C_7
REMARK    5  A    between atoms: C_9  and  C_10
REMARK                            x       y       z     vdW  Elec       q    Type
REMARK                         _______ _______ _______ _____ _____    ______ ____
ROOT
ATOM      1  C   UNL     1       4.731   3.972  16.667  0.00  0.00    +0.000 A 
ATOM      2  N   UNL     1       4.571   2.903  17.419  0.00  0.00    +0.000 NA
ATOM      3  N   UNL     1       3.839   3.307  18.511  0.00  0.00    +0.000 NA
ATOM      4  C   UNL     1       3.591   4.589  18.351  0.00  0.00    +0.000 A 
ATOM      5  N   UNL     1       2.924   5.392  19.190  0.00  0.00    +0.000 N 
ATOM      6  C   UNL     1       2.523   6.678  19.136  0.00  0.00    +0.000 A 
ATOM      7  N   UNL     1       1.903   7.194  20.171  0.00  0.00    +0.000 NA
ATOM      8  C   UNL     1       1.525   8.505  19.936  0.00  0.00    +0.000 A 
ATOM      9  C   UNL     1       0.840   9.358  20.825  0.00  0.00    +0.000 A 
ATOM     10  F   UNL     1       0.493   8.930  22.048  0.00  0.00    +0.000 F 
ATOM     11  C   UNL     1       0.506  10.659  20.450  0.00  0.00    +0.000 A 
ATOM     12  C   UNL     1       0.847  11.127  19.186  0.00  0.00    +0.000 A 
ATOM     13  C   UNL     1       1.537  10.308  18.281  0.00  0.00    +0.000 A 
ATOM     14  C   UNL     1       1.871   8.999  18.678  0.00  0.00    +0.000 A 
ATOM     15  S   UNL     1       2.709   7.766  17.813  0.00  0.00    +0.000 S 
ATOM     16  O   UNL     1       4.126   5.083  17.195  0.00  0.00    +0.000 OA
ATOM     17  H   UNL     1       2.644   4.936  20.052  0.00  0.00    +0.000 HD
ENDROOT
BRANCH   1  22
ATOM     18  C   UNL     1       5.646   3.551  13.032  0.00  0.00    +0.000 A 
ATOM     19  C   UNL     1       6.784   4.359  12.968  0.00  0.00    +0.000 A 
ATOM     20  C   UNL     1       7.250   5.030  14.099  0.00  0.00    +0.000 A 
ATOM     21  C   UNL     1       6.547   4.924  15.297  0.00  0.00    +0.000 A 
ATOM     22  C   UNL     1       5.406   4.110  15.386  0.00  0.00    +0.000 A 
ATOM     23  C   UNL     1       4.959   3.435  14.240  0.00  0.00    +0.000 A 
BRANCH  18  25
ATOM     24  C   UNL     1       4.072   3.239  11.270  0.00  0.00    +0.000 C 
ATOM     25  O   UNL     1       5.325   2.917  11.862  0.00  0.00    +0.000 OA
ENDBRANCH  18  25
BRANCH  20  26
ATOM     26  O   UNL     1       8.385   5.774  13.924  0.00  0.00    +0.000 OA
ATOM     27  C   UNL     1       8.740   6.034  12.568  0.00  0.00    +0.000 C 
ENDBRANCH  20  26
ENDBRANCH   1  22
TORSDOF 3
ENDMDL
