MODEL 1
REMARK VINA RESULT:      -8.2      0.000      0.000
REMARK  Name = 
REMARK  8 active torsions:
REMARK  status: ('A' for Active; 'I' for Inactive)
REMARK    1  A    between atoms: C_1  and  C_2
REMARK    2  A    between atoms: C_2  and  N_3
REMARK    3  A    between atoms: N_3  and  C_4
REMARK    4  A    between atoms: C_5  and  O_7
REMARK    5  A    between atoms: O_7  and  C_8
REMARK    6  A    between atoms: C_10  and  C_11
REMARK    7  A    between atoms: C_11  and  C_12
REMARK    8  A    between atoms: C_11  and  N_13
REMARK                            x       y       z     vdW  Elec       q    Type
REMARK                         _______ _______ _______ _____ _____    ______ ____
ROOT
ATOM      1  C   UNL     1       3.183   5.873  18.550  0.00  0.00    +0.000 A 
ATOM      2  C   UNL     1       4.326   5.884  17.738  0.00  0.00    +0.000 A 
ATOM      3  C   UNL     1       4.757   4.737  17.066  0.00  0.00    +0.000 A 
ATOM      4  C   UNL     1       4.031   3.557  17.288  0.00  0.00    +0.000 A 
ATOM      5  C   UNL     1       2.913   3.529  18.151  0.00  0.00    +0.000 A 
ATOM      6  C   UNL     1       2.239   2.323  18.399  0.00  0.00    +0.000 A 
ATOM      7  C   UNL     1       1.147   2.301  19.253  0.00  0.00    +0.000 A 
ATOM      8  C   UNL     1       0.758   3.491  19.833  0.00  0.00    +0.000 A 
ATOM      9  N   UNL     1       1.385   4.671  19.629  0.00  0.00    +0.000 NA
ATOM     10  C   UNL     1       2.458   4.706  18.800  0.00  0.00    +0.000 A 
ENDROOT
BRANCH   3  11
ATOM     11  C   UNL     1       5.985   4.832  16.161  0.00  0.00    +0.000 C 
ATOM     12  C   UNL     1       5.698   5.567  14.839  0.00  0.00    +0.000 C 
BRANCH  11  13
ATOM     13  N   UNL     1       7.196   5.365  16.795  0.00  0.00    +0.000 NA
ATOM     14  C   UNL     1       7.711   4.684  17.975  0.00  0.00    +0.000 C 
ATOM     15  C   UNL     1       7.811   5.741  19.058  0.00  0.00    +0.000 C 
ATOM     16  C   UNL     1       7.959   7.047  18.308  0.00  0.00    +0.000 C 
ATOM     17  C   UNL     1       7.297   6.807  16.962  0.00  0.00    +0.000 C 
ENDBRANCH  11  13
ENDBRANCH   3  11
BRANCH   1  18
ATOM     18  O   UNL     1       2.819   7.050  19.246  0.00  0.00    +0.000 OA
BRANCH  18  21
ATOM     19  N   UNL     1       1.418   8.895  19.300  0.00  0.00    +0.000 N 
ATOM     20  C   UNL     1       1.225   8.612  20.710  0.00  0.00    +0.000 C 
ATOM     21  C   UNL     1       2.257   8.104  18.520  0.00  0.00    +0.000 C 
ATOM     22  O   UNL     1       2.514   8.350  17.346  0.00  0.00    +0.000 OA
BRANCH  19  24
ATOM     23  C   UNL     1      -0.472  10.088  18.212  0.00  0.00    +0.000 C 
ATOM     24  C   UNL     1       0.942  10.166  18.765  0.00  0.00    +0.000 C 
ENDBRANCH  19  24
ENDBRANCH  18  21
ENDBRANCH   1  18
TORSDOF 5
ENDMDL
MODEL 2
REMARK VINA RESULT:      -7.7      3.052      6.981
REMARK  Name = 
REMARK  8 active torsions:
REMARK  status: ('A' for Active; 'I' for Inactive)
REMARK    1  A    between atoms: C_1  and  C_2
REMARK    2  A    between atoms: C_2  and  N_3
REMARK    3  A    between atoms: N_3  and  C_4
REMARK    4  A    between atoms: C_5  and  O_7
REMARK    5  A    between atoms: O_7  and  C_8
REMARK    6  A    between atoms: C_10  and  C_11
REMARK    7  A    between atoms: C_11  and  C_12
REMARK    8  A    between atoms: C_11  and  N_13
REMARK                            x       y       z     vdW  Elec       q    Type
REMARK                         _______ _______ _______ _____ _____    ______ ____
ROOT
ATOM      1  C   UNL     1       5.367   4.947  16.008  0.00  0.00    +0.000 A 
ATOM      2  C   UNL     1       4.468   3.915  16.312  0.00  0.00    +0.000 A 
ATOM      3  C   UNL     1       4.292   3.461  17.622  0.00  0.00    +0.000 A 
ATOM      4  C   UNL     1       5.099   4.041  18.612  0.00  0.00    +0.000 A 
ATOM      5  C   UNL     1       6.046   5.042  18.300  0.00  0.00    +0.000 A 
ATOM      6  C   UNL     1       6.879   5.566  19.301  0.00  0.00    +0.000 A 
ATOM      7  C   UNL     1       7.812   6.542  18.986  0.00  0.00    +0.000 A 
ATOM      8  C   UNL     1       7.882   6.970  17.677  0.00  0.00    +0.000 A 
ATOM      9  N   UNL     1       7.105   6.485  16.682  0.00  0.00    +0.000 NA
ATOM     10  C   UNL     1       6.192   5.525  16.974  0.00  0.00    +0.000 A 
ENDROOT
BRANCH   3  11
ATOM     11  C   UNL     1       3.263   2.363  17.888  0.00  0.00    +0.000 C 
ATOM     12  C   UNL     1       3.864   1.142  18.608  0.00  0.00    +0.000 C 
BRANCH  11  13
ATOM     13  N   UNL     1       2.032   2.800  18.556  0.00  0.00    +0.000 NA
ATOM     14  C   UNL     1       1.683   4.214  18.498  0.00  0.00    +0.000 C 
ATOM     15  C   UNL     1       1.509   4.660  19.936  0.00  0.00    +0.000 C 
ATOM     16  C   UNL     1       1.143   3.399  20.689  0.00  0.00    +0.000 C 
ATOM     17  C   UNL     1       1.750   2.266  19.880  0.00  0.00    +0.000 C 
ENDBRANCH  11  13
ENDBRANCH   3  11
BRANCH   1  18
ATOM     18  O   UNL     1       5.542   5.335  14.658  0.00  0.00    +0.000 OA
BRANCH  18  21
ATOM     19  N   UNL     1       6.233   3.907  12.968  0.00  0.00    +0.000 N 
ATOM     20  C   UNL     1       4.829   3.620  12.740  0.00  0.00    +0.000 C 
ATOM     21  C   UNL     1       6.628   4.810  13.951  0.00  0.00    +0.000 C 
ATOM     22  O   UNL     1       7.795   5.145  14.128  0.00  0.00    +0.000 OA
BRANCH  19  24
ATOM     23  C   UNL     1       6.858   2.109  11.370  0.00  0.00    +0.000 C 
ATOM     24  C   UNL     1       7.212   3.453  11.988  0.00  0.00    +0.000 C 
ENDBRANCH  19  24
ENDBRANCH  18  21
ENDBRANCH   1  18
TORSDOF 5
ENDMDL
MODEL 3
REMARK VINA RESULT:      -7.6      1.881      5.960
REMARK  Name = 
REMARK  8 active torsions:
REMARK  status: ('A' for Active; 'I' for Inactive)
REMARK    1  A    between atoms: C_1  and  C_2
REMARK    2  A    between atoms: C_2  and  N_3
REMARK    3  A    between atoms: N_3  and  C_4
REMARK    4  A    between atoms: C_5  and  O_7
REMARK    5  A    between atoms: O_7  and  C_8
REMARK    6  A    between atoms: C_10  and  C_11
REMARK    7  A    between atoms: C_11  and  C_12
REMARK    8  A    between atoms: C_11  and  N_13
REMARK                            x       y       z     vdW  Elec       q    Type
REMARK                         _______ _______ _______ _____ _____    ______ ____
ROOT
ATOM      1  C   UNL     1       3.586   5.705  18.388  0.00  0.00    +0.000 A 
ATOM      2  C   UNL     1       3.053   7.002  18.403  0.00  0.00    +0.000 A 
ATOM      3  C   UNL     1       2.178   7.422  19.408  0.00  0.00    +0.000 A 
ATOM      4  C   UNL     1       1.806   6.469  20.369  0.00  0.00    +0.000 A 
ATOM      5  C   UNL     1       2.296   5.146  20.325  0.00  0.00    +0.000 A 
ATOM      6  C   UNL     1       1.865   4.198  21.266  0.00  0.00    +0.000 A 
ATOM      7  C   UNL     1       2.344   2.898  21.211  0.00  0.00    +0.000 A 
ATOM      8  C   UNL     1       3.247   2.584  20.217  0.00  0.00    +0.000 A 
ATOM      9  N   UNL     1       3.680   3.464  19.286  0.00  0.00    +0.000 NA
ATOM     10  C   UNL     1       3.215   4.737  19.323  0.00  0.00    +0.000 A 
ENDROOT
BRANCH   3  11
ATOM     11  C   UNL     1       1.670   8.864  19.388  0.00  0.00    +0.000 C 
ATOM     12  C   UNL     1       1.317   9.352  17.971  0.00  0.00    +0.000 C 
BRANCH  11  13
ATOM     13  N   UNL     1       0.579   9.162  20.323  0.00  0.00    +0.000 NA
ATOM     14  C   UNL     1      -0.542   9.958  19.840  0.00  0.00    +0.000 C 
ATOM     15  C   UNL     1      -0.661  11.131  20.792  0.00  0.00    +0.000 C 
ATOM     16  C   UNL     1      -0.054  10.639  22.088  0.00  0.00    +0.000 C 
ATOM     17  C   UNL     1       0.933   9.560  21.676  0.00  0.00    +0.000 C 
ENDBRANCH  11  13
ENDBRANCH   3  11
BRANCH   1  18
ATOM     18  O   UNL     1       4.430   5.318  17.320  0.00  0.00    +0.000 OA
BRANCH  18  21
ATOM     19  N   UNL     1       6.475   6.375  17.584  0.00  0.00    +0.000 N 
ATOM     20  C   UNL     1       6.663   5.552  18.764  0.00  0.00    +0.000 C 
ATOM     21  C   UNL     1       5.326   6.259  16.807  0.00  0.00    +0.000 C 
ATOM     22  O   UNL     1       5.158   6.875  15.759  0.00  0.00    +0.000 OA
BRANCH  19  24
ATOM     23  C   UNL     1       7.812   8.463  17.772  0.00  0.00    +0.000 C 
ATOM     24  C   UNL     1       7.610   7.131  17.066  0.00  0.00    +0.000 C 
ENDBRANCH  19  24
ENDBRANCH  18  21
ENDBRANCH   1  18
TORSDOF 5
ENDMDL
MODEL 4
REMARK VINA RESULT:      -7.6      1.915      6.027
REMARK  Name = 
REMARK  8 active torsions:
REMARK  status: ('A' for Active; 'I' for Inactive)
REMARK    1  A    between atoms: C_1  and  C_2
REMARK    2  A    between atoms: C_2  and  N_3
REMARK    3  A    between atoms: N_3  and  C_4
REMARK    4  A    between atoms: C_5  and  O_7
REMARK    5  A    between atoms: O_7  and  C_8
REMARK    6  A    between atoms: C_10  and  C_11
REMARK    7  A    between atoms: C_11  and  C_12
REMARK    8  A    between atoms: C_11  and  N_13
REMARK                            x       y       z     vdW  Elec       q    Type
REMARK                         _______ _______ _______ _____ _____    ______ ____
ROOT
ATOM      1  C   UNL     1       3.313   5.249  18.549  0.00  0.00    +0.000 A 
ATOM      2  C   UNL     1       2.952   6.598  18.675  0.00  0.00    +0.000 A 
ATOM      3  C   UNL     1       2.100   7.035  19.693  0.00  0.00    +0.000 A 
ATOM      4  C   UNL     1       1.571   6.055  20.546  0.00  0.00    +0.000 A 
ATOM      5  C   UNL     1       1.887   4.688  20.387  0.00  0.00    +0.000 A 
ATOM      6  C   UNL     1       1.300   3.723  21.219  0.00  0.00    +0.000 A 
ATOM      7  C   UNL     1       1.609   2.381  21.052  0.00  0.00    +0.000 A 
ATOM      8  C   UNL     1       2.502   2.044  20.056  0.00  0.00    +0.000 A 
ATOM      9  N   UNL     1       3.081   2.941  19.227  0.00  0.00    +0.000 NA
ATOM     10  C   UNL     1       2.783   4.256  19.375  0.00  0.00    +0.000 A 
ENDROOT
BRANCH   3  11
ATOM     11  C   UNL     1       1.784   8.527  19.799  0.00  0.00    +0.000 C 
ATOM     12  C   UNL     1       1.644   9.207  18.425  0.00  0.00    +0.000 C 
BRANCH  11  13
ATOM     13  N   UNL     1       0.649   8.872  20.662  0.00  0.00    +0.000 NA
ATOM     14  C   UNL     1      -0.353   9.794  20.145  0.00  0.00    +0.000 C 
ATOM     15  C   UNL     1      -0.449  10.918  21.157  0.00  0.00    +0.000 C 
ATOM     16  C   UNL     1       0.001  10.299  22.463  0.00  0.00    +0.000 C 
ATOM     17  C   UNL     1       0.921   9.158  22.062  0.00  0.00    +0.000 C 
ENDBRANCH  11  13
ENDBRANCH   3  11
BRANCH   1  18
ATOM     18  O   UNL     1       4.141   4.854  17.471  0.00  0.00    +0.000 OA
BRANCH  18  21
ATOM     19  N   UNL     1       6.080   5.865  16.703  0.00  0.00    +0.000 N 
ATOM     20  C   UNL     1       5.242   6.576  15.755  0.00  0.00    +0.000 C 
ATOM     21  C   UNL     1       5.526   4.975  17.618  0.00  0.00    +0.000 C 
ATOM     22  O   UNL     1       6.180   4.411  18.490  0.00  0.00    +0.000 OA
BRANCH  19  24
ATOM     23  C   UNL     1       7.600   7.618  17.594  0.00  0.00    +0.000 C 
ATOM     24  C   UNL     1       7.465   6.286  16.872  0.00  0.00    +0.000 C 
ENDBRANCH  19  24
ENDBRANCH  18  21
ENDBRANCH   1  18
TORSDOF 5
ENDMDL
MODEL 5
REMARK VINA RESULT:      -7.5      0.893      1.399
REMARK  Name = 
REMARK  8 active torsions:
REMARK  status: ('A' for Active; 'I' for Inactive)
REMARK    1  A    between atoms: C_1  and  C_2
REMARK    2  A    between atoms: C_2  and  N_3
REMARK    3  A    between atoms: N_3  and  C_4
REMARK    4  A    between atoms: C_5  and  O_7
REMARK    5  A    between atoms: O_7  and  C_8
REMARK    6  A    between atoms: C_10  and  C_11
REMARK    7  A    between atoms: C_11  and  C_12
REMARK    8  A    between atoms: C_11  and  N_13
REMARK                            x       y       z     vdW  Elec       q    Type
REMARK                         _______ _______ _______ _____ _____    ______ ____
ROOT
ATOM      1  C   UNL     1       2.988   5.432  17.725  0.00  0.00    +0.000 A 
ATOM      2  C   UNL     1       4.231   5.520  17.082  0.00  0.00    +0.000 A 
ATOM      3  C   UNL     1       4.991   4.381  16.801  0.00  0.00    +0.000 A 
ATOM      4  C   UNL     1       4.484   3.150  17.245  0.00  0.00    +0.000 A 
ATOM      5  C   UNL     1       3.259   3.065  17.943  0.00  0.00    +0.000 A 
ATOM      6  C   UNL     1       2.803   1.829  18.425  0.00  0.00    +0.000 A 
ATOM      7  C   UNL     1       1.603   1.753  19.116  0.00  0.00    +0.000 A 
ATOM      8  C   UNL     1       0.892   2.920  19.303  0.00  0.00    +0.000 A 
ATOM      9  N   UNL     1       1.300   4.131  18.864  0.00  0.00    +0.000 NA
ATOM     10  C   UNL     1       2.475   4.221  18.192  0.00  0.00    +0.000 A 
ENDROOT
BRANCH   3  11
ATOM     11  C   UNL     1       6.316   4.545  16.057  0.00  0.00    +0.000 C 
ATOM     12  C   UNL     1       6.148   5.197  14.673  0.00  0.00    +0.000 C 
BRANCH  11  13
ATOM     13  N   UNL     1       7.385   5.210  16.812  0.00  0.00    +0.000 NA
ATOM     14  C   UNL     1       7.773   4.643  18.097  0.00  0.00    +0.000 C 
ATOM     15  C   UNL     1       7.644   5.768  19.106  0.00  0.00    +0.000 C 
ATOM     16  C   UNL     1       7.807   7.034  18.293  0.00  0.00    +0.000 C 
ATOM     17  C   UNL     1       7.361   6.663  16.889  0.00  0.00    +0.000 C 
ENDBRANCH  11  13
ENDBRANCH   3  11
BRANCH   1  18
ATOM     18  O   UNL     1       2.283   6.621  18.029  0.00  0.00    +0.000 OA
BRANCH  18  21
ATOM     19  N   UNL     1       1.805   8.391  19.446  0.00  0.00    +0.000 N 
ATOM     20  C   UNL     1       1.245   9.066  18.290  0.00  0.00    +0.000 C 
ATOM     21  C   UNL     1       2.337   7.110  19.337  0.00  0.00    +0.000 C 
ATOM     22  O   UNL     1       2.749   6.468  20.299  0.00  0.00    +0.000 OA
BRANCH  19  24
ATOM     23  C   UNL     1       0.187   8.618  21.320  0.00  0.00    +0.000 C 
ATOM     24  C   UNL     1       1.567   8.950  20.772  0.00  0.00    +0.000 C 
ENDBRANCH  19  24
ENDBRANCH  18  21
ENDBRANCH   1  18
TORSDOF 5
ENDMDL
MODEL 6
REMARK VINA RESULT:      -7.5      2.601      6.250
REMARK  Name = 
REMARK  8 active torsions:
REMARK  status: ('A' for Active; 'I' for Inactive)
REMARK    1  A    between atoms: C_1  and  C_2
REMARK    2  A    between atoms: C_2  and  N_3
REMARK    3  A    between atoms: N_3  and  C_4
REMARK    4  A    between atoms: C_5  and  O_7
REMARK    5  A    between atoms: O_7  and  C_8
REMARK    6  A    between atoms: C_10  and  C_11
REMARK    7  A    between atoms: C_11  and  C_12
REMARK    8  A    between atoms: C_11  and  N_13
REMARK                            x       y       z     vdW  Elec       q    Type
REMARK                         _______ _______ _______ _____ _____    ______ ____
ROOT
ATOM      1  C   UNL     1       6.341   6.526  17.028  0.00  0.00    +0.000 A 
ATOM      2  C   UNL     1       5.402   6.409  18.063  0.00  0.00    +0.000 A 
ATOM      3  C   UNL     1       4.520   5.328  18.132  0.00  0.00    +0.000 A 
ATOM      4  C   UNL     1       4.571   4.395  17.085  0.00  0.00    +0.000 A 
ATOM      5  C   UNL     1       5.476   4.540  16.010  0.00  0.00    +0.000 A 
ATOM      6  C   UNL     1       5.468   3.623  14.948  0.00  0.00    +0.000 A 
ATOM      7  C   UNL     1       6.354   3.776  13.892  0.00  0.00    +0.000 A 
ATOM      8  C   UNL     1       7.227   4.843  13.932  0.00  0.00    +0.000 A 
ATOM      9  N   UNL     1       7.261   5.754  14.931  0.00  0.00    +0.000 NA
ATOM     10  C   UNL     1       6.396   5.620  15.967  0.00  0.00    +0.000 A 
ENDROOT
BRANCH   3  11
ATOM     11  C   UNL     1       3.553   5.241  19.312  0.00  0.00    +0.000 C 
ATOM     12  C   UNL     1       2.587   6.437  19.383  0.00  0.00    +0.000 C 
BRANCH  11  13
ATOM     13  N   UNL     1       2.818   3.977  19.434  0.00  0.00    +0.000 NA
ATOM     14  C   UNL     1       1.411   3.960  19.054  0.00  0.00    +0.000 C 
ATOM     15  C   UNL     1       0.660   3.429  20.258  0.00  0.00    +0.000 C 
ATOM     16  C   UNL     1       1.675   2.593  21.007  0.00  0.00    +0.000 C 
ATOM     17  C   UNL     1       3.024   3.183  20.635  0.00  0.00    +0.000 C 
ENDBRANCH  11  13
ENDBRANCH   3  11
BRANCH   1  18
ATOM     18  O   UNL     1       7.178   7.666  16.980  0.00  0.00    +0.000 OA
BRANCH  18  21
ATOM     19  N   UNL     1       8.369   9.242  18.192  0.00  0.00    +0.000 N 
ATOM     20  C   UNL     1       7.794  10.242  17.311  0.00  0.00    +0.000 C 
ATOM     21  C   UNL     1       8.050   7.895  18.048  0.00  0.00    +0.000 C 
ATOM     22  O   UNL     1       8.447   7.024  18.816  0.00  0.00    +0.000 OA
BRANCH  19  24
ATOM     23  C   UNL     1       9.871  10.957  19.183  0.00  0.00    +0.000 C 
ATOM     24  C   UNL     1       9.070   9.681  19.393  0.00  0.00    +0.000 C 
ENDBRANCH  19  24
ENDBRANCH  18  21
ENDBRANCH   1  18
TORSDOF 5
ENDMDL
MODEL 7
REMARK VINA RESULT:      -7.4      1.004      2.144
REMARK  Name = 
REMARK  8 active torsions:
REMARK  status: ('A' for Active; 'I' for Inactive)
REMARK    1  A    between atoms: C_1  and  C_2
REMARK    2  A    between atoms: C_2  and  N_3
REMARK    3  A    between atoms: N_3  and  C_4
REMARK    4  A    between atoms: C_5  and  O_7
REMARK    5  A    between atoms: O_7  and  C_8
REMARK    6  A    between atoms: C_10  and  C_11
REMARK    7  A    between atoms: C_11  and  C_12
REMARK    8  A    between atoms: C_11  and  N_13
REMARK                            x       y       z     vdW  Elec       q    Type
REMARK                         _______ _______ _______ _____ _____    ______ ____
ROOT
ATOM      1  C   UNL     1       3.078   5.963  19.285  0.00  0.00    +0.000 A 
ATOM      2  C   UNL     1       4.341   6.255  18.751  0.00  0.00    +0.000 A 
ATOM      3  C   UNL     1       5.094   5.287  18.081  0.00  0.00    +0.000 A 
ATOM      4  C   UNL     1       4.558   3.991  18.021  0.00  0.00    +0.000 A 
ATOM      5  C   UNL     1       3.312   3.680  18.609  0.00  0.00    +0.000 A 
ATOM      6  C   UNL     1       2.825   2.364  18.582  0.00  0.00    +0.000 A 
ATOM      7  C   UNL     1       1.604   2.063  19.167  0.00  0.00    +0.000 A 
ATOM      8  C   UNL     1       0.903   3.092  19.761  0.00  0.00    +0.000 A 
ATOM      9  N   UNL     1       1.340   4.370  19.816  0.00  0.00    +0.000 NA
ATOM     10  C   UNL     1       2.535   4.677  19.253  0.00  0.00    +0.000 A 
ENDROOT
BRANCH   3  11
ATOM     11  C   UNL     1       6.443   5.686  17.484  0.00  0.00    +0.000 C 
ATOM     12  C   UNL     1       7.624   4.926  18.115  0.00  0.00    +0.000 C 
BRANCH  11  13
ATOM     13  N   UNL     1       6.523   5.639  16.020  0.00  0.00    +0.000 NA
ATOM     14  C   UNL     1       5.300   5.849  15.257  0.00  0.00    +0.000 C 
ATOM     15  C   UNL     1       5.159   4.640  14.352  0.00  0.00    +0.000 C 
ATOM     16  C   UNL     1       6.571   4.128  14.172  0.00  0.00    +0.000 C 
ATOM     17  C   UNL     1       7.317   4.579  15.417  0.00  0.00    +0.000 C 
ENDBRANCH  11  13
ENDBRANCH   3  11
BRANCH   1  18
ATOM     18  O   UNL     1       2.380   6.968  19.995  0.00  0.00    +0.000 OA
BRANCH  18  21
ATOM     19  N   UNL     1       1.184   8.951  20.095  0.00  0.00    +0.000 N 
ATOM     20  C   UNL     1       1.147   8.768  21.534  0.00  0.00    +0.000 C 
ATOM     21  C   UNL     1       1.835   8.035  19.274  0.00  0.00    +0.000 C 
ATOM     22  O   UNL     1       1.961   8.187  18.063  0.00  0.00    +0.000 OA
BRANCH  19  24
ATOM     23  C   UNL     1      -0.741  10.387  19.452  0.00  0.00    +0.000 C 
ATOM     24  C   UNL     1       0.770  10.234  19.538  0.00  0.00    +0.000 C 
ENDBRANCH  19  24
ENDBRANCH  18  21
ENDBRANCH   1  18
TORSDOF 5
ENDMDL
MODEL 8
REMARK VINA RESULT:      -7.4      1.873      6.136
REMARK  Name = 
REMARK  8 active torsions:
REMARK  status: ('A' for Active; 'I' for Inactive)
REMARK    1  A    between atoms: C_1  and  C_2
REMARK    2  A    between atoms: C_2  and  N_3
REMARK    3  A    between atoms: N_3  and  C_4
REMARK    4  A    between atoms: C_5  and  O_7
REMARK    5  A    between atoms: O_7  and  C_8
REMARK    6  A    between atoms: C_10  and  C_11
REMARK    7  A    between atoms: C_11  and  C_12
REMARK    8  A    between atoms: C_11  and  N_13
REMARK                            x       y       z     vdW  Elec       q    Type
REMARK                         _______ _______ _______ _____ _____    ______ ____
ROOT
ATOM      1  C   UNL     1       4.274   6.131  17.953  0.00  0.00    +0.000 A 
ATOM      2  C   UNL     1       3.661   7.352  18.269  0.00  0.00    +0.000 A 
ATOM      3  C   UNL     1       2.333   7.413  18.701  0.00  0.00    +0.000 A 
ATOM      4  C   UNL     1       1.620   6.205  18.746  0.00  0.00    +0.000 A 
ATOM      5  C   UNL     1       2.218   4.981  18.374  0.00  0.00    +0.000 A 
ATOM      6  C   UNL     1       1.467   3.796  18.376  0.00  0.00    +0.000 A 
ATOM      7  C   UNL     1       2.057   2.598  18.002  0.00  0.00    +0.000 A 
ATOM      8  C   UNL     1       3.388   2.621  17.640  0.00  0.00    +0.000 A 
ATOM      9  N   UNL     1       4.145   3.741  17.616  0.00  0.00    +0.000 NA
ATOM     10  C   UNL     1       3.578   4.921  17.973  0.00  0.00    +0.000 A 
ENDROOT
BRANCH   3  11
ATOM     11  C   UNL     1       1.742   8.773  19.071  0.00  0.00    +0.000 C 
ATOM     12  C   UNL     1       1.127   9.505  17.865  0.00  0.00    +0.000 C 
BRANCH  11  13
ATOM     13  N   UNL     1       0.807   8.767  20.202  0.00  0.00    +0.000 NA
ATOM     14  C   UNL     1      -0.204   9.815  20.263  0.00  0.00    +0.000 C 
ATOM     15  C   UNL     1      -0.037  10.478  21.616  0.00  0.00    +0.000 C 
ATOM     16  C   UNL     1       0.596   9.417  22.490  0.00  0.00    +0.000 C 
ATOM     17  C   UNL     1       1.346   8.510  21.529  0.00  0.00    +0.000 C 
ENDBRANCH  11  13
ENDBRANCH   3  11
BRANCH   1  18
ATOM     18  O   UNL     1       5.606   6.131  17.474  0.00  0.00    +0.000 OA
BRANCH  18  21
ATOM     19  N   UNL     1       6.814   5.228  15.714  0.00  0.00    +0.000 N 
ATOM     20  C   UNL     1       7.493   4.409  16.701  0.00  0.00    +0.000 C 
ATOM     21  C   UNL     1       5.815   6.120  16.092  0.00  0.00    +0.000 C 
ATOM     22  O   UNL     1       5.158   6.774  15.288  0.00  0.00    +0.000 OA
BRANCH  19  24
ATOM     23  C   UNL     1       6.020   3.865  13.793  0.00  0.00    +0.000 C 
ATOM     24  C   UNL     1       6.992   4.919  14.301  0.00  0.00    +0.000 C 
ENDBRANCH  19  24
ENDBRANCH  18  21
ENDBRANCH   1  18
TORSDOF 5
ENDMDL
MODEL 9
REMARK VINA RESULT:      -7.4      2.837      6.030
REMARK  Name = 
REMARK  8 active torsions:
REMARK  status: ('A' for Active; 'I' for Inactive)
REMARK    1  A    between atoms: C_1  and  C_2
REMARK    2  A    between atoms: C_2  and  N_3
REMARK    3  A    between atoms: N_3  and  C_4
REMARK    4  A    between atoms: C_5  and  O_7
REMARK    5  A    between atoms: O_7  and  C_8
REMARK    6  A    between atoms: C_10  and  C_11
REMARK    7  A    between atoms: C_11  and  C_12
REMARK    8  A    between atoms: C_11  and  N_13
REMARK                            x       y       z     vdW  Elec       q    Type
REMARK                         _______ _______ _______ _____ _____    ______ ____
ROOT
ATOM      1  C   UNL     1       5.937   6.527  16.769  0.00  0.00    +0.000 A 
ATOM      2  C   UNL     1       4.818   6.401  17.605  0.00  0.00    +0.000 A 
ATOM      3  C   UNL     1       3.945   5.315  17.498  0.00  0.00    +0.000 A 
ATOM      4  C   UNL     1       4.201   4.388  16.476  0.00  0.00    +0.000 A 
ATOM      5  C   UNL     1       5.294   4.543  15.596  0.00  0.00    +0.000 A 
ATOM      6  C   UNL     1       5.495   3.631  14.548  0.00  0.00    +0.000 A 
ATOM      7  C   UNL     1       6.566   3.794  13.683  0.00  0.00    +0.000 A 
ATOM      8  C   UNL     1       7.410   4.864  13.893  0.00  0.00    +0.000 A 
ATOM      9  N   UNL     1       7.246   5.770  14.884  0.00  0.00    +0.000 NA
ATOM     10  C   UNL     1       6.199   5.627  15.734  0.00  0.00    +0.000 A 
ENDROOT
BRANCH   3  11
ATOM     11  C   UNL     1       2.770   5.217  18.471  0.00  0.00    +0.000 C 
ATOM     12  C   UNL     1       1.564   4.467  17.878  0.00  0.00    +0.000 C 
BRANCH  11  13
ATOM     13  N   UNL     1       3.097   4.696  19.804  0.00  0.00    +0.000 NA
ATOM     14  C   UNL     1       3.753   3.398  19.892  0.00  0.00    +0.000 C 
ATOM     15  C   UNL     1       2.885   2.552  20.802  0.00  0.00    +0.000 C 
ATOM     16  C   UNL     1       2.155   3.550  21.674  0.00  0.00    +0.000 C 
ATOM     17  C   UNL     1       2.093   4.825  20.849  0.00  0.00    +0.000 C 
ENDBRANCH  11  13
ENDBRANCH   3  11
BRANCH   1  18
ATOM     18  O   UNL     1       6.762   7.671  16.887  0.00  0.00    +0.000 OA
BRANCH  18  21
ATOM     19  N   UNL     1       8.241   8.967  18.114  0.00  0.00    +0.000 N 
ATOM     20  C   UNL     1       7.750  10.105  17.360  0.00  0.00    +0.000 C 
ATOM     21  C   UNL     1       7.729   7.691  17.896  0.00  0.00    +0.000 C 
ATOM     22  O   UNL     1       8.055   6.713  18.562  0.00  0.00    +0.000 OA
BRANCH  19  24
ATOM     23  C   UNL     1       9.536  10.651  19.405  0.00  0.00    +0.000 C 
ATOM     24  C   UNL     1       9.078   9.206  19.283  0.00  0.00    +0.000 C 
ENDBRANCH  19  24
ENDBRANCH  18  21
ENDBRANCH   1  18
TORSDOF 5
ENDMDL
