MODEL 1
REMARK VINA RESULT:      -7.8      0.000      0.000
REMARK  Name = 
REMARK  6 active torsions:
REMARK  status: ('A' for Active; 'I' for Inactive)
REMARK    1  A    between atoms: C_1  and  O_2
REMARK    2  A    between atoms: O_2  and  C_3
REMARK    3  A    between atoms: C_6  and  C_7
REMARK    4  A    between atoms: N_15  and  C_16
REMARK    5  A    between atoms: C_16  and  C_17
REMARK    6  A    between atoms: C_17  and  N_18
REMARK                            x       y       z     vdW  Elec       q    Type
REMARK                         _______ _______ _______ _____ _____    ______ ____
ROOT
ATOM      1  C   UNL     1       1.700   8.252  19.737  0.00  0.00    +0.000 A 
ATOM      2  N   UNL     1       2.147   8.859  18.604  0.00  0.00    +0.000 NA
ATOM      3  C   UNL     1       2.882   8.133  17.738  0.00  0.00    +0.000 A 
ATOM      4  N   UNL     1       3.242   6.839  17.832  0.00  0.00    +0.000 NA
ATOM      5  C   UNL     1       2.767   6.275  18.958  0.00  0.00    +0.000 A 
ATOM      6  C   UNL     1       1.994   6.898  19.926  0.00  0.00    +0.000 A 
ATOM      7  C   UNL     1       1.719   5.871  20.857  0.00  0.00    +0.000 A 
ATOM      8  N   UNL     1       2.300   4.710  20.545  0.00  0.00    +0.000 NA
ATOM      9  N   UNL     1       2.927   4.980  19.376  0.00  0.00    +0.000 N 
ENDROOT
BRANCH   1  13
ATOM     10  C   UNL     1      -0.564  10.561  22.587  0.00  0.00    +0.000 A 
ATOM     11  C   UNL     1      -0.690  10.803  21.219  0.00  0.00    +0.000 A 
ATOM     12  C   UNL     1       0.043  10.051  20.290  0.00  0.00    +0.000 A 
ATOM     13  C   UNL     1       0.934   9.050  20.708  0.00  0.00    +0.000 A 
ATOM     14  C   UNL     1       1.077   8.859  22.092  0.00  0.00    +0.000 A 
ATOM     15  C   UNL     1       0.330   9.590  23.022  0.00  0.00    +0.000 A 
BRANCH  10  17
ATOM     16  C   UNL     1      -1.339  12.741  23.065  0.00  0.00    +0.000 C 
ATOM     17  O   UNL     1      -1.318  11.357  23.403  0.00  0.00    +0.000 OA
ENDBRANCH  10  17
ENDBRANCH   1  13
BRANCH   9  18
ATOM     18  C   UNL     1       3.556   3.892  18.646  0.00  0.00    +0.000 C 
BRANCH  18  19
ATOM     19  C   UNL     1       4.930   3.501  19.201  0.00  0.00    +0.000 C 
BRANCH  19  20
ATOM     20  N   UNL     1       6.069   4.189  18.540  0.00  0.00    +0.000 NA
ATOM     21  C   UNL     1       5.777   4.518  17.135  0.00  0.00    +0.000 C 
ATOM     22  C   UNL     1       6.952   5.230  16.461  0.00  0.00    +0.000 C 
ATOM     23  C   UNL     1       7.344   6.488  17.223  0.00  0.00    +0.000 C 
ATOM     24  C   UNL     1       7.603   6.149  18.685  0.00  0.00    +0.000 C 
ATOM     25  C   UNL     1       6.419   5.403  19.301  0.00  0.00    +0.000 C 
ENDBRANCH  19  20
ENDBRANCH  18  19
ENDBRANCH   9  18
TORSDOF 5
ENDMDL
MODEL 2
REMARK VINA RESULT:      -7.4      3.643      8.641
REMARK  Name = 
REMARK  6 active torsions:
REMARK  status: ('A' for Active; 'I' for Inactive)
REMARK    1  A    between atoms: C_1  and  O_2
REMARK    2  A    between atoms: O_2  and  C_3
REMARK    3  A    between atoms: C_6  and  C_7
REMARK    4  A    between atoms: N_15  and  C_16
REMARK    5  A    between atoms: C_16  and  C_17
REMARK    6  A    between atoms: C_17  and  N_18
REMARK                            x       y       z     vdW  Elec       q    Type
REMARK                         _______ _______ _______ _____ _____    ______ ____
ROOT
ATOM      1  C   UNL     1       2.970   6.209  18.862  0.00  0.00    +0.000 A 
ATOM      2  N   UNL     1       2.637   5.516  19.985  0.00  0.00    +0.000 NA
ATOM      3  C   UNL     1       1.860   6.124  20.905  0.00  0.00    +0.000 A 
ATOM      4  N   UNL     1       1.338   7.364  20.865  0.00  0.00    +0.000 NA
ATOM      5  C   UNL     1       1.680   8.007  19.733  0.00  0.00    +0.000 A 
ATOM      6  C   UNL     1       2.459   7.502  18.704  0.00  0.00    +0.000 A 
ATOM      7  C   UNL     1       2.472   8.537  17.743  0.00  0.00    +0.000 A 
ATOM      8  N   UNL     1       1.806   9.626  18.136  0.00  0.00    +0.000 NA
ATOM      9  N   UNL     1       1.324   9.274  19.351  0.00  0.00    +0.000 N 
ENDROOT
BRANCH   1  13
ATOM     10  C   UNL     1       5.571   4.315  15.995  0.00  0.00    +0.000 A 
ATOM     11  C   UNL     1       5.723   5.666  16.305  0.00  0.00    +0.000 A 
ATOM     12  C   UNL     1       4.881   6.284  17.239  0.00  0.00    +0.000 A 
ATOM     13  C   UNL     1       3.852   5.568  17.874  0.00  0.00    +0.000 A 
ATOM     14  C   UNL     1       3.691   4.221  17.509  0.00  0.00    +0.000 A 
ATOM     15  C   UNL     1       4.545   3.595  16.595  0.00  0.00    +0.000 A 
BRANCH  10  17
ATOM     16  C   UNL     1       6.812   4.716  14.025  0.00  0.00    +0.000 C 
ATOM     17  O   UNL     1       6.441   3.816  15.065  0.00  0.00    +0.000 OA
ENDBRANCH  10  17
ENDBRANCH   1  13
BRANCH   9  18
ATOM     18  C   UNL     1       0.407  10.172  20.033  0.00  0.00    +0.000 C 
BRANCH  18  19
ATOM     19  C   UNL     1      -0.282  11.168  19.093  0.00  0.00    +0.000 C 
BRANCH  19  20
ATOM     20  N   UNL     1      -1.692  10.825  18.776  0.00  0.00    +0.000 NA
ATOM     21  C   UNL     1      -2.573  12.003  18.821  0.00  0.00    +0.000 C 
ATOM     22  C   UNL     1      -4.022  11.643  18.489  0.00  0.00    +0.000 C 
ATOM     23  C   UNL     1      -4.124  10.966  17.130  0.00  0.00    +0.000 C 
ATOM     24  C   UNL     1      -3.179   9.773  17.073  0.00  0.00    +0.000 C 
ATOM     25  C   UNL     1      -1.753  10.174  17.453  0.00  0.00    +0.000 C 
ENDBRANCH  19  20
ENDBRANCH  18  19
ENDBRANCH   9  18
TORSDOF 5
ENDMDL
MODEL 3
REMARK VINA RESULT:      -7.2      3.722      8.511
REMARK  Name = 
REMARK  6 active torsions:
REMARK  status: ('A' for Active; 'I' for Inactive)
REMARK    1  A    between atoms: C_1  and  O_2
REMARK    2  A    between atoms: O_2  and  C_3
REMARK    3  A    between atoms: C_6  and  C_7
REMARK    4  A    between atoms: N_15  and  C_16
REMARK    5  A    between atoms: C_16  and  C_17
REMARK    6  A    between atoms: C_17  and  N_18
REMARK                            x       y       z     vdW  Elec       q    Type
REMARK                         _______ _______ _______ _____ _____    ______ ____
ROOT
ATOM      1  C   UNL     1       2.647   6.773  18.904  0.00  0.00    +0.000 A 
ATOM      2  N   UNL     1       2.251   6.276  20.107  0.00  0.00    +0.000 NA
ATOM      3  C   UNL     1       1.518   7.068  20.916  0.00  0.00    +0.000 A 
ATOM      4  N   UNL     1       1.097   8.326  20.690  0.00  0.00    +0.000 NA
ATOM      5  C   UNL     1       1.498   8.772  19.485  0.00  0.00    +0.000 A 
ATOM      6  C   UNL     1       2.242   8.065  18.553  0.00  0.00    +0.000 A 
ATOM      7  C   UNL     1       2.344   8.948  17.455  0.00  0.00    +0.000 A 
ATOM      8  N   UNL     1       1.764  10.130  17.676  0.00  0.00    +0.000 NA
ATOM      9  N   UNL     1       1.246   9.995  18.920  0.00  0.00    +0.000 N 
ENDROOT
BRANCH   1  13
ATOM     10  C   UNL     1       5.109   4.289  16.386  0.00  0.00    +0.000 A 
ATOM     11  C   UNL     1       5.419   5.635  16.573  0.00  0.00    +0.000 A 
ATOM     12  C   UNL     1       4.622   6.445  17.394  0.00  0.00    +0.000 A 
ATOM     13  C   UNL     1       3.483   5.930  18.034  0.00  0.00    +0.000 A 
ATOM     14  C   UNL     1       3.166   4.583  17.791  0.00  0.00    +0.000 A 
ATOM     15  C   UNL     1       3.973   3.766  16.992  0.00  0.00    +0.000 A 
BRANCH  10  17
ATOM     16  C   UNL     1       6.595   4.365  14.551  0.00  0.00    +0.000 C 
ATOM     17  O   UNL     1       5.948   3.594  15.560  0.00  0.00    +0.000 OA
ENDBRANCH  10  17
ENDBRANCH   1  13
BRANCH   9  18
ATOM     18  C   UNL     1       0.399  11.050  19.450  0.00  0.00    +0.000 C 
BRANCH  18  19
ATOM     19  C   UNL     1      -1.088  10.679  19.480  0.00  0.00    +0.000 C 
BRANCH  19  20
ATOM     20  N   UNL     1      -1.824  11.026  18.237  0.00  0.00    +0.000 NA
ATOM     21  C   UNL     1      -1.763   9.947  17.237  0.00  0.00    +0.000 C 
ATOM     22  C   UNL     1      -2.526  10.309  15.962  0.00  0.00    +0.000 C 
ATOM     23  C   UNL     1      -3.976  10.658  16.267  0.00  0.00    +0.000 C 
ATOM     24  C   UNL     1      -4.034  11.744  17.333  0.00  0.00    +0.000 C 
ATOM     25  C   UNL     1      -3.223  11.355  18.569  0.00  0.00    +0.000 C 
ENDBRANCH  19  20
ENDBRANCH  18  19
ENDBRANCH   9  18
TORSDOF 5
ENDMDL
MODEL 4
REMARK VINA RESULT:      -7.2      0.819      1.675
REMARK  Name = 
REMARK  6 active torsions:
REMARK  status: ('A' for Active; 'I' for Inactive)
REMARK    1  A    between atoms: C_1  and  O_2
REMARK    2  A    between atoms: O_2  and  C_3
REMARK    3  A    between atoms: C_6  and  C_7
REMARK    4  A    between atoms: N_15  and  C_16
REMARK    5  A    between atoms: C_16  and  C_17
REMARK    6  A    between atoms: C_17  and  N_18
REMARK                            x       y       z     vdW  Elec       q    Type
REMARK                         _______ _______ _______ _____ _____    ______ ____
ROOT
ATOM      1  C   UNL     1       1.589   8.288  19.757  0.00  0.00    +0.000 A 
ATOM      2  N   UNL     1       2.007   8.820  18.576  0.00  0.00    +0.000 NA
ATOM      3  C   UNL     1       2.718   8.038  17.738  0.00  0.00    +0.000 A 
ATOM      4  N   UNL     1       3.080   6.752  17.906  0.00  0.00    +0.000 NA
ATOM      5  C   UNL     1       2.634   6.263  19.078  0.00  0.00    +0.000 A 
ATOM      6  C   UNL     1       1.888   6.948  20.024  0.00  0.00    +0.000 A 
ATOM      7  C   UNL     1       1.636   5.984  21.026  0.00  0.00    +0.000 A 
ATOM      8  N   UNL     1       2.208   4.805  20.775  0.00  0.00    +0.000 NA
ATOM      9  N   UNL     1       2.805   4.997  19.575  0.00  0.00    +0.000 N 
ENDROOT
BRANCH   1  13
ATOM     10  C   UNL     1      -0.550  10.833  22.500  0.00  0.00    +0.000 A 
ATOM     11  C   UNL     1       0.127   9.704  22.961  0.00  0.00    +0.000 A 
ATOM     12  C   UNL     1       0.826   8.877  22.072  0.00  0.00    +0.000 A 
ATOM     13  C   UNL     1       0.850   9.149  20.694  0.00  0.00    +0.000 A 
ATOM     14  C   UNL     1       0.122  10.264  20.250  0.00  0.00    +0.000 A 
ATOM     15  C   UNL     1      -0.557  11.106  21.137  0.00  0.00    +0.000 A 
BRANCH  10  17
ATOM     16  C   UNL     1      -2.518  11.993  23.102  0.00  0.00    +0.000 C 
ATOM     17  O   UNL     1      -1.205  11.564  23.451  0.00  0.00    +0.000 OA
ENDBRANCH  10  17
ENDBRANCH   1  13
BRANCH   9  18
ATOM     18  C   UNL     1       3.413   3.863  18.900  0.00  0.00    +0.000 C 
BRANCH  18  19
ATOM     19  C   UNL     1       4.943   3.936  18.846  0.00  0.00    +0.000 C 
BRANCH  19  20
ATOM     20  N   UNL     1       5.476   4.588  17.623  0.00  0.00    +0.000 NA
ATOM     21  C   UNL     1       6.948   4.576  17.584  0.00  0.00    +0.000 C 
ATOM     22  C   UNL     1       7.489   5.246  16.319  0.00  0.00    +0.000 C 
ATOM     23  C   UNL     1       6.927   4.590  15.066  0.00  0.00    +0.000 C 
ATOM     24  C   UNL     1       5.406   4.566  15.130  0.00  0.00    +0.000 C 
ATOM     25  C   UNL     1       4.914   3.927  16.430  0.00  0.00    +0.000 C 
ENDBRANCH  19  20
ENDBRANCH  18  19
ENDBRANCH   9  18
TORSDOF 5
ENDMDL
MODEL 5
REMARK VINA RESULT:      -7.1      0.809      1.473
REMARK  Name = 
REMARK  6 active torsions:
REMARK  status: ('A' for Active; 'I' for Inactive)
REMARK    1  A    between atoms: C_1  and  O_2
REMARK    2  A    between atoms: O_2  and  C_3
REMARK    3  A    between atoms: C_6  and  C_7
REMARK    4  A    between atoms: N_15  and  C_16
REMARK    5  A    between atoms: C_16  and  C_17
REMARK    6  A    between atoms: C_17  and  N_18
REMARK                            x       y       z     vdW  Elec       q    Type
REMARK                         _______ _______ _______ _____ _____    ______ ____
ROOT
ATOM      1  C   UNL     1       1.556   8.392  19.782  0.00  0.00    +0.000 A 
ATOM      2  N   UNL     1       2.004   8.974  18.636  0.00  0.00    +0.000 NA
ATOM      3  C   UNL     1       2.748   8.232  17.791  0.00  0.00    +0.000 A 
ATOM      4  N   UNL     1       3.116   6.943  17.918  0.00  0.00    +0.000 NA
ATOM      5  C   UNL     1       2.639   6.404  19.056  0.00  0.00    +0.000 A 
ATOM      6  C   UNL     1       1.858   7.045  20.005  0.00  0.00    +0.000 A 
ATOM      7  C   UNL     1       1.585   6.040  20.960  0.00  0.00    +0.000 A 
ATOM      8  N   UNL     1       2.176   4.876  20.680  0.00  0.00    +0.000 NA
ATOM      9  N   UNL     1       2.807   5.121  19.507  0.00  0.00    +0.000 N 
ENDROOT
BRANCH   1  13
ATOM     10  C   UNL     1      -0.691  10.808  22.555  0.00  0.00    +0.000 A 
ATOM     11  C   UNL     1       0.054   9.720  23.006  0.00  0.00    +0.000 A 
ATOM     12  C   UNL     1       0.789   8.934  22.107  0.00  0.00    +0.000 A 
ATOM     13  C   UNL     1       0.780   9.208  20.730  0.00  0.00    +0.000 A 
ATOM     14  C   UNL     1      -0.015  10.281  20.296  0.00  0.00    +0.000 A 
ATOM     15  C   UNL     1      -0.730  11.082  21.193  0.00  0.00    +0.000 A 
BRANCH  10  17
ATOM     16  C   UNL     1      -2.598  12.095  23.092  0.00  0.00    +0.000 C 
ATOM     17  O   UNL     1      -1.374  11.501  23.515  0.00  0.00    +0.000 OA
ENDBRANCH  10  17
ENDBRANCH   1  13
BRANCH   9  18
ATOM     18  C   UNL     1       3.446   4.019  18.807  0.00  0.00    +0.000 C 
BRANCH  18  19
ATOM     19  C   UNL     1       4.977   4.058  18.881  0.00  0.00    +0.000 C 
BRANCH  19  20
ATOM     20  N   UNL     1       5.649   3.954  17.561  0.00  0.00    +0.000 NA
ATOM     21  C   UNL     1       4.709   4.137  16.443  0.00  0.00    +0.000 C 
ATOM     22  C   UNL     1       5.409   4.033  15.087  0.00  0.00    +0.000 C 
ATOM     23  C   UNL     1       6.552   5.033  14.979  0.00  0.00    +0.000 C 
ATOM     24  C   UNL     1       7.499   4.868  16.160  0.00  0.00    +0.000 C 
ATOM     25  C   UNL     1       6.747   4.937  17.490  0.00  0.00    +0.000 C 
ENDBRANCH  19  20
ENDBRANCH  18  19
ENDBRANCH   9  18
TORSDOF 5
ENDMDL
MODEL 6
REMARK VINA RESULT:      -7.1      0.797      1.396
REMARK  Name = 
REMARK  6 active torsions:
REMARK  status: ('A' for Active; 'I' for Inactive)
REMARK    1  A    between atoms: C_1  and  O_2
REMARK    2  A    between atoms: O_2  and  C_3
REMARK    3  A    between atoms: C_6  and  C_7
REMARK    4  A    between atoms: N_15  and  C_16
REMARK    5  A    between atoms: C_16  and  C_17
REMARK    6  A    between atoms: C_17  and  N_18
REMARK                            x       y       z     vdW  Elec       q    Type
REMARK                         _______ _______ _______ _____ _____    ______ ____
ROOT
ATOM      1  C   UNL     1       1.510   8.425  19.841  0.00  0.00    +0.000 A 
ATOM      2  N   UNL     1       1.898   8.982  18.661  0.00  0.00    +0.000 NA
ATOM      3  C   UNL     1       2.601   8.223  17.797  0.00  0.00    +0.000 A 
ATOM      4  N   UNL     1       2.980   6.938  17.934  0.00  0.00    +0.000 NA
ATOM      5  C   UNL     1       2.563   6.424  19.106  0.00  0.00    +0.000 A 
ATOM      6  C   UNL     1       1.829   7.084  20.079  0.00  0.00    +0.000 A 
ATOM      7  C   UNL     1       1.608   6.100  21.069  0.00  0.00    +0.000 A 
ATOM      8  N   UNL     1       2.188   4.931  20.785  0.00  0.00    +0.000 NA
ATOM      9  N   UNL     1       2.758   5.151  19.577  0.00  0.00    +0.000 N 
ENDROOT
BRANCH   1  13
ATOM     10  C   UNL     1      -0.655  10.848  22.672  0.00  0.00    +0.000 A 
ATOM     11  C   UNL     1      -0.557  11.236  21.337  0.00  0.00    +0.000 A 
ATOM     12  C   UNL     1       0.144  10.448  20.413  0.00  0.00    +0.000 A 
ATOM     13  C   UNL     1       0.780   9.260  20.808  0.00  0.00    +0.000 A 
ATOM     14  C   UNL     1       0.706   8.917  22.168  0.00  0.00    +0.000 A 
ATOM     15  C   UNL     1      -0.013   9.688  23.088  0.00  0.00    +0.000 A 
BRANCH  10  17
ATOM     16  C   UNL     1      -1.273  13.077  23.154  0.00  0.00    +0.000 C 
ATOM     17  O   UNL     1      -1.354  11.694  23.488  0.00  0.00    +0.000 OA
ENDBRANCH  10  17
ENDBRANCH   1  13
BRANCH   9  18
ATOM     18  C   UNL     1       3.366   4.037  18.871  0.00  0.00    +0.000 C 
BRANCH  18  19
ATOM     19  C   UNL     1       4.896   4.117  18.807  0.00  0.00    +0.000 C 
BRANCH  19  20
ATOM     20  N   UNL     1       5.420   4.680  17.536  0.00  0.00    +0.000 NA
ATOM     21  C   UNL     1       6.890   4.762  17.531  0.00  0.00    +0.000 C 
ATOM     22  C   UNL     1       7.422   5.338  16.218  0.00  0.00    +0.000 C 
ATOM     23  C   UNL     1       6.939   4.527  15.024  0.00  0.00    +0.000 C 
ATOM     24  C   UNL     1       5.422   4.408  15.058  0.00  0.00    +0.000 C 
ATOM     25  C   UNL     1       4.936   3.868  16.403  0.00  0.00    +0.000 C 
ENDBRANCH  19  20
ENDBRANCH  18  19
ENDBRANCH   9  18
TORSDOF 5
ENDMDL
MODEL 7
REMARK VINA RESULT:      -7.1      3.190      8.467
REMARK  Name = 
REMARK  6 active torsions:
REMARK  status: ('A' for Active; 'I' for Inactive)
REMARK    1  A    between atoms: C_1  and  O_2
REMARK    2  A    between atoms: O_2  and  C_3
REMARK    3  A    between atoms: C_6  and  C_7
REMARK    4  A    between atoms: N_15  and  C_16
REMARK    5  A    between atoms: C_16  and  C_17
REMARK    6  A    between atoms: C_17  and  N_18
REMARK                            x       y       z     vdW  Elec       q    Type
REMARK                         _______ _______ _______ _____ _____    ______ ____
ROOT
ATOM      1  C   UNL     1       3.706   5.676  18.729  0.00  0.00    +0.000 A 
ATOM      2  N   UNL     1       3.498   4.637  19.583  0.00  0.00    +0.000 NA
ATOM      3  C   UNL     1       2.600   4.796  20.576  0.00  0.00    +0.000 A 
ATOM      4  N   UNL     1       1.842   5.875  20.849  0.00  0.00    +0.000 NA
ATOM      5  C   UNL     1       2.070   6.871  19.972  0.00  0.00    +0.000 A 
ATOM      6  C   UNL     1       2.952   6.841  18.904  0.00  0.00    +0.000 A 
ATOM      7  C   UNL     1       2.776   8.095  18.278  0.00  0.00    +0.000 A 
ATOM      8  N   UNL     1       1.900   8.879  18.910  0.00  0.00    +0.000 NA
ATOM      9  N   UNL     1       1.475   8.106  19.938  0.00  0.00    +0.000 N 
ENDROOT
BRANCH   1  13
ATOM     10  C   UNL     1       6.655   5.266  15.613  0.00  0.00    +0.000 A 
ATOM     11  C   UNL     1       5.457   4.556  15.552  0.00  0.00    +0.000 A 
ATOM     12  C   UNL     1       4.494   4.690  16.562  0.00  0.00    +0.000 A 
ATOM     13  C   UNL     1       4.716   5.525  17.669  0.00  0.00    +0.000 A 
ATOM     14  C   UNL     1       5.951   6.192  17.730  0.00  0.00    +0.000 A 
ATOM     15  C   UNL     1       6.904   6.080  16.712  0.00  0.00    +0.000 A 
BRANCH  10  17
ATOM     16  C   UNL     1       6.954   4.496  13.399  0.00  0.00    +0.000 C 
ATOM     17  O   UNL     1       7.525   5.055  14.579  0.00  0.00    +0.000 OA
ENDBRANCH  10  17
ENDBRANCH   1  13
BRANCH   9  18
ATOM     18  C   UNL     1       0.386   8.581  20.775  0.00  0.00    +0.000 C 
BRANCH  18  19
ATOM     19  C   UNL     1       0.857   9.190  22.100  0.00  0.00    +0.000 C 
BRANCH  19  20
ATOM     20  N   UNL     1       0.400  10.586  22.320  0.00  0.00    +0.000 NA
ATOM     21  C   UNL     1       0.447  11.387  21.085  0.00  0.00    +0.000 C 
ATOM     22  C   UNL     1      -0.029  12.821  21.319  0.00  0.00    +0.000 C 
ATOM     23  C   UNL     1      -1.433  12.847  21.906  0.00  0.00    +0.000 C 
ATOM     24  C   UNL     1      -1.488  11.983  23.159  0.00  0.00    +0.000 C 
ATOM     25  C   UNL     1      -0.963  10.573  22.885  0.00  0.00    +0.000 C 
ENDBRANCH  19  20
ENDBRANCH  18  19
ENDBRANCH   9  18
TORSDOF 5
ENDMDL
MODEL 8
REMARK VINA RESULT:      -7.0      3.399      8.638
REMARK  Name = 
REMARK  6 active torsions:
REMARK  status: ('A' for Active; 'I' for Inactive)
REMARK    1  A    between atoms: C_1  and  O_2
REMARK    2  A    between atoms: O_2  and  C_3
REMARK    3  A    between atoms: C_6  and  C_7
REMARK    4  A    between atoms: N_15  and  C_16
REMARK    5  A    between atoms: C_16  and  C_17
REMARK    6  A    between atoms: C_17  and  N_18
REMARK                            x       y       z     vdW  Elec       q    Type
REMARK                         _______ _______ _______ _____ _____    ______ ____
ROOT
ATOM      1  C   UNL     1       4.344   4.827  17.993  0.00  0.00    +0.000 A 
ATOM      2  N   UNL     1       4.318   3.666  18.703  0.00  0.00    +0.000 NA
ATOM      3  C   UNL     1       3.567   3.617  19.822  0.00  0.00    +0.000 A 
ATOM      4  N   UNL     1       2.799   4.588  20.352  0.00  0.00    +0.000 NA
ATOM      5  C   UNL     1       2.843   5.711  19.611  0.00  0.00    +0.000 A 
ATOM      6  C   UNL     1       3.561   5.896  18.440  0.00  0.00    +0.000 A 
ATOM      7  C   UNL     1       3.227   7.209  18.037  0.00  0.00    +0.000 A 
ATOM      8  N   UNL     1       2.411   7.829  18.892  0.00  0.00    +0.000 NA
ATOM      9  N   UNL     1       2.183   6.890  19.841  0.00  0.00    +0.000 N 
ENDROOT
BRANCH   1  13
ATOM     10  C   UNL     1       6.850   5.011  14.491  0.00  0.00    +0.000 A 
ATOM     11  C   UNL     1       7.224   5.664  15.665  0.00  0.00    +0.000 A 
ATOM     12  C   UNL     1       6.413   5.603  16.807  0.00  0.00    +0.000 A 
ATOM     13  C   UNL     1       5.196   4.901  16.795  0.00  0.00    +0.000 A 
ATOM     14  C   UNL     1       4.820   4.293  15.587  0.00  0.00    +0.000 A 
ATOM     15  C   UNL     1       5.638   4.331  14.453  0.00  0.00    +0.000 A 
BRANCH  10  17
ATOM     16  C   UNL     1       7.297   4.519  12.224  0.00  0.00    +0.000 C 
ATOM     17  O   UNL     1       7.710   5.143  13.437  0.00  0.00    +0.000 OA
ENDBRANCH  10  17
ENDBRANCH   1  13
BRANCH   9  18
ATOM     18  C   UNL     1       1.203   7.161  20.879  0.00  0.00    +0.000 C 
BRANCH  18  19
ATOM     19  C   UNL     1       1.478   8.454  21.654  0.00  0.00    +0.000 C 
BRANCH  19  20
ATOM     20  N   UNL     1       0.322   9.387  21.705  0.00  0.00    +0.000 NA
ATOM     21  C   UNL     1      -0.031   9.757  23.085  0.00  0.00    +0.000 C 
ATOM     22  C   UNL     1      -1.219  10.720  23.129  0.00  0.00    +0.000 C 
ATOM     23  C   UNL     1      -0.944  11.971  22.306  0.00  0.00    +0.000 C 
ATOM     24  C   UNL     1      -0.537  11.581  20.891  0.00  0.00    +0.000 C 
ATOM     25  C   UNL     1       0.624  10.586  20.901  0.00  0.00    +0.000 C 
ENDBRANCH  19  20
ENDBRANCH  18  19
ENDBRANCH   9  18
TORSDOF 5
ENDMDL
MODEL 9
REMARK VINA RESULT:      -7.0      3.762      8.763
REMARK  Name = 
REMARK  6 active torsions:
REMARK  status: ('A' for Active; 'I' for Inactive)
REMARK    1  A    between atoms: C_1  and  O_2
REMARK    2  A    between atoms: O_2  and  C_3
REMARK    3  A    between atoms: C_6  and  C_7
REMARK    4  A    between atoms: N_15  and  C_16
REMARK    5  A    between atoms: C_16  and  C_17
REMARK    6  A    between atoms: C_17  and  N_18
REMARK                            x       y       z     vdW  Elec       q    Type
REMARK                         _______ _______ _______ _____ _____    ______ ____
ROOT
ATOM      1  C   UNL     1       2.520   7.012  18.971  0.00  0.00    +0.000 A 
ATOM      2  N   UNL     1       2.214   6.421  20.158  0.00  0.00    +0.000 NA
ATOM      3  C   UNL     1       1.464   7.112  21.041  0.00  0.00    +0.000 A 
ATOM      4  N   UNL     1       0.948   8.348  20.907  0.00  0.00    +0.000 NA
ATOM      5  C   UNL     1       1.263   8.888  19.714  0.00  0.00    +0.000 A 
ATOM      6  C   UNL     1       2.012   8.290  18.714  0.00  0.00    +0.000 A 
ATOM      7  C   UNL     1       2.004   9.238  17.666  0.00  0.00    +0.000 A 
ATOM      8  N   UNL     1       1.354  10.360  17.980  0.00  0.00    +0.000 NA
ATOM      9  N   UNL     1       0.902  10.119  19.233  0.00  0.00    +0.000 N 
ENDROOT
BRANCH   1  13
ATOM     10  C   UNL     1       5.000   4.884  16.160  0.00  0.00    +0.000 A 
ATOM     11  C   UNL     1       4.060   4.204  16.932  0.00  0.00    +0.000 A 
ATOM     12  C   UNL     1       3.250   4.893  17.845  0.00  0.00    +0.000 A 
ATOM     13  C   UNL     1       3.374   6.281  18.020  0.00  0.00    +0.000 A 
ATOM     14  C   UNL     1       4.360   6.936  17.265  0.00  0.00    +0.000 A 
ATOM     15  C   UNL     1       5.154   6.255  16.335  0.00  0.00    +0.000 A 
BRANCH  10  17
ATOM     16  C   UNL     1       6.916   4.729  14.786  0.00  0.00    +0.000 C 
ATOM     17  O   UNL     1       5.741   4.113  15.309  0.00  0.00    +0.000 OA
ENDBRANCH  10  17
ENDBRANCH   1  13
BRANCH   9  18
ATOM     18  C   UNL     1       0.008  11.079  19.857  0.00  0.00    +0.000 C 
BRANCH  18  19
ATOM     19  C   UNL     1      -0.786  11.917  18.849  0.00  0.00    +0.000 C 
BRANCH  19  20
ATOM     20  N   UNL     1      -2.094  11.326  18.467  0.00  0.00    +0.000 NA
ATOM     21  C   UNL     1      -3.229  12.095  19.007  0.00  0.00    +0.000 C 
ATOM     22  C   UNL     1      -4.572  11.482  18.607  0.00  0.00    +0.000 C 
ATOM     23  C   UNL     1      -4.694  11.361  17.095  0.00  0.00    +0.000 C 
ATOM     24  C   UNL     1      -3.497  10.603  16.536  0.00  0.00    +0.000 C 
ATOM     25  C   UNL     1      -2.179  11.227  16.998  0.00  0.00    +0.000 C 
ENDBRANCH  19  20
ENDBRANCH  18  19
ENDBRANCH   9  18
TORSDOF 5
ENDMDL
