MODEL 1
REMARK VINA RESULT:      -7.5      0.000      0.000
REMARK  Name = 
REMARK  3 active torsions:
REMARK  status: ('A' for Active; 'I' for Inactive)
REMARK    1  A    between atoms: C_1  and  O_2
REMARK    2  A    between atoms: O_2  and  C_3
REMARK    3  A    between atoms: C_6  and  N_7
REMARK                            x       y       z     vdW  Elec       q    Type
REMARK                         _______ _______ _______ _____ _____    ______ ____
ROOT
ATOM      1  N   UNL     1       2.601   7.145  18.538  0.00  0.00    +0.000 N 
ATOM      2  C   UNL     1       2.105   8.444  18.323  0.00  0.00    +0.000 C 
ATOM      3  O   UNL     1       2.277   9.096  17.300  0.00  0.00    +0.000 OA
ATOM      4  N   UNL     1       1.365   8.922  19.431  0.00  0.00    +0.000 N 
ATOM      5  C   UNL     1       1.219   8.248  20.654  0.00  0.00    +0.000 A 
ATOM      6  O   UNL     1       1.780   7.207  20.970  0.00  0.00    +0.000 OA
ATOM      7  O   UNL     1       0.354   8.897  21.526  0.00  0.00    +0.000 OA
ATOM      8  C   UNL     1       0.074  10.053  20.836  0.00  0.00    +0.000 A 
ATOM      9  C   UNL     1      -0.693  11.065  21.388  0.00  0.00    +0.000 A 
ATOM     10  C   UNL     1      -0.827  12.234  20.657  0.00  0.00    +0.000 A 
ATOM     11  C   UNL     1      -0.223  12.333  19.381  0.00  0.00    +0.000 A 
ATOM     12 CL   UNL     1      -0.353  13.833  18.546  0.00  0.00    +0.000 Cl
ATOM     13  C   UNL     1       0.507  11.263  18.817  0.00  0.00    +0.000 A 
ATOM     14  C   UNL     1       0.664  10.124  19.582  0.00  0.00    +0.000 A 
ATOM     15  H   UNL     1       2.353   6.747  19.442  0.00  0.00    +0.000 HD
ENDROOT
BRANCH   1  19
ATOM     16  C   UNL     1       5.017   4.380  16.412  0.00  0.00    +0.000 A 
ATOM     17  C   UNL     1       5.346   5.742  16.404  0.00  0.00    +0.000 A 
ATOM     18  C   UNL     1       4.567   6.699  17.086  0.00  0.00    +0.000 A 
ATOM     19  C   UNL     1       3.435   6.299  17.781  0.00  0.00    +0.000 A 
ATOM     20  C   UNL     1       3.092   4.931  17.763  0.00  0.00    +0.000 A 
ATOM     21  C   UNL     1       3.874   3.973  17.085  0.00  0.00    +0.000 A 
BRANCH  16  23
ATOM     22  C   UNL     1       6.345   4.049  14.454  0.00  0.00    +0.000 C 
ATOM     23  O   UNL     1       5.864   3.571  15.707  0.00  0.00    +0.000 OA
ENDBRANCH  16  23
ENDBRANCH   1  19
TORSDOF 2
ENDMDL
MODEL 2
REMARK VINA RESULT:      -7.4      0.177      1.034
REMARK  Name = 
REMARK  3 active torsions:
REMARK  status: ('A' for Active; 'I' for Inactive)
REMARK    1  A    between atoms: C_1  and  O_2
REMARK    2  A    between atoms: O_2  and  C_3
REMARK    3  A    between atoms: C_6  and  N_7
REMARK                            x       y       z     vdW  Elec       q    Type
REMARK                         _______ _______ _______ _____ _____    ______ ____
ROOT
ATOM      1  N   UNL     1       2.584   6.977  18.632  0.00  0.00    +0.000 N 
ATOM      2  C   UNL     1       2.098   8.271  18.369  0.00  0.00    +0.000 C 
ATOM      3  O   UNL     1       2.267   8.879  17.319  0.00  0.00    +0.000 OA
ATOM      4  N   UNL     1       1.373   8.801  19.463  0.00  0.00    +0.000 N 
ATOM      5  C   UNL     1       1.232   8.178  20.714  0.00  0.00    +0.000 A 
ATOM      6  O   UNL     1       1.785   7.146  21.066  0.00  0.00    +0.000 OA
ATOM      7  O   UNL     1       0.381   8.870  21.566  0.00  0.00    +0.000 OA
ATOM      8  C   UNL     1       0.105  10.000  20.832  0.00  0.00    +0.000 A 
ATOM      9  C   UNL     1      -0.647  11.041  21.349  0.00  0.00    +0.000 A 
ATOM     10  C   UNL     1      -0.777  12.181  20.572  0.00  0.00    +0.000 A 
ATOM     11  C   UNL     1      -0.183  12.222  19.288  0.00  0.00    +0.000 A 
ATOM     12 CL   UNL     1      -0.306  13.689  18.394  0.00  0.00    +0.000 Cl
ATOM     13  C   UNL     1       0.531  11.123  18.761  0.00  0.00    +0.000 A 
ATOM     14  C   UNL     1       0.684  10.014  19.571  0.00  0.00    +0.000 A 
ATOM     15  H   UNL     1       2.340   6.618  19.553  0.00  0.00    +0.000 HD
ENDROOT
BRANCH   1  19
ATOM     16  C   UNL     1       5.154   4.537  16.298  0.00  0.00    +0.000 A 
ATOM     17  C   UNL     1       4.032   3.973  16.920  0.00  0.00    +0.000 A 
ATOM     18  C   UNL     1       3.157   4.741  17.714  0.00  0.00    +0.000 A 
ATOM     19  C   UNL     1       3.403   6.092  17.903  0.00  0.00    +0.000 A 
ATOM     20  C   UNL     1       4.549   6.651  17.299  0.00  0.00    +0.000 A 
ATOM     21  C   UNL     1       5.422   5.884  16.500  0.00  0.00    +0.000 A 
BRANCH  16  23
ATOM     22  C   UNL     1       6.205   4.030  14.214  0.00  0.00    +0.000 C 
ATOM     23  O   UNL     1       5.911   3.671  15.560  0.00  0.00    +0.000 OA
ENDBRANCH  16  23
ENDBRANCH   1  19
TORSDOF 2
ENDMDL
MODEL 3
REMARK VINA RESULT:      -7.3      2.950      7.947
REMARK  Name = 
REMARK  3 active torsions:
REMARK  status: ('A' for Active; 'I' for Inactive)
REMARK    1  A    between atoms: C_1  and  O_2
REMARK    2  A    between atoms: O_2  and  C_3
REMARK    3  A    between atoms: C_6  and  N_7
REMARK                            x       y       z     vdW  Elec       q    Type
REMARK                         _______ _______ _______ _____ _____    ______ ____
ROOT
ATOM      1  N   UNL     1       1.439   7.837  20.473  0.00  0.00    +0.000 N 
ATOM      2  C   UNL     1       2.251   7.610  19.347  0.00  0.00    +0.000 C 
ATOM      3  O   UNL     1       2.596   8.475  18.551  0.00  0.00    +0.000 OA
ATOM      4  N   UNL     1       2.640   6.254  19.233  0.00  0.00    +0.000 N 
ATOM      5  C   UNL     1       2.196   5.216  20.068  0.00  0.00    +0.000 A 
ATOM      6  O   UNL     1       1.346   5.314  20.943  0.00  0.00    +0.000 OA
ATOM      7  O   UNL     1       2.819   4.004  19.798  0.00  0.00    +0.000 OA
ATOM      8  C   UNL     1       3.571   4.316  18.689  0.00  0.00    +0.000 A 
ATOM      9  C   UNL     1       4.296   3.355  18.006  0.00  0.00    +0.000 A 
ATOM     10  C   UNL     1       4.932   3.747  16.839  0.00  0.00    +0.000 A 
ATOM     11  C   UNL     1       4.851   5.095  16.419  0.00  0.00    +0.000 A 
ATOM     12 CL   UNL     1       5.592   5.515  14.922  0.00  0.00    +0.000 Cl
ATOM     13  C   UNL     1       4.151   6.068  17.166  0.00  0.00    +0.000 A 
ATOM     14  C   UNL     1       3.489   5.645  18.302  0.00  0.00    +0.000 A 
ATOM     15  H   UNL     1       1.260   7.005  21.033  0.00  0.00    +0.000 HD
ENDROOT
BRANCH   1  19
ATOM     16  C   UNL     1      -0.694  11.104  22.140  0.00  0.00    +0.000 A 
ATOM     17  C   UNL     1      -0.364  11.109  20.778  0.00  0.00    +0.000 A 
ATOM     18  C   UNL     1       0.353  10.051  20.182  0.00  0.00    +0.000 A 
ATOM     19  C   UNL     1       0.759   8.973  20.954  0.00  0.00    +0.000 A 
ATOM     20  C   UNL     1       0.451   8.985  22.330  0.00  0.00    +0.000 A 
ATOM     21  C   UNL     1      -0.271  10.041  22.925  0.00  0.00    +0.000 A 
BRANCH  16  23
ATOM     22  C   UNL     1      -2.607  11.967  23.280  0.00  0.00    +0.000 C 
ATOM     23  O   UNL     1      -1.390  12.196  22.576  0.00  0.00    +0.000 OA
ENDBRANCH  16  23
ENDBRANCH   1  19
TORSDOF 2
ENDMDL
MODEL 4
REMARK VINA RESULT:      -7.2      2.905      7.822
REMARK  Name = 
REMARK  3 active torsions:
REMARK  status: ('A' for Active; 'I' for Inactive)
REMARK    1  A    between atoms: C_1  and  O_2
REMARK    2  A    between atoms: O_2  and  C_3
REMARK    3  A    between atoms: C_6  and  N_7
REMARK                            x       y       z     vdW  Elec       q    Type
REMARK                         _______ _______ _______ _____ _____    ______ ____
ROOT
ATOM      1  N   UNL     1       1.312   8.751  19.447  0.00  0.00    +0.000 N 
ATOM      2  C   UNL     1       2.175   8.290  18.436  0.00  0.00    +0.000 C 
ATOM      3  O   UNL     1       2.391   8.879  17.383  0.00  0.00    +0.000 OA
ATOM      4  N   UNL     1       2.785   7.059  18.774  0.00  0.00    +0.000 N 
ATOM      5  C   UNL     1       2.499   6.308  19.925  0.00  0.00    +0.000 A 
ATOM      6  O   UNL     1       1.626   6.557  20.745  0.00  0.00    +0.000 OA
ATOM      7  O   UNL     1       3.320   5.195  20.059  0.00  0.00    +0.000 OA
ATOM      8  C   UNL     1       4.035   5.230  18.884  0.00  0.00    +0.000 A 
ATOM      9  C   UNL     1       4.924   4.226  18.542  0.00  0.00    +0.000 A 
ATOM     10  C   UNL     1       5.513   4.296  17.289  0.00  0.00    +0.000 A 
ATOM     11  C   UNL     1       5.220   5.390  16.441  0.00  0.00    +0.000 A 
ATOM     12 CL   UNL     1       5.915   5.392  14.865  0.00  0.00    +0.000 Cl
ATOM     13  C   UNL     1       4.352   6.431  16.839  0.00  0.00    +0.000 A 
ATOM     14  C   UNL     1       3.744   6.317  18.074  0.00  0.00    +0.000 A 
ATOM     15  H   UNL     1       1.260   8.141  20.261  0.00  0.00    +0.000 HD
ENDROOT
BRANCH   1  19
ATOM     16  C   UNL     1      -1.252  12.086  20.001  0.00  0.00    +0.000 A 
ATOM     17  C   UNL     1      -1.388  11.284  18.859  0.00  0.00    +0.000 A 
ATOM     18  C   UNL     1      -0.552  10.173  18.627  0.00  0.00    +0.000 A 
ATOM     19  C   UNL     1       0.444   9.856  19.538  0.00  0.00    +0.000 A 
ATOM     20  C   UNL     1       0.596  10.682  20.672  0.00  0.00    +0.000 A 
ATOM     21  C   UNL     1      -0.244  11.791  20.907  0.00  0.00    +0.000 A 
BRANCH  16  23
ATOM     22  C   UNL     1      -3.515  12.814  20.230  0.00  0.00    +0.000 C 
ATOM     23  O   UNL     1      -2.132  13.127  20.091  0.00  0.00    +0.000 OA
ENDBRANCH  16  23
ENDBRANCH   1  19
TORSDOF 2
ENDMDL
MODEL 5
REMARK VINA RESULT:      -7.2      2.953      7.959
REMARK  Name = 
REMARK  3 active torsions:
REMARK  status: ('A' for Active; 'I' for Inactive)
REMARK    1  A    between atoms: C_1  and  O_2
REMARK    2  A    between atoms: O_2  and  C_3
REMARK    3  A    between atoms: C_6  and  N_7
REMARK                            x       y       z     vdW  Elec       q    Type
REMARK                         _______ _______ _______ _____ _____    ______ ____
ROOT
ATOM      1  N   UNL     1       1.372   7.695  20.626  0.00  0.00    +0.000 N 
ATOM      2  C   UNL     1       2.179   7.522  19.486  0.00  0.00    +0.000 C 
ATOM      3  O   UNL     1       2.485   8.416  18.707  0.00  0.00    +0.000 OA
ATOM      4  N   UNL     1       2.614   6.183  19.338  0.00  0.00    +0.000 N 
ATOM      5  C   UNL     1       2.215   5.112  20.154  0.00  0.00    +0.000 A 
ATOM      6  O   UNL     1       1.373   5.160  21.039  0.00  0.00    +0.000 OA
ATOM      7  O   UNL     1       2.878   3.929  19.850  0.00  0.00    +0.000 OA
ATOM      8  C   UNL     1       3.605   4.291  18.740  0.00  0.00    +0.000 A 
ATOM      9  C   UNL     1       4.357   3.372  18.029  0.00  0.00    +0.000 A 
ATOM     10  C   UNL     1       4.966   3.812  16.864  0.00  0.00    +0.000 A 
ATOM     11  C   UNL     1       4.833   5.166  16.476  0.00  0.00    +0.000 A 
ATOM     12 CL   UNL     1       5.543   5.645  14.981  0.00  0.00    +0.000 Cl
ATOM     13  C   UNL     1       4.108   6.097  17.252  0.00  0.00    +0.000 A 
ATOM     14  C   UNL     1       3.474   5.626  18.385  0.00  0.00    +0.000 A 
ATOM     15  H   UNL     1       1.228   6.845  21.169  0.00  0.00    +0.000 HD
ENDROOT
BRANCH   1  19
ATOM     16  C   UNL     1      -0.727  11.145  21.928  0.00  0.00    +0.000 A 
ATOM     17  C   UNL     1      -0.237  10.230  22.870  0.00  0.00    +0.000 A 
ATOM     18  C   UNL     1       0.456   9.065  22.484  0.00  0.00    +0.000 A 
ATOM     19  C   UNL     1       0.658   8.796  21.139  0.00  0.00    +0.000 A 
ATOM     20  C   UNL     1       0.139   9.704  20.193  0.00  0.00    +0.000 A 
ATOM     21  C   UNL     1      -0.550  10.873  20.579  0.00  0.00    +0.000 A 
BRANCH  16  23
ATOM     22  C   UNL     1      -2.534  11.984  23.244  0.00  0.00    +0.000 C 
ATOM     23  O   UNL     1      -1.378  12.228  22.449  0.00  0.00    +0.000 OA
ENDBRANCH  16  23
ENDBRANCH   1  19
TORSDOF 2
ENDMDL
MODEL 6
REMARK VINA RESULT:      -7.0      2.894      7.794
REMARK  Name = 
REMARK  3 active torsions:
REMARK  status: ('A' for Active; 'I' for Inactive)
REMARK    1  A    between atoms: C_1  and  O_2
REMARK    2  A    between atoms: O_2  and  C_3
REMARK    3  A    between atoms: C_6  and  N_7
REMARK                            x       y       z     vdW  Elec       q    Type
REMARK                         _______ _______ _______ _____ _____    ______ ____
ROOT
ATOM      1  N   UNL     1       1.388   8.731  19.551  0.00  0.00    +0.000 N 
ATOM      2  C   UNL     1       2.230   8.276  18.520  0.00  0.00    +0.000 C 
ATOM      3  O   UNL     1       2.480   8.902  17.497  0.00  0.00    +0.000 OA
ATOM      4  N   UNL     1       2.774   6.999  18.798  0.00  0.00    +0.000 N 
ATOM      5  C   UNL     1       2.445   6.209  19.911  0.00  0.00    +0.000 A 
ATOM      6  O   UNL     1       1.583   6.463  20.741  0.00  0.00    +0.000 OA
ATOM      7  O   UNL     1       3.206   5.049  19.991  0.00  0.00    +0.000 OA
ATOM      8  C   UNL     1       3.926   5.104  18.820  0.00  0.00    +0.000 A 
ATOM      9  C   UNL     1       4.763   4.073  18.430  0.00  0.00    +0.000 A 
ATOM     10  C   UNL     1       5.359   4.174  17.183  0.00  0.00    +0.000 A 
ATOM     11  C   UNL     1       5.127   5.321  16.389  0.00  0.00    +0.000 A 
ATOM     12 CL   UNL     1       5.827   5.364  14.816  0.00  0.00    +0.000 Cl
ATOM     13  C   UNL     1       4.313   6.386  16.836  0.00  0.00    +0.000 A 
ATOM     14  C   UNL     1       3.695   6.244  18.064  0.00  0.00    +0.000 A 
ATOM     15  H   UNL     1       1.301   8.085  20.334  0.00  0.00    +0.000 HD
ENDROOT
BRANCH   1  19
ATOM     16  C   UNL     1      -1.112  12.155  19.711  0.00  0.00    +0.000 A 
ATOM     17  C   UNL     1      -0.139  11.955  20.700  0.00  0.00    +0.000 A 
ATOM     18  C   UNL     1       0.706  10.827  20.695  0.00  0.00    +0.000 A 
ATOM     19  C   UNL     1       0.578   9.874  19.696  0.00  0.00    +0.000 A 
ATOM     20  C   UNL     1      -0.420  10.064  18.718  0.00  0.00    +0.000 A 
ATOM     21  C   UNL     1      -1.263  11.196  18.720  0.00  0.00    +0.000 A 
BRANCH  16  23
ATOM     22  C   UNL     1      -3.108  13.188  20.520  0.00  0.00    +0.000 C 
ATOM     23  O   UNL     1      -1.857  13.293  19.847  0.00  0.00    +0.000 OA
ENDBRANCH  16  23
ENDBRANCH   1  19
TORSDOF 2
ENDMDL
MODEL 7
REMARK VINA RESULT:      -7.0      3.144      8.372
REMARK  Name = 
REMARK  3 active torsions:
REMARK  status: ('A' for Active; 'I' for Inactive)
REMARK    1  A    between atoms: C_1  and  O_2
REMARK    2  A    between atoms: O_2  and  C_3
REMARK    3  A    between atoms: C_6  and  N_7
REMARK                            x       y       z     vdW  Elec       q    Type
REMARK                         _______ _______ _______ _____ _____    ______ ____
ROOT
ATOM      1  N   UNL     1       1.075   8.818  20.151  0.00  0.00    +0.000 N 
ATOM      2  C   UNL     1       1.628   7.531  20.283  0.00  0.00    +0.000 C 
ATOM      3  O   UNL     1       1.429   6.781  21.232  0.00  0.00    +0.000 OA
ATOM      4  N   UNL     1       2.446   7.185  19.182  0.00  0.00    +0.000 N 
ATOM      5  C   UNL     1       2.774   8.045  18.121  0.00  0.00    +0.000 A 
ATOM      6  O   UNL     1       2.481   9.230  18.042  0.00  0.00    +0.000 OA
ATOM      7  O   UNL     1       3.505   7.412  17.123  0.00  0.00    +0.000 OA
ATOM      8  C   UNL     1       3.715   6.169  17.672  0.00  0.00    +0.000 A 
ATOM      9  C   UNL     1       4.504   5.219  17.048  0.00  0.00    +0.000 A 
ATOM     10  C   UNL     1       4.742   4.038  17.733  0.00  0.00    +0.000 A 
ATOM     11  C   UNL     1       4.149   3.835  19.001  0.00  0.00    +0.000 A 
ATOM     12 CL   UNL     1       4.539   2.386  19.847  0.00  0.00    +0.000 Cl
ATOM     13  C   UNL     1       3.301   4.799  19.591  0.00  0.00    +0.000 A 
ATOM     14  C   UNL     1       3.113   5.985  18.909  0.00  0.00    +0.000 A 
ATOM     15  H   UNL     1       1.337   9.298  19.292  0.00  0.00    +0.000 HD
ENDROOT
BRANCH   1  19
ATOM     16  C   UNL     1      -1.277  11.430  22.528  0.00  0.00    +0.000 A 
ATOM     17  C   UNL     1      -0.733  10.270  23.096  0.00  0.00    +0.000 A 
ATOM     18  C   UNL     1       0.045   9.367  22.343  0.00  0.00    +0.000 A 
ATOM     19  C   UNL     1       0.280   9.613  20.999  0.00  0.00    +0.000 A 
ATOM     20  C   UNL     1      -0.292  10.767  20.424  0.00  0.00    +0.000 A 
ATOM     21  C   UNL     1      -1.066  11.673  21.178  0.00  0.00    +0.000 A 
BRANCH  16  23
ATOM     22  C   UNL     1      -3.360  12.485  23.028  0.00  0.00    +0.000 C 
ATOM     23  O   UNL     1      -2.008  12.209  23.380  0.00  0.00    +0.000 OA
ENDBRANCH  16  23
ENDBRANCH   1  19
TORSDOF 2
ENDMDL
MODEL 8
REMARK VINA RESULT:      -6.9      3.131      8.307
REMARK  Name = 
REMARK  3 active torsions:
REMARK  status: ('A' for Active; 'I' for Inactive)
REMARK    1  A    between atoms: C_1  and  O_2
REMARK    2  A    between atoms: O_2  and  C_3
REMARK    3  A    between atoms: C_6  and  N_7
REMARK                            x       y       z     vdW  Elec       q    Type
REMARK                         _______ _______ _______ _____ _____    ______ ____
ROOT
ATOM      1  N   UNL     1       1.148   8.896  20.041  0.00  0.00    +0.000 N 
ATOM      2  C   UNL     1       1.675   7.604  20.218  0.00  0.00    +0.000 C 
ATOM      3  O   UNL     1       1.460   6.891  21.191  0.00  0.00    +0.000 OA
ATOM      4  N   UNL     1       2.488   7.205  19.131  0.00  0.00    +0.000 N 
ATOM      5  C   UNL     1       2.834   8.021  18.042  0.00  0.00    +0.000 A 
ATOM      6  O   UNL     1       2.565   9.209  17.922  0.00  0.00    +0.000 OA
ATOM      7  O   UNL     1       3.554   7.342  17.067  0.00  0.00    +0.000 OA
ATOM      8  C   UNL     1       3.739   6.114  17.659  0.00  0.00    +0.000 A 
ATOM      9  C   UNL     1       4.510   5.128  17.068  0.00  0.00    +0.000 A 
ATOM     10  C   UNL     1       4.724   3.966  17.793  0.00  0.00    +0.000 A 
ATOM     11  C   UNL     1       4.125   3.818  19.066  0.00  0.00    +0.000 A 
ATOM     12 CL   UNL     1       4.485   2.391  19.961  0.00  0.00    +0.000 Cl
ATOM     13  C   UNL     1       3.295   4.817  19.621  0.00  0.00    +0.000 A 
ATOM     14  C   UNL     1       3.132   5.984  18.899  0.00  0.00    +0.000 A 
ATOM     15  H   UNL     1       1.421   9.342  19.167  0.00  0.00    +0.000 HD
ENDROOT
BRANCH   1  19
ATOM     16  C   UNL     1      -1.241  11.203  22.681  0.00  0.00    +0.000 A 
ATOM     17  C   UNL     1      -1.064  11.622  21.356  0.00  0.00    +0.000 A 
ATOM     18  C   UNL     1      -0.270  10.894  20.445  0.00  0.00    +0.000 A 
ATOM     19  C   UNL     1       0.368   9.735  20.860  0.00  0.00    +0.000 A 
ATOM     20  C   UNL     1       0.210   9.332  22.202  0.00  0.00    +0.000 A 
ATOM     21  C   UNL     1      -0.589  10.057  23.112  0.00  0.00    +0.000 A 
BRANCH  16  23
ATOM     22  C   UNL     1      -3.277  12.435  22.890  0.00  0.00    +0.000 C 
ATOM     23  O   UNL     1      -2.037  12.009  23.446  0.00  0.00    +0.000 OA
ENDBRANCH  16  23
ENDBRANCH   1  19
TORSDOF 2
ENDMDL
MODEL 9
REMARK VINA RESULT:      -6.9      2.053      2.926
REMARK  Name = 
REMARK  3 active torsions:
REMARK  status: ('A' for Active; 'I' for Inactive)
REMARK    1  A    between atoms: C_1  and  O_2
REMARK    2  A    between atoms: O_2  and  C_3
REMARK    3  A    between atoms: C_6  and  N_7
REMARK                            x       y       z     vdW  Elec       q    Type
REMARK                         _______ _______ _______ _____ _____    ______ ____
ROOT
ATOM      1  N   UNL     1       2.416   7.434  18.725  0.00  0.00    +0.000 N 
ATOM      2  C   UNL     1       1.646   8.003  19.756  0.00  0.00    +0.000 C 
ATOM      3  O   UNL     1       1.253   7.399  20.747  0.00  0.00    +0.000 OA
ATOM      4  N   UNL     1       1.375   9.373  19.527  0.00  0.00    +0.000 N 
ATOM      5  C   UNL     1       1.727  10.080  18.366  0.00  0.00    +0.000 A 
ATOM      6  O   UNL     1       2.228   9.600  17.359  0.00  0.00    +0.000 OA
ATOM      7  O   UNL     1       1.434  11.436  18.453  0.00  0.00    +0.000 OA
ATOM      8  C   UNL     1       0.780  11.506  19.661  0.00  0.00    +0.000 A 
ATOM      9  C   UNL     1       0.211  12.683  20.114  0.00  0.00    +0.000 A 
ATOM     10  C   UNL     1      -0.519  12.625  21.291  0.00  0.00    +0.000 A 
ATOM     11  C   UNL     1      -0.619  11.400  21.991  0.00  0.00    +0.000 A 
ATOM     12 CL   UNL     1      -1.601  11.361  23.406  0.00  0.00    +0.000 Cl
ATOM     13  C   UNL     1       0.021  10.226  21.535  0.00  0.00    +0.000 A 
ATOM     14  C   UNL     1       0.707  10.297  20.338  0.00  0.00    +0.000 A 
ATOM     15  H   UNL     1       2.665   8.085  17.983  0.00  0.00    +0.000 HD
ENDROOT
BRANCH   1  19
ATOM     16  C   UNL     1       3.487   3.399  17.965  0.00  0.00    +0.000 A 
ATOM     17  C   UNL     1       4.438   4.286  18.489  0.00  0.00    +0.000 A 
ATOM     18  C   UNL     1       4.131   5.638  18.747  0.00  0.00    +0.000 A 
ATOM     19  C   UNL     1       2.861   6.122  18.472  0.00  0.00    +0.000 A 
ATOM     20  C   UNL     1       1.915   5.234  17.919  0.00  0.00    +0.000 A 
ATOM     21  C   UNL     1       2.220   3.880  17.665  0.00  0.00    +0.000 A 
BRANCH  16  23
ATOM     22  C   UNL     1       3.747   1.188  18.828  0.00  0.00    +0.000 C 
ATOM     23  O   UNL     1       3.928   2.121  17.768  0.00  0.00    +0.000 OA
ENDBRANCH  16  23
ENDBRANCH   1  19
TORSDOF 2
ENDMDL
