MODEL 1
REMARK VINA RESULT:      -7.6      0.000      0.000
REMARK  Name = 
REMARK  8 active torsions:
REMARK  status: ('A' for Active; 'I' for Inactive)
REMARK    1  A    between atoms: C_1  and  C_2
REMARK    2  A    between atoms: C_2  and  O_3
REMARK    3  A    between atoms: O_3  and  C_4
REMARK    4  A    between atoms: C_4  and  C_6
REMARK    5  A    between atoms: C_7  and  O_8
REMARK    6  A    between atoms: O_8  and  C_9
REMARK    7  A    between atoms: C_9  and  C_11
REMARK    8  A    between atoms: N_22  and  C_23
REMARK                            x       y       z     vdW  Elec       q    Type
REMARK                         _______ _______ _______ _____ _____    ______ ____
ROOT
ATOM      1  C   UNL     1       4.741   5.970  18.637  0.00  0.00    +0.000 C 
ATOM      2  C   UNL     1       5.470   4.942  19.538  0.00  0.00    +0.000 C 
ATOM      3  C   UNL     1       6.964   5.367  19.468  0.00  0.00    +0.000 C 
ATOM      4  C   UNL     1       7.484   5.453  18.005  0.00  0.00    +0.000 C 
ATOM      5  C   UNL     1       7.622   6.899  17.521  0.00  0.00    +0.000 C 
ATOM      6  C   UNL     1       6.219   7.268  17.017  0.00  0.00    +0.000 C 
ATOM      7  C   UNL     1       5.382   5.984  17.201  0.00  0.00    +0.000 C 
ATOM      8  N   UNL     1       6.429   4.938  17.124  0.00  0.00    +0.000 NA
ATOM      9  C   UNL     1       6.871   4.587  15.781  0.00  0.00    +0.000 C 
ENDROOT
BRANCH   1  10
ATOM     10  C   UNL     1       3.230   5.828  18.620  0.00  0.00    +0.000 C 
ATOM     11  O   UNL     1       2.572   5.460  17.656  0.00  0.00    +0.000 OA
BRANCH  10  12
ATOM     12  O   UNL     1       2.690   6.332  19.768  0.00  0.00    +0.000 OA
BRANCH  12  14
ATOM     13  C   UNL     1       1.319   7.951  20.954  0.00  0.00    +0.000 C 
ATOM     14  C   UNL     1       2.092   7.637  19.685  0.00  0.00    +0.000 C 
ENDBRANCH  12  14
ENDBRANCH  10  12
ENDBRANCH   1  10
BRANCH   2  15
ATOM     15  O   UNL     1       5.146   3.611  19.022  0.00  0.00    +0.000 OA
BRANCH  15  16
ATOM     16  C   UNL     1       4.625   2.656  19.835  0.00  0.00    +0.000 C 
ATOM     17  O   UNL     1       5.247   1.816  20.465  0.00  0.00    +0.000 OA
BRANCH  16  18
ATOM     18  C   UNL     1       3.136   2.685  19.781  0.00  0.00    +0.000 A 
ATOM     19  C   UNL     1       2.445   3.153  20.910  0.00  0.00    +0.000 A 
ATOM     20  C   UNL     1       1.047   3.183  20.924  0.00  0.00    +0.000 A 
ATOM     21  C   UNL     1       0.333   2.745  19.809  0.00  0.00    +0.000 A 
ATOM     22  C   UNL     1       1.012   2.264  18.689  0.00  0.00    +0.000 A 
ATOM     23  C   UNL     1       2.409   2.231  18.674  0.00  0.00    +0.000 A 
ENDBRANCH  16  18
ENDBRANCH  15  16
ENDBRANCH   2  15
TORSDOF 6
ENDMDL
MODEL 2
REMARK VINA RESULT:      -7.5      1.711      5.392
REMARK  Name = 
REMARK  8 active torsions:
REMARK  status: ('A' for Active; 'I' for Inactive)
REMARK    1  A    between atoms: C_1  and  C_2
REMARK    2  A    between atoms: C_2  and  O_3
REMARK    3  A    between atoms: O_3  and  C_4
REMARK    4  A    between atoms: C_4  and  C_6
REMARK    5  A    between atoms: C_7  and  O_8
REMARK    6  A    between atoms: O_8  and  C_9
REMARK    7  A    between atoms: C_9  and  C_11
REMARK    8  A    between atoms: N_22  and  C_23
REMARK                            x       y       z     vdW  Elec       q    Type
REMARK                         _______ _______ _______ _____ _____    ______ ____
ROOT
ATOM      1  C   UNL     1       2.219   5.048  18.407  0.00  0.00    +0.000 C 
ATOM      2  C   UNL     1       3.087   4.225  17.422  0.00  0.00    +0.000 C 
ATOM      3  C   UNL     1       2.393   2.835  17.373  0.00  0.00    +0.000 C 
ATOM      4  C   UNL     1       2.225   2.211  18.788  0.00  0.00    +0.000 C 
ATOM      5  C   UNL     1       0.783   2.298  19.295  0.00  0.00    +0.000 C 
ATOM      6  C   UNL     1       0.684   3.695  19.926  0.00  0.00    +0.000 C 
ATOM      7  C   UNL     1       2.099   4.295  19.783  0.00  0.00    +0.000 C 
ATOM      8  N   UNL     1       2.934   3.071  19.744  0.00  0.00    +0.000 NA
ATOM      9  C   UNL     1       3.208   2.455  21.034  0.00  0.00    +0.000 C 
ENDROOT
BRANCH   1  10
ATOM     10  C   UNL     1       2.638   6.500  18.551  0.00  0.00    +0.000 C 
ATOM     11  O   UNL     1       3.205   7.153  17.685  0.00  0.00    +0.000 OA
BRANCH  10  12
ATOM     12  O   UNL     1       2.454   6.925  19.834  0.00  0.00    +0.000 OA
BRANCH  12  14
ATOM     13  C   UNL     1       0.934   8.183  21.253  0.00  0.00    +0.000 C 
ATOM     14  C   UNL     1       1.806   8.197  20.010  0.00  0.00    +0.000 C 
ENDBRANCH  12  14
ENDBRANCH  10  12
ENDBRANCH   1  10
BRANCH   2  15
ATOM     15  O   UNL     1       4.459   4.253  17.931  0.00  0.00    +0.000 OA
BRANCH  15  16
ATOM     16  C   UNL     1       5.512   4.406  17.088  0.00  0.00    +0.000 C 
ATOM     17  O   UNL     1       5.747   3.748  16.086  0.00  0.00    +0.000 OA
BRANCH  16  18
ATOM     18  C   UNL     1       6.447   5.442  17.610  0.00  0.00    +0.000 A 
ATOM     19  C   UNL     1       6.552   6.651  16.901  0.00  0.00    +0.000 A 
ATOM     20  C   UNL     1       7.430   7.651  17.333  0.00  0.00    +0.000 A 
ATOM     21  C   UNL     1       8.206   7.448  18.473  0.00  0.00    +0.000 A 
ATOM     22  C   UNL     1       8.118   6.244  19.174  0.00  0.00    +0.000 A 
ATOM     23  C   UNL     1       7.245   5.242  18.743  0.00  0.00    +0.000 A 
ENDBRANCH  16  18
ENDBRANCH  15  16
ENDBRANCH   2  15
TORSDOF 6
ENDMDL
MODEL 3
REMARK VINA RESULT:      -7.5      1.682      5.321
REMARK  Name = 
REMARK  8 active torsions:
REMARK  status: ('A' for Active; 'I' for Inactive)
REMARK    1  A    between atoms: C_1  and  C_2
REMARK    2  A    between atoms: C_2  and  O_3
REMARK    3  A    between atoms: O_3  and  C_4
REMARK    4  A    between atoms: C_4  and  C_6
REMARK    5  A    between atoms: C_7  and  O_8
REMARK    6  A    between atoms: O_8  and  C_9
REMARK    7  A    between atoms: C_9  and  C_11
REMARK    8  A    between atoms: N_22  and  C_23
REMARK                            x       y       z     vdW  Elec       q    Type
REMARK                         _______ _______ _______ _____ _____    ______ ____
ROOT
ATOM      1  C   UNL     1       2.363   5.093  18.375  0.00  0.00    +0.000 C 
ATOM      2  C   UNL     1       3.146   4.218  17.364  0.00  0.00    +0.000 C 
ATOM      3  C   UNL     1       2.415   2.846  17.401  0.00  0.00    +0.000 C 
ATOM      4  C   UNL     1       2.320   2.269  18.842  0.00  0.00    +0.000 C 
ATOM      5  C   UNL     1       0.915   2.411  19.434  0.00  0.00    +0.000 C 
ATOM      6  C   UNL     1       0.892   3.828  20.027  0.00  0.00    +0.000 C 
ATOM      7  C   UNL     1       2.311   4.384  19.778  0.00  0.00    +0.000 C 
ATOM      8  N   UNL     1       3.109   3.136  19.725  0.00  0.00    +0.000 NA
ATOM      9  C   UNL     1       3.449   2.550  21.014  0.00  0.00    +0.000 C 
ENDROOT
BRANCH   1  10
ATOM     10  C   UNL     1       2.828   6.536  18.448  0.00  0.00    +0.000 C 
ATOM     11  O   UNL     1       3.404   7.132  17.547  0.00  0.00    +0.000 OA
BRANCH  10  12
ATOM     12  O   UNL     1       2.674   7.024  19.713  0.00  0.00    +0.000 OA
BRANCH  12  14
ATOM     13  C   UNL     1       1.223   8.160  21.298  0.00  0.00    +0.000 C 
ATOM     14  C   UNL     1       1.758   8.121  19.877  0.00  0.00    +0.000 C 
ENDBRANCH  12  14
ENDBRANCH  10  12
ENDBRANCH   1  10
BRANCH   2  15
ATOM     15  O   UNL     1       4.548   4.222  17.786  0.00  0.00    +0.000 OA
BRANCH  15  16
ATOM     16  C   UNL     1       5.543   4.457  16.893  0.00  0.00    +0.000 C 
ATOM     17  O   UNL     1       5.730   3.874  15.837  0.00  0.00    +0.000 OA
BRANCH  16  18
ATOM     18  C   UNL     1       6.486   5.480  17.426  0.00  0.00    +0.000 A 
ATOM     19  C   UNL     1       7.161   5.194  18.625  0.00  0.00    +0.000 A 
ATOM     20  C   UNL     1       8.042   6.126  19.183  0.00  0.00    +0.000 A 
ATOM     21  C   UNL     1       8.252   7.349  18.547  0.00  0.00    +0.000 A 
ATOM     22  C   UNL     1       7.574   7.647  17.364  0.00  0.00    +0.000 A 
ATOM     23  C   UNL     1       6.691   6.719  16.806  0.00  0.00    +0.000 A 
ENDBRANCH  16  18
ENDBRANCH  15  16
ENDBRANCH   2  15
TORSDOF 6
ENDMDL
MODEL 4
REMARK VINA RESULT:      -7.4      1.874      5.396
REMARK  Name = 
REMARK  8 active torsions:
REMARK  status: ('A' for Active; 'I' for Inactive)
REMARK    1  A    between atoms: C_1  and  C_2
REMARK    2  A    between atoms: C_2  and  O_3
REMARK    3  A    between atoms: O_3  and  C_4
REMARK    4  A    between atoms: C_4  and  C_6
REMARK    5  A    between atoms: C_7  and  O_8
REMARK    6  A    between atoms: O_8  and  C_9
REMARK    7  A    between atoms: C_9  and  C_11
REMARK    8  A    between atoms: N_22  and  C_23
REMARK                            x       y       z     vdW  Elec       q    Type
REMARK                         _______ _______ _______ _____ _____    ______ ____
ROOT
ATOM      1  C   UNL     1       2.319   5.015  18.446  0.00  0.00    +0.000 C 
ATOM      2  C   UNL     1       3.038   4.100  17.423  0.00  0.00    +0.000 C 
ATOM      3  C   UNL     1       2.236   2.768  17.475  0.00  0.00    +0.000 C 
ATOM      4  C   UNL     1       2.136   2.198  18.918  0.00  0.00    +0.000 C 
ATOM      5  C   UNL     1       0.750   2.414  19.534  0.00  0.00    +0.000 C 
ATOM      6  C   UNL     1       0.811   3.830  20.125  0.00  0.00    +0.000 C 
ATOM      7  C   UNL     1       2.253   4.311  19.851  0.00  0.00    +0.000 C 
ATOM      8  N   UNL     1       2.984   3.023  19.787  0.00  0.00    +0.000 NA
ATOM      9  C   UNL     1       3.313   2.421  21.071  0.00  0.00    +0.000 C 
ENDROOT
BRANCH   1  10
ATOM     10  C   UNL     1       2.860   6.432  18.509  0.00  0.00    +0.000 C 
ATOM     11  O   UNL     1       3.748   6.809  19.262  0.00  0.00    +0.000 OA
BRANCH  10  12
ATOM     12  O   UNL     1       2.104   7.265  17.737  0.00  0.00    +0.000 OA
BRANCH  12  14
ATOM     13  C   UNL     1       1.143   9.472  18.076  0.00  0.00    +0.000 C 
ATOM     14  C   UNL     1       2.405   8.670  17.812  0.00  0.00    +0.000 C 
ENDBRANCH  12  14
ENDBRANCH  10  12
ENDBRANCH   1  10
BRANCH   2  15
ATOM     15  O   UNL     1       4.444   4.031  17.822  0.00  0.00    +0.000 OA
BRANCH  15  16
ATOM     16  C   UNL     1       5.436   4.260  16.923  0.00  0.00    +0.000 C 
ATOM     17  O   UNL     1       5.634   3.650  15.884  0.00  0.00    +0.000 OA
BRANCH  16  18
ATOM     18  C   UNL     1       6.357   5.317  17.426  0.00  0.00    +0.000 A 
ATOM     19  C   UNL     1       7.134   5.028  18.560  0.00  0.00    +0.000 A 
ATOM     20  C   UNL     1       8.001   5.990  19.090  0.00  0.00    +0.000 A 
ATOM     21  C   UNL     1       8.095   7.245  18.488  0.00  0.00    +0.000 A 
ATOM     22  C   UNL     1       7.316   7.544  17.370  0.00  0.00    +0.000 A 
ATOM     23  C   UNL     1       6.447   6.586  16.841  0.00  0.00    +0.000 A 
ENDBRANCH  16  18
ENDBRANCH  15  16
ENDBRANCH   2  15
TORSDOF 6
ENDMDL
MODEL 5
REMARK VINA RESULT:      -7.3      1.447      4.400
REMARK  Name = 
REMARK  8 active torsions:
REMARK  status: ('A' for Active; 'I' for Inactive)
REMARK    1  A    between atoms: C_1  and  C_2
REMARK    2  A    between atoms: C_2  and  O_3
REMARK    3  A    between atoms: O_3  and  C_4
REMARK    4  A    between atoms: C_4  and  C_6
REMARK    5  A    between atoms: C_7  and  O_8
REMARK    6  A    between atoms: O_8  and  C_9
REMARK    7  A    between atoms: C_9  and  C_11
REMARK    8  A    between atoms: N_22  and  C_23
REMARK                            x       y       z     vdW  Elec       q    Type
REMARK                         _______ _______ _______ _____ _____    ______ ____
ROOT
ATOM      1  C   UNL     1       4.847   4.169  17.744  0.00  0.00    +0.000 C 
ATOM      2  C   UNL     1       3.991   5.456  17.642  0.00  0.00    +0.000 C 
ATOM      3  C   UNL     1       4.675   6.281  16.516  0.00  0.00    +0.000 C 
ATOM      4  C   UNL     1       6.188   6.511  16.792  0.00  0.00    +0.000 C 
ATOM      5  C   UNL     1       7.081   5.620  15.923  0.00  0.00    +0.000 C 
ATOM      6  C   UNL     1       7.167   4.297  16.697  0.00  0.00    +0.000 C 
ATOM      7  C   UNL     1       6.356   4.539  17.988  0.00  0.00    +0.000 C 
ATOM      8  N   UNL     1       6.480   6.009  18.140  0.00  0.00    +0.000 NA
ATOM      9  C   UNL     1       7.734   6.479  18.711  0.00  0.00    +0.000 C 
ENDROOT
BRANCH   1  10
ATOM     10  C   UNL     1       4.315   3.137  18.722  0.00  0.00    +0.000 C 
ATOM     11  O   UNL     1       4.863   2.818  19.769  0.00  0.00    +0.000 OA
BRANCH  10  12
ATOM     12  O   UNL     1       3.237   2.489  18.193  0.00  0.00    +0.000 OA
BRANCH  12  14
ATOM     13  C   UNL     1       0.877   2.504  18.775  0.00  0.00    +0.000 C 
ATOM     14  C   UNL     1       2.262   1.986  19.122  0.00  0.00    +0.000 C 
ENDBRANCH  12  14
ENDBRANCH  10  12
ENDBRANCH   1  10
BRANCH   2  15
ATOM     15  O   UNL     1       3.968   6.063  18.974  0.00  0.00    +0.000 OA
BRANCH  15  16
ATOM     16  C   UNL     1       2.806   6.176  19.668  0.00  0.00    +0.000 C 
ATOM     17  O   UNL     1       2.264   5.305  20.329  0.00  0.00    +0.000 OA
BRANCH  16  18
ATOM     18  C   UNL     1       2.189   7.511  19.432  0.00  0.00    +0.000 A 
ATOM     19  C   UNL     1       1.526   8.130  20.505  0.00  0.00    +0.000 A 
ATOM     20  C   UNL     1       0.909   9.374  20.334  0.00  0.00    +0.000 A 
ATOM     21  C   UNL     1       0.952  10.005  19.092  0.00  0.00    +0.000 A 
ATOM     22  C   UNL     1       1.596   9.390  18.017  0.00  0.00    +0.000 A 
ATOM     23  C   UNL     1       2.209   8.146  18.184  0.00  0.00    +0.000 A 
ENDBRANCH  16  18
ENDBRANCH  15  16
ENDBRANCH   2  15
TORSDOF 6
ENDMDL
MODEL 6
REMARK VINA RESULT:      -7.3      0.482      1.111
REMARK  Name = 
REMARK  8 active torsions:
REMARK  status: ('A' for Active; 'I' for Inactive)
REMARK    1  A    between atoms: C_1  and  C_2
REMARK    2  A    between atoms: C_2  and  O_3
REMARK    3  A    between atoms: O_3  and  C_4
REMARK    4  A    between atoms: C_4  and  C_6
REMARK    5  A    between atoms: C_7  and  O_8
REMARK    6  A    between atoms: O_8  and  C_9
REMARK    7  A    between atoms: C_9  and  C_11
REMARK    8  A    between atoms: N_22  and  C_23
REMARK                            x       y       z     vdW  Elec       q    Type
REMARK                         _______ _______ _______ _____ _____    ______ ____
ROOT
ATOM      1  C   UNL     1       4.738   5.825  18.587  0.00  0.00    +0.000 C 
ATOM      2  C   UNL     1       5.530   4.773  19.404  0.00  0.00    +0.000 C 
ATOM      3  C   UNL     1       7.019   5.090  19.091  0.00  0.00    +0.000 C 
ATOM      4  C   UNL     1       7.311   5.099  17.564  0.00  0.00    +0.000 C 
ATOM      5  C   UNL     1       7.466   6.519  17.010  0.00  0.00    +0.000 C 
ATOM      6  C   UNL     1       6.029   6.972  16.713  0.00  0.00    +0.000 C 
ATOM      7  C   UNL     1       5.149   5.755  17.071  0.00  0.00    +0.000 C 
ATOM      8  N   UNL     1       6.101   4.636  16.873  0.00  0.00    +0.000 NA
ATOM      9  C   UNL     1       6.306   4.219  15.494  0.00  0.00    +0.000 C 
ENDROOT
BRANCH   1  10
ATOM     10  C   UNL     1       3.237   5.789  18.806  0.00  0.00    +0.000 C 
ATOM     11  O   UNL     1       2.403   5.668  17.919  0.00  0.00    +0.000 OA
BRANCH  10  12
ATOM     12  O   UNL     1       2.937   6.086  20.104  0.00  0.00    +0.000 OA
BRANCH  12  14
ATOM     13  C   UNL     1       1.504   7.910  20.830  0.00  0.00    +0.000 C 
ATOM     14  C   UNL     1       1.577   6.460  20.387  0.00  0.00    +0.000 C 
ENDBRANCH  12  14
ENDBRANCH  10  12
ENDBRANCH   1  10
BRANCH   2  15
ATOM     15  O   UNL     1       5.043   3.455  18.993  0.00  0.00    +0.000 OA
BRANCH  15  16
ATOM     16  C   UNL     1       4.595   2.560  19.911  0.00  0.00    +0.000 C 
ATOM     17  O   UNL     1       5.268   1.755  20.535  0.00  0.00    +0.000 OA
BRANCH  16  18
ATOM     18  C   UNL     1       3.107   2.604  19.993  0.00  0.00    +0.000 A 
ATOM     19  C   UNL     1       2.376   2.381  18.815  0.00  0.00    +0.000 A 
ATOM     20  C   UNL     1       0.978   2.431  18.828  0.00  0.00    +0.000 A 
ATOM     21  C   UNL     1       0.305   2.703  20.018  0.00  0.00    +0.000 A 
ATOM     22  C   UNL     1       1.025   2.940  21.190  0.00  0.00    +0.000 A 
ATOM     23  C   UNL     1       2.422   2.894  21.179  0.00  0.00    +0.000 A 
ENDBRANCH  16  18
ENDBRANCH  15  16
ENDBRANCH   2  15
TORSDOF 6
ENDMDL
MODEL 7
REMARK VINA RESULT:      -7.3      1.882      5.436
REMARK  Name = 
REMARK  8 active torsions:
REMARK  status: ('A' for Active; 'I' for Inactive)
REMARK    1  A    between atoms: C_1  and  C_2
REMARK    2  A    between atoms: C_2  and  O_3
REMARK    3  A    between atoms: O_3  and  C_4
REMARK    4  A    between atoms: C_4  and  C_6
REMARK    5  A    between atoms: C_7  and  O_8
REMARK    6  A    between atoms: O_8  and  C_9
REMARK    7  A    between atoms: C_9  and  C_11
REMARK    8  A    between atoms: N_22  and  C_23
REMARK                            x       y       z     vdW  Elec       q    Type
REMARK                         _______ _______ _______ _____ _____    ______ ____
ROOT
ATOM      1  C   UNL     1       2.315   4.970  18.444  0.00  0.00    +0.000 C 
ATOM      2  C   UNL     1       2.967   4.034  17.395  0.00  0.00    +0.000 C 
ATOM      3  C   UNL     1       2.135   2.724  17.483  0.00  0.00    +0.000 C 
ATOM      4  C   UNL     1       2.080   2.159  18.931  0.00  0.00    +0.000 C 
ATOM      5  C   UNL     1       0.726   2.411  19.602  0.00  0.00    +0.000 C 
ATOM      6  C   UNL     1       0.848   3.827  20.186  0.00  0.00    +0.000 C 
ATOM      7  C   UNL     1       2.289   4.270  19.852  0.00  0.00    +0.000 C 
ATOM      8  N   UNL     1       2.983   2.964  19.762  0.00  0.00    +0.000 NA
ATOM      9  C   UNL     1       3.350   2.356  21.033  0.00  0.00    +0.000 C 
ENDROOT
BRANCH   1  10
ATOM     10  C   UNL     1       2.894   6.372  18.480  0.00  0.00    +0.000 C 
ATOM     11  O   UNL     1       3.845   6.719  19.166  0.00  0.00    +0.000 OA
BRANCH  10  12
ATOM     12  O   UNL     1       2.102   7.233  17.777  0.00  0.00    +0.000 OA
BRANCH  12  14
ATOM     13  C   UNL     1       1.161   9.465  17.979  0.00  0.00    +0.000 C 
ATOM     14  C   UNL     1       2.425   8.632  17.865  0.00  0.00    +0.000 C 
ENDBRANCH  12  14
ENDBRANCH  10  12
ENDBRANCH   1  10
BRANCH   2  15
ATOM     15  O   UNL     1       4.387   3.930  17.735  0.00  0.00    +0.000 OA
BRANCH  15  16
ATOM     16  C   UNL     1       5.346   4.293  16.845  0.00  0.00    +0.000 C 
ATOM     17  O   UNL     1       5.498   3.852  15.716  0.00  0.00    +0.000 OA
BRANCH  16  18
ATOM     18  C   UNL     1       6.298   5.253  17.471  0.00  0.00    +0.000 A 
ATOM     19  C   UNL     1       6.518   6.479  16.822  0.00  0.00    +0.000 A 
ATOM     20  C   UNL     1       7.417   7.411  17.352  0.00  0.00    +0.000 A 
ATOM     21  C   UNL     1       8.100   7.121  18.533  0.00  0.00    +0.000 A 
ATOM     22  C   UNL     1       7.897   5.898  19.175  0.00  0.00    +0.000 A 
ATOM     23  C   UNL     1       7.002   4.965  18.646  0.00  0.00    +0.000 A 
ENDBRANCH  16  18
ENDBRANCH  15  16
ENDBRANCH   2  15
TORSDOF 6
ENDMDL
MODEL 8
REMARK VINA RESULT:      -7.2      1.833      5.215
REMARK  Name = 
REMARK  8 active torsions:
REMARK  status: ('A' for Active; 'I' for Inactive)
REMARK    1  A    between atoms: C_1  and  C_2
REMARK    2  A    between atoms: C_2  and  O_3
REMARK    3  A    between atoms: O_3  and  C_4
REMARK    4  A    between atoms: C_4  and  C_6
REMARK    5  A    between atoms: C_7  and  O_8
REMARK    6  A    between atoms: O_8  and  C_9
REMARK    7  A    between atoms: C_9  and  C_11
REMARK    8  A    between atoms: N_22  and  C_23
REMARK                            x       y       z     vdW  Elec       q    Type
REMARK                         _______ _______ _______ _____ _____    ______ ____
ROOT
ATOM      1  C   UNL     1       2.247   5.054  18.841  0.00  0.00    +0.000 C 
ATOM      2  C   UNL     1       3.581   4.452  18.331  0.00  0.00    +0.000 C 
ATOM      3  C   UNL     1       3.246   2.958  18.061  0.00  0.00    +0.000 C 
ATOM      4  C   UNL     1       2.637   2.258  19.309  0.00  0.00    +0.000 C 
ATOM      5  C   UNL     1       1.126   2.048  19.179  0.00  0.00    +0.000 C 
ATOM      6  C   UNL     1       0.514   3.373  19.656  0.00  0.00    +0.000 C 
ATOM      7  C   UNL     1       1.722   4.237  20.078  0.00  0.00    +0.000 C 
ATOM      8  N   UNL     1       2.716   3.197  20.434  0.00  0.00    +0.000 NA
ATOM      9  C   UNL     1       2.552   2.593  21.749  0.00  0.00    +0.000 C 
ENDROOT
BRANCH   1  10
ATOM     10  C   UNL     1       2.286   6.552  19.082  0.00  0.00    +0.000 C 
ATOM     11  O   UNL     1       2.287   7.084  20.185  0.00  0.00    +0.000 OA
BRANCH  10  12
ATOM     12  O   UNL     1       2.145   7.229  17.905  0.00  0.00    +0.000 OA
BRANCH  12  14
ATOM     13  C   UNL     1       1.377   9.535  17.911  0.00  0.00    +0.000 C 
ATOM     14  C   UNL     1       2.574   8.601  17.890  0.00  0.00    +0.000 C 
ENDBRANCH  12  14
ENDBRANCH  10  12
ENDBRANCH   1  10
BRANCH   2  15
ATOM     15  O   UNL     1       4.593   4.721  19.354  0.00  0.00    +0.000 OA
BRANCH  15  16
ATOM     16  C   UNL     1       5.851   5.095  19.008  0.00  0.00    +0.000 C 
ATOM     17  O   UNL     1       6.762   5.384  19.769  0.00  0.00    +0.000 OA
BRANCH  16  18
ATOM     18  C   UNL     1       5.965   5.223  17.528  0.00  0.00    +0.000 A 
ATOM     19  C   UNL     1       6.835   4.348  16.856  0.00  0.00    +0.000 A 
ATOM     20  C   UNL     1       6.998   4.437  15.470  0.00  0.00    +0.000 A 
ATOM     21  C   UNL     1       6.293   5.400  14.749  0.00  0.00    +0.000 A 
ATOM     22  C   UNL     1       5.439   6.283  15.411  0.00  0.00    +0.000 A 
ATOM     23  C   UNL     1       5.277   6.199  16.796  0.00  0.00    +0.000 A 
ENDBRANCH  16  18
ENDBRANCH  15  16
ENDBRANCH   2  15
TORSDOF 6
ENDMDL
MODEL 9
REMARK VINA RESULT:      -7.2      1.418      4.459
REMARK  Name = 
REMARK  8 active torsions:
REMARK  status: ('A' for Active; 'I' for Inactive)
REMARK    1  A    between atoms: C_1  and  C_2
REMARK    2  A    between atoms: C_2  and  O_3
REMARK    3  A    between atoms: O_3  and  C_4
REMARK    4  A    between atoms: C_4  and  C_6
REMARK    5  A    between atoms: C_7  and  O_8
REMARK    6  A    between atoms: O_8  and  C_9
REMARK    7  A    between atoms: C_9  and  C_11
REMARK    8  A    between atoms: N_22  and  C_23
REMARK                            x       y       z     vdW  Elec       q    Type
REMARK                         _______ _______ _______ _____ _____    ______ ____
ROOT
ATOM      1  C   UNL     1       4.871   4.120  17.834  0.00  0.00    +0.000 C 
ATOM      2  C   UNL     1       3.969   5.377  17.749  0.00  0.00    +0.000 C 
ATOM      3  C   UNL     1       4.575   6.201  16.578  0.00  0.00    +0.000 C 
ATOM      4  C   UNL     1       6.090   6.486  16.782  0.00  0.00    +0.000 C 
ATOM      5  C   UNL     1       6.972   5.608  15.889  0.00  0.00    +0.000 C 
ATOM      6  C   UNL     1       7.136   4.302  16.681  0.00  0.00    +0.000 C 
ATOM      7  C   UNL     1       6.376   4.543  18.004  0.00  0.00    +0.000 C 
ATOM      8  N   UNL     1       6.458   6.018  18.124  0.00  0.00    +0.000 NA
ATOM      9  C   UNL     1       7.720   6.540  18.629  0.00  0.00    +0.000 C 
ENDROOT
BRANCH   1  10
ATOM     10  C   UNL     1       4.417   3.090  18.853  0.00  0.00    +0.000 C 
ATOM     11  O   UNL     1       4.962   2.883  19.929  0.00  0.00    +0.000 OA
BRANCH  10  12
ATOM     12  O   UNL     1       3.427   2.308  18.333  0.00  0.00    +0.000 OA
BRANCH  12  14
ATOM     13  C   UNL     1       1.047   2.753  18.549  0.00  0.00    +0.000 C 
ATOM     14  C   UNL     1       2.270   2.091  19.159  0.00  0.00    +0.000 C 
ENDBRANCH  12  14
ENDBRANCH  10  12
ENDBRANCH   1  10
BRANCH   2  15
ATOM     15  O   UNL     1       3.985   6.008  19.069  0.00  0.00    +0.000 OA
BRANCH  15  16
ATOM     16  C   UNL     1       2.849   6.112  19.806  0.00  0.00    +0.000 C 
ATOM     17  O   UNL     1       2.355   5.247  20.512  0.00  0.00    +0.000 OA
BRANCH  16  18
ATOM     18  C   UNL     1       2.188   7.424  19.557  0.00  0.00    +0.000 A 
ATOM     19  C   UNL     1       2.306   7.988  18.276  0.00  0.00    +0.000 A 
ATOM     20  C   UNL     1       1.724   9.228  17.992  0.00  0.00    +0.000 A 
ATOM     21  C   UNL     1       1.023   9.910  18.986  0.00  0.00    +0.000 A 
ATOM     22  C   UNL     1       0.914   9.362  20.265  0.00  0.00    +0.000 A 
ATOM     23  C   UNL     1       1.497   8.126  20.553  0.00  0.00    +0.000 A 
ENDBRANCH  16  18
ENDBRANCH  15  16
ENDBRANCH   2  15
TORSDOF 6
ENDMDL
