MODEL 1
REMARK VINA RESULT:      -9.3      0.000      0.000
REMARK  Name = 
REMARK  10 active torsions:
REMARK  status: ('A' for Active; 'I' for Inactive)
REMARK    1  A    between atoms: C_1  and  C_2
REMARK    2  A    between atoms: C_2  and  O_3
REMARK    3  A    between atoms: O_3  and  C_4
REMARK    4  A    between atoms: C_13  and  C_14
REMARK    5  A    between atoms: N_15  and  N_16
REMARK    6  A    between atoms: C_17  and  C_19
REMARK    7  A    between atoms: C_19  and  N_20
REMARK    8  A    between atoms: C_21  and  C_23
REMARK    9  A    between atoms: C_23  and  C_24
REMARK   10  A    between atoms: C_23  and  C_30
REMARK                            x       y       z     vdW  Elec       q    Type
REMARK                         _______ _______ _______ _____ _____    ______ ____
ROOT
ATOM      1  N   UNL     1       0.133  10.588  22.352  0.00  0.00    +0.000 N 
ATOM      2  C   UNL     1       1.123   9.675  22.053  0.00  0.00    +0.000 C 
ATOM      3  O   UNL     1       2.025   9.439  22.850  0.00  0.00    +0.000 OA
ATOM      4  H   UNL     1       0.179  11.033  23.267  0.00  0.00    +0.000 HD
ENDROOT
BRANCH   1   6
ATOM      5  C   UNL     1      -1.205  11.755  20.942  0.00  0.00    +0.000 C 
ATOM      6  N   UNL     1      -1.013  10.661  21.613  0.00  0.00    +0.000 NA
BRANCH   5  16
ATOM      7  C   UNL     1      -3.535  12.734  20.672  0.00  0.00    +0.000 A 
ATOM      8  C   UNL     1      -4.718  12.833  19.926  0.00  0.00    +0.000 A 
ATOM      9  C   UNL     1      -4.844  12.181  18.695  0.00  0.00    +0.000 A 
ATOM     10  C   UNL     1      -3.783  11.451  18.147  0.00  0.00    +0.000 A 
ATOM     11  C   UNL     1      -4.004  10.735  16.958  0.00  0.00    +0.000 A 
ATOM     12  C   UNL     1      -2.986  10.008  16.356  0.00  0.00    +0.000 A 
ATOM     13  C   UNL     1      -1.737   9.963  16.957  0.00  0.00    +0.000 A 
ATOM     14  C   UNL     1      -1.523  10.615  18.179  0.00  0.00    +0.000 A 
ATOM     15  C   UNL     1      -2.534  11.381  18.827  0.00  0.00    +0.000 A 
ATOM     16  C   UNL     1      -2.432  12.017  20.123  0.00  0.00    +0.000 A 
BRANCH   7  17
ATOM     17  O   UNL     1      -3.446  13.229  21.954  0.00  0.00    +0.000 OA
BRANCH  17  19
ATOM     18  C   UNL     1      -3.963  12.688  24.258  0.00  0.00    +0.000 C 
ATOM     19  C   UNL     1      -4.514  12.917  22.861  0.00  0.00    +0.000 C 
ENDBRANCH  17  19
ENDBRANCH   7  17
ENDBRANCH   5  16
ENDBRANCH   1   6
BRANCH   2  20
ATOM     20  C   UNL     1       0.996   8.975  20.690  0.00  0.00    +0.000 C 
BRANCH  20  21
ATOM     21  N   UNL     1       1.821   7.765  20.616  0.00  0.00    +0.000 N 
ATOM     22  C   UNL     1       2.314   7.349  19.388  0.00  0.00    +0.000 C 
ATOM     23  O   UNL     1       1.993   7.944  18.362  0.00  0.00    +0.000 OA
ATOM     24  H   UNL     1       2.383   7.562  21.435  0.00  0.00    +0.000 HD
BRANCH  22  25
ATOM     25  C   UNL     1       3.248   6.089  19.421  0.00  0.00    +0.000 C 
BRANCH  25  26
ATOM     26  C   UNL     1       2.446   4.836  19.738  0.00  0.00    +0.000 A 
ATOM     27  C   UNL     1       2.421   4.300  21.040  0.00  0.00    +0.000 A 
ATOM     28  C   UNL     1       1.673   3.162  21.321  0.00  0.00    +0.000 A 
ATOM     29  C   UNL     1       0.918   2.562  20.311  0.00  0.00    +0.000 A 
ATOM     30  C   UNL     1       0.919   3.100  19.028  0.00  0.00    +0.000 A 
ATOM     31  C   UNL     1       1.674   4.231  18.736  0.00  0.00    +0.000 A 
ENDBRANCH  25  26
BRANCH  25  32
ATOM     32  C   UNL     1       4.152   5.879  18.205  0.00  0.00    +0.000 A 
ATOM     33  C   UNL     1       4.803   4.678  18.024  0.00  0.00    +0.000 A 
ATOM     34  C   UNL     1       5.501   4.457  16.845  0.00  0.00    +0.000 A 
ATOM     35  C   UNL     1       5.685   5.400  15.855  0.00  0.00    +0.000 A 
ATOM     36  C   UNL     1       5.060   6.610  16.019  0.00  0.00    +0.000 A 
ATOM     37  C   UNL     1       4.276   6.835  17.163  0.00  0.00    +0.000 A 
ENDBRANCH  25  32
ENDBRANCH  22  25
ENDBRANCH  20  21
ENDBRANCH   2  20
TORSDOF 9
ENDMDL
MODEL 2
REMARK VINA RESULT:      -9.2      0.813      1.326
REMARK  Name = 
REMARK  10 active torsions:
REMARK  status: ('A' for Active; 'I' for Inactive)
REMARK    1  A    between atoms: C_1  and  C_2
REMARK    2  A    between atoms: C_2  and  O_3
REMARK    3  A    between atoms: O_3  and  C_4
REMARK    4  A    between atoms: C_13  and  C_14
REMARK    5  A    between atoms: N_15  and  N_16
REMARK    6  A    between atoms: C_17  and  C_19
REMARK    7  A    between atoms: C_19  and  N_20
REMARK    8  A    between atoms: C_21  and  C_23
REMARK    9  A    between atoms: C_23  and  C_24
REMARK   10  A    between atoms: C_23  and  C_30
REMARK                            x       y       z     vdW  Elec       q    Type
REMARK                         _______ _______ _______ _____ _____    ______ ____
ROOT
ATOM      1  N   UNL     1       0.238  10.576  22.244  0.00  0.00    +0.000 N 
ATOM      2  C   UNL     1       1.204   9.624  21.991  0.00  0.00    +0.000 C 
ATOM      3  O   UNL     1       2.099   9.402  22.800  0.00  0.00    +0.000 OA
ATOM      4  H   UNL     1       0.295  11.062  23.138  0.00  0.00    +0.000 HD
ENDROOT
BRANCH   1   6
ATOM      5  C   UNL     1      -1.140  11.769  20.896  0.00  0.00    +0.000 C 
ATOM      6  N   UNL     1      -0.904  10.644  21.500  0.00  0.00    +0.000 NA
BRANCH   5  16
ATOM      7  C   UNL     1      -3.459  12.774  20.623  0.00  0.00    +0.000 A 
ATOM      8  C   UNL     1      -4.648  12.870  19.886  0.00  0.00    +0.000 A 
ATOM      9  C   UNL     1      -4.796  12.188  18.675  0.00  0.00    +0.000 A 
ATOM     10  C   UNL     1      -3.750  11.428  18.136  0.00  0.00    +0.000 A 
ATOM     11  C   UNL     1      -3.994  10.685  16.969  0.00  0.00    +0.000 A 
ATOM     12  C   UNL     1      -2.993   9.927  16.377  0.00  0.00    +0.000 A 
ATOM     13  C   UNL     1      -1.739   9.879  16.966  0.00  0.00    +0.000 A 
ATOM     14  C   UNL     1      -1.502  10.560  18.168  0.00  0.00    +0.000 A 
ATOM     15  C   UNL     1      -2.496  11.358  18.805  0.00  0.00    +0.000 A 
ATOM     16  C   UNL     1      -2.372  12.027  20.083  0.00  0.00    +0.000 A 
BRANCH   7  17
ATOM     17  O   UNL     1      -3.349  13.302  21.891  0.00  0.00    +0.000 OA
BRANCH  17  19
ATOM     18  C   UNL     1      -4.107  13.602  24.172  0.00  0.00    +0.000 C 
ATOM     19  C   UNL     1      -4.204  12.762  22.910  0.00  0.00    +0.000 C 
ENDBRANCH  17  19
ENDBRANCH   7  17
ENDBRANCH   5  16
ENDBRANCH   1   6
BRANCH   2  20
ATOM     20  C   UNL     1       1.062   8.865  20.662  0.00  0.00    +0.000 C 
BRANCH  20  21
ATOM     21  N   UNL     1       1.861   7.636  20.644  0.00  0.00    +0.000 N 
ATOM     22  C   UNL     1       2.369   7.170  19.440  0.00  0.00    +0.000 C 
ATOM     23  O   UNL     1       2.081   7.738  18.389  0.00  0.00    +0.000 OA
ATOM     24  H   UNL     1       2.403   7.448  21.480  0.00  0.00    +0.000 HD
BRANCH  22  25
ATOM     25  C   UNL     1       3.276   5.893  19.532  0.00  0.00    +0.000 C 
BRANCH  25  26
ATOM     26  C   UNL     1       2.463   4.638  19.250  0.00  0.00    +0.000 A 
ATOM     27  C   UNL     1       2.705   3.860  18.103  0.00  0.00    +0.000 A 
ATOM     28  C   UNL     1       1.965   2.707  17.862  0.00  0.00    +0.000 A 
ATOM     29  C   UNL     1       0.994   2.302  18.781  0.00  0.00    +0.000 A 
ATOM     30  C   UNL     1       0.767   3.054  19.930  0.00  0.00    +0.000 A 
ATOM     31  C   UNL     1       1.495   4.214  20.171  0.00  0.00    +0.000 A 
ENDBRANCH  25  26
BRANCH  25  32
ATOM     32  C   UNL     1       4.569   5.915  18.715  0.00  0.00    +0.000 A 
ATOM     33  C   UNL     1       4.616   6.580  17.510  0.00  0.00    +0.000 A 
ATOM     34  C   UNL     1       5.832   6.711  16.855  0.00  0.00    +0.000 A 
ATOM     35  C   UNL     1       7.013   6.131  17.271  0.00  0.00    +0.000 A 
ATOM     36  C   UNL     1       6.989   5.449  18.461  0.00  0.00    +0.000 A 
ATOM     37  C   UNL     1       5.790   5.371  19.191  0.00  0.00    +0.000 A 
ENDBRANCH  25  32
ENDBRANCH  22  25
ENDBRANCH  20  21
ENDBRANCH   2  20
TORSDOF 9
ENDMDL
MODEL 3
REMARK VINA RESULT:      -9.1      1.927      4.573
REMARK  Name = 
REMARK  10 active torsions:
REMARK  status: ('A' for Active; 'I' for Inactive)
REMARK    1  A    between atoms: C_1  and  C_2
REMARK    2  A    between atoms: C_2  and  O_3
REMARK    3  A    between atoms: O_3  and  C_4
REMARK    4  A    between atoms: C_13  and  C_14
REMARK    5  A    between atoms: N_15  and  N_16
REMARK    6  A    between atoms: C_17  and  C_19
REMARK    7  A    between atoms: C_19  and  N_20
REMARK    8  A    between atoms: C_21  and  C_23
REMARK    9  A    between atoms: C_23  and  C_24
REMARK   10  A    between atoms: C_23  and  C_30
REMARK                            x       y       z     vdW  Elec       q    Type
REMARK                         _______ _______ _______ _____ _____    ______ ____
ROOT
ATOM      1  N   UNL     1       0.519  11.825  18.393  0.00  0.00    +0.000 N 
ATOM      2  C   UNL     1       1.569  10.930  18.385  0.00  0.00    +0.000 C 
ATOM      3  O   UNL     1       2.656  11.237  17.907  0.00  0.00    +0.000 OA
ATOM      4  H   UNL     1       0.700  12.750  18.007  0.00  0.00    +0.000 HD
ENDROOT
BRANCH   1   6
ATOM      5  C   UNL     1      -1.495  12.542  19.149  0.00  0.00    +0.000 C 
ATOM      6  N   UNL     1      -0.593  11.608  19.155  0.00  0.00    +0.000 NA
BRANCH   5  16
ATOM      7  C   UNL     1      -4.008  12.224  19.355  0.00  0.00    +0.000 A 
ATOM      8  C   UNL     1      -5.172  12.323  20.131  0.00  0.00    +0.000 A 
ATOM      9  C   UNL     1      -5.111  12.738  21.465  0.00  0.00    +0.000 A 
ATOM     10  C   UNL     1      -3.886  13.023  22.082  0.00  0.00    +0.000 A 
ATOM     11  C   UNL     1      -3.897  13.533  23.390  0.00  0.00    +0.000 A 
ATOM     12  C   UNL     1      -2.715  13.818  24.062  0.00  0.00    +0.000 A 
ATOM     13  C   UNL     1      -1.504  13.623  23.416  0.00  0.00    +0.000 A 
ATOM     14  C   UNL     1      -1.481  13.181  22.086  0.00  0.00    +0.000 A 
ATOM     15  C   UNL     1      -2.667  12.867  21.363  0.00  0.00    +0.000 A 
ATOM     16  C   UNL     1      -2.748  12.485  19.968  0.00  0.00    +0.000 A 
BRANCH   7  17
ATOM     17  O   UNL     1      -4.061  11.976  18.001  0.00  0.00    +0.000 OA
BRANCH  17  19
ATOM     18  C   UNL     1      -3.339   9.700  17.593  0.00  0.00    +0.000 C 
ATOM     19  C   UNL     1      -4.503  10.676  17.582  0.00  0.00    +0.000 C 
ENDBRANCH  17  19
ENDBRANCH   7  17
ENDBRANCH   5  16
ENDBRANCH   1   6
BRANCH   2  20
ATOM     20  C   UNL     1       1.285   9.562  19.027  0.00  0.00    +0.000 C 
BRANCH  20  21
ATOM     21  N   UNL     1       1.917   8.466  18.285  0.00  0.00    +0.000 N 
ATOM     22  C   UNL     1       2.335   7.333  18.966  0.00  0.00    +0.000 C 
ATOM     23  O   UNL     1       2.251   7.284  20.191  0.00  0.00    +0.000 OA
ATOM     24  H   UNL     1       1.607   8.345  17.327  0.00  0.00    +0.000 HD
BRANCH  22  25
ATOM     25  C   UNL     1       2.927   6.184  18.076  0.00  0.00    +0.000 C 
BRANCH  25  26
ATOM     26  C   UNL     1       4.446   6.171  18.160  0.00  0.00    +0.000 A 
ATOM     27  C   UNL     1       5.112   5.420  19.148  0.00  0.00    +0.000 A 
ATOM     28  C   UNL     1       6.501   5.405  19.206  0.00  0.00    +0.000 A 
ATOM     29  C   UNL     1       7.243   6.117  18.260  0.00  0.00    +0.000 A 
ATOM     30  C   UNL     1       6.591   6.841  17.266  0.00  0.00    +0.000 A 
ATOM     31  C   UNL     1       5.202   6.870  17.209  0.00  0.00    +0.000 A 
ENDBRANCH  25  26
BRANCH  25  32
ATOM     32  C   UNL     1       2.345   4.786  18.293  0.00  0.00    +0.000 A 
ATOM     33  C   UNL     1       2.695   3.751  17.453  0.00  0.00    +0.000 A 
ATOM     34  C   UNL     1       2.272   2.464  17.750  0.00  0.00    +0.000 A 
ATOM     35  C   UNL     1       1.425   2.138  18.790  0.00  0.00    +0.000 A 
ATOM     36  C   UNL     1       1.048   3.153  19.631  0.00  0.00    +0.000 A 
ATOM     37  C   UNL     1       1.529   4.455  19.406  0.00  0.00    +0.000 A 
ENDBRANCH  25  32
ENDBRANCH  22  25
ENDBRANCH  20  21
ENDBRANCH   2  20
TORSDOF 9
ENDMDL
MODEL 4
REMARK VINA RESULT:      -9.1      1.927      4.696
REMARK  Name = 
REMARK  10 active torsions:
REMARK  status: ('A' for Active; 'I' for Inactive)
REMARK    1  A    between atoms: C_1  and  C_2
REMARK    2  A    between atoms: C_2  and  O_3
REMARK    3  A    between atoms: O_3  and  C_4
REMARK    4  A    between atoms: C_13  and  C_14
REMARK    5  A    between atoms: N_15  and  N_16
REMARK    6  A    between atoms: C_17  and  C_19
REMARK    7  A    between atoms: C_19  and  N_20
REMARK    8  A    between atoms: C_21  and  C_23
REMARK    9  A    between atoms: C_23  and  C_24
REMARK   10  A    between atoms: C_23  and  C_30
REMARK                            x       y       z     vdW  Elec       q    Type
REMARK                         _______ _______ _______ _____ _____    ______ ____
ROOT
ATOM      1  N   UNL     1       0.446  11.633  18.116  0.00  0.00    +0.000 N 
ATOM      2  C   UNL     1       1.527  10.791  18.276  0.00  0.00    +0.000 C 
ATOM      3  O   UNL     1       2.654  11.140  17.943  0.00  0.00    +0.000 OA
ATOM      4  H   UNL     1       0.636  12.557  17.731  0.00  0.00    +0.000 HD
ENDROOT
BRANCH   1   6
ATOM      5  C   UNL     1      -1.489  12.408  19.008  0.00  0.00    +0.000 C 
ATOM      6  N   UNL     1      -0.749  11.380  18.726  0.00  0.00    +0.000 NA
BRANCH   5  16
ATOM      7  C   UNL     1      -4.005  12.050  19.002  0.00  0.00    +0.000 A 
ATOM      8  C   UNL     1      -5.229  12.108  19.684  0.00  0.00    +0.000 A 
ATOM      9  C   UNL     1      -5.282  12.483  21.030  0.00  0.00    +0.000 A 
ATOM     10  C   UNL     1      -4.115  12.765  21.752  0.00  0.00    +0.000 A 
ATOM     11  C   UNL     1      -4.240  13.235  23.070  0.00  0.00    +0.000 A 
ATOM     12  C   UNL     1      -3.120  13.515  23.843  0.00  0.00    +0.000 A 
ATOM     13  C   UNL     1      -1.858  13.357  23.291  0.00  0.00    +0.000 A 
ATOM     14  C   UNL     1      -1.721  12.956  21.955  0.00  0.00    +0.000 A 
ATOM     15  C   UNL     1      -2.840  12.649  21.129  0.00  0.00    +0.000 A 
ATOM     16  C   UNL     1      -2.803  12.309  19.722  0.00  0.00    +0.000 A 
BRANCH   7  17
ATOM     17  O   UNL     1      -3.945  11.843  17.642  0.00  0.00    +0.000 OA
BRANCH  17  19
ATOM     18  C   UNL     1      -2.967  10.373  15.982  0.00  0.00    +0.000 C 
ATOM     19  C   UNL     1      -3.897  10.484  17.179  0.00  0.00    +0.000 C 
ENDBRANCH  17  19
ENDBRANCH   7  17
ENDBRANCH   5  16
ENDBRANCH   1   6
BRANCH   2  20
ATOM     20  C   UNL     1       1.221   9.426  18.914  0.00  0.00    +0.000 C 
BRANCH  20  21
ATOM     21  N   UNL     1       1.871   8.327  18.194  0.00  0.00    +0.000 N 
ATOM     22  C   UNL     1       2.423   7.275  18.910  0.00  0.00    +0.000 C 
ATOM     23  O   UNL     1       2.439   7.306  20.138  0.00  0.00    +0.000 OA
ATOM     24  H   UNL     1       1.498   8.117  17.275  0.00  0.00    +0.000 HD
BRANCH  22  25
ATOM     25  C   UNL     1       3.028   6.109  18.050  0.00  0.00    +0.000 C 
BRANCH  25  26
ATOM     26  C   UNL     1       4.547   6.139  18.100  0.00  0.00    +0.000 A 
ATOM     27  C   UNL     1       5.288   6.910  17.185  0.00  0.00    +0.000 A 
ATOM     28  C   UNL     1       6.677   6.940  17.249  0.00  0.00    +0.000 A 
ATOM     29  C   UNL     1       7.341   6.224  18.247  0.00  0.00    +0.000 A 
ATOM     30  C   UNL     1       6.614   5.479  19.170  0.00  0.00    +0.000 A 
ATOM     31  C   UNL     1       5.225   5.434  19.105  0.00  0.00    +0.000 A 
ENDBRANCH  25  26
BRANCH  25  32
ATOM     32  C   UNL     1       2.488   4.705  18.331  0.00  0.00    +0.000 A 
ATOM     33  C   UNL     1       1.657   4.484  19.408  0.00  0.00    +0.000 A 
ATOM     34  C   UNL     1       1.065   3.240  19.563  0.00  0.00    +0.000 A 
ATOM     35  C   UNL     1       1.320   2.145  18.763  0.00  0.00    +0.000 A 
ATOM     36  C   UNL     1       2.157   2.334  17.692  0.00  0.00    +0.000 A 
ATOM     37  C   UNL     1       2.707   3.607  17.460  0.00  0.00    +0.000 A 
ENDBRANCH  25  32
ENDBRANCH  22  25
ENDBRANCH  20  21
ENDBRANCH   2  20
TORSDOF 9
ENDMDL
MODEL 5
REMARK VINA RESULT:      -9.0      0.997      1.376
REMARK  Name = 
REMARK  10 active torsions:
REMARK  status: ('A' for Active; 'I' for Inactive)
REMARK    1  A    between atoms: C_1  and  C_2
REMARK    2  A    between atoms: C_2  and  O_3
REMARK    3  A    between atoms: O_3  and  C_4
REMARK    4  A    between atoms: C_13  and  C_14
REMARK    5  A    between atoms: N_15  and  N_16
REMARK    6  A    between atoms: C_17  and  C_19
REMARK    7  A    between atoms: C_19  and  N_20
REMARK    8  A    between atoms: C_21  and  C_23
REMARK    9  A    between atoms: C_23  and  C_24
REMARK   10  A    between atoms: C_23  and  C_30
REMARK                            x       y       z     vdW  Elec       q    Type
REMARK                         _______ _______ _______ _____ _____    ______ ____
ROOT
ATOM      1  N   UNL     1       0.234  10.531  22.300  0.00  0.00    +0.000 N 
ATOM      2  C   UNL     1       1.212   9.592  22.043  0.00  0.00    +0.000 C 
ATOM      3  O   UNL     1       2.100   9.367  22.858  0.00  0.00    +0.000 OA
ATOM      4  H   UNL     1       0.277  11.004  23.201  0.00  0.00    +0.000 HD
ENDROOT
BRANCH   1   6
ATOM      5  C   UNL     1      -1.138  11.727  20.949  0.00  0.00    +0.000 C 
ATOM      6  N   UNL     1      -0.901  10.598  21.545  0.00  0.00    +0.000 NA
BRANCH   5  16
ATOM      7  C   UNL     1      -3.459  12.724  20.660  0.00  0.00    +0.000 A 
ATOM      8  C   UNL     1      -4.641  12.819  19.913  0.00  0.00    +0.000 A 
ATOM      9  C   UNL     1      -4.775  12.144  18.695  0.00  0.00    +0.000 A 
ATOM     10  C   UNL     1      -3.720  11.393  18.161  0.00  0.00    +0.000 A 
ATOM     11  C   UNL     1      -3.950  10.656  16.987  0.00  0.00    +0.000 A 
ATOM     12  C   UNL     1      -2.939   9.907  16.399  0.00  0.00    +0.000 A 
ATOM     13  C   UNL     1      -1.690   9.862  17.000  0.00  0.00    +0.000 A 
ATOM     14  C   UNL     1      -1.469  10.535  18.209  0.00  0.00    +0.000 A 
ATOM     15  C   UNL     1      -2.472  11.324  18.842  0.00  0.00    +0.000 A 
ATOM     16  C   UNL     1      -2.363  11.985  20.125  0.00  0.00    +0.000 A 
BRANCH   7  17
ATOM     17  O   UNL     1      -3.364  13.243  21.933  0.00  0.00    +0.000 OA
BRANCH  17  19
ATOM     18  C   UNL     1      -2.551  15.473  21.448  0.00  0.00    +0.000 C 
ATOM     19  C   UNL     1      -3.642  14.642  22.100  0.00  0.00    +0.000 C 
ENDBRANCH  17  19
ENDBRANCH   7  17
ENDBRANCH   5  16
ENDBRANCH   1   6
BRANCH   2  20
ATOM     20  C   UNL     1       1.090   8.851  20.702  0.00  0.00    +0.000 C 
BRANCH  20  21
ATOM     21  N   UNL     1       1.901   7.629  20.675  0.00  0.00    +0.000 N 
ATOM     22  C   UNL     1       2.367   7.146  19.461  0.00  0.00    +0.000 C 
ATOM     23  O   UNL     1       2.034   7.692  18.412  0.00  0.00    +0.000 OA
ATOM     24  H   UNL     1       2.475   7.461  21.493  0.00  0.00    +0.000 HD
BRANCH  22  25
ATOM     25  C   UNL     1       3.288   5.878  19.542  0.00  0.00    +0.000 C 
BRANCH  25  26
ATOM     26  C   UNL     1       2.483   4.614  19.285  0.00  0.00    +0.000 A 
ATOM     27  C   UNL     1       1.486   4.193  20.184  0.00  0.00    +0.000 A 
ATOM     28  C   UNL     1       0.746   3.043  19.932  0.00  0.00    +0.000 A 
ATOM     29  C   UNL     1       0.975   2.314  18.763  0.00  0.00    +0.000 A 
ATOM     30  C   UNL     1       1.943   2.737  17.857  0.00  0.00    +0.000 A 
ATOM     31  C   UNL     1       2.694   3.881  18.108  0.00  0.00    +0.000 A 
ENDBRANCH  25  26
BRANCH  25  32
ATOM     32  C   UNL     1       4.564   5.909  18.697  0.00  0.00    +0.000 A 
ATOM     33  C   UNL     1       4.588   6.595  17.503  0.00  0.00    +0.000 A 
ATOM     34  C   UNL     1       5.790   6.731  16.824  0.00  0.00    +0.000 A 
ATOM     35  C   UNL     1       6.976   6.138  17.203  0.00  0.00    +0.000 A 
ATOM     36  C   UNL     1       6.975   5.435  18.381  0.00  0.00    +0.000 A 
ATOM     37  C   UNL     1       5.792   5.350  19.136  0.00  0.00    +0.000 A 
ENDBRANCH  25  32
ENDBRANCH  22  25
ENDBRANCH  20  21
ENDBRANCH   2  20
TORSDOF 9
ENDMDL
MODEL 6
REMARK VINA RESULT:      -8.9      0.770      1.105
REMARK  Name = 
REMARK  10 active torsions:
REMARK  status: ('A' for Active; 'I' for Inactive)
REMARK    1  A    between atoms: C_1  and  C_2
REMARK    2  A    between atoms: C_2  and  O_3
REMARK    3  A    between atoms: O_3  and  C_4
REMARK    4  A    between atoms: C_13  and  C_14
REMARK    5  A    between atoms: N_15  and  N_16
REMARK    6  A    between atoms: C_17  and  C_19
REMARK    7  A    between atoms: C_19  and  N_20
REMARK    8  A    between atoms: C_21  and  C_23
REMARK    9  A    between atoms: C_23  and  C_24
REMARK   10  A    between atoms: C_23  and  C_30
REMARK                            x       y       z     vdW  Elec       q    Type
REMARK                         _______ _______ _______ _____ _____    ______ ____
ROOT
ATOM      1  N   UNL     1       0.106  10.702  22.003  0.00  0.00    +0.000 N 
ATOM      2  C   UNL     1       1.088   9.761  21.776  0.00  0.00    +0.000 C 
ATOM      3  O   UNL     1       1.947   9.529  22.621  0.00  0.00    +0.000 OA
ATOM      4  H   UNL     1       0.119  11.172  22.907  0.00  0.00    +0.000 HD
ENDROOT
BRANCH   1   6
ATOM      5  C   UNL     1      -1.447  11.968  20.942  0.00  0.00    +0.000 C 
ATOM      6  N   UNL     1      -1.003  10.778  21.210  0.00  0.00    +0.000 NA
BRANCH   5  16
ATOM      7  C   UNL     1      -3.785  12.933  20.686  0.00  0.00    +0.000 A 
ATOM      8  C   UNL     1      -4.973  13.027  19.946  0.00  0.00    +0.000 A 
ATOM      9  C   UNL     1      -5.101  12.378  18.714  0.00  0.00    +0.000 A 
ATOM     10  C   UNL     1      -4.037  11.656  18.159  0.00  0.00    +0.000 A 
ATOM     11  C   UNL     1      -4.260  10.943  16.969  0.00  0.00    +0.000 A 
ATOM     12  C   UNL     1      -3.240  10.223  16.360  0.00  0.00    +0.000 A 
ATOM     13  C   UNL     1      -1.989  10.184  16.954  0.00  0.00    +0.000 A 
ATOM     14  C   UNL     1      -1.772  10.833  18.177  0.00  0.00    +0.000 A 
ATOM     15  C   UNL     1      -2.785  11.591  18.832  0.00  0.00    +0.000 A 
ATOM     16  C   UNL     1      -2.681  12.225  20.130  0.00  0.00    +0.000 A 
BRANCH   7  17
ATOM     17  O   UNL     1      -3.692  13.425  21.970  0.00  0.00    +0.000 OA
BRANCH  17  19
ATOM     18  C   UNL     1      -2.271  15.213  22.778  0.00  0.00    +0.000 C 
ATOM     19  C   UNL     1      -3.595  14.849  22.129  0.00  0.00    +0.000 C 
ENDBRANCH  17  19
ENDBRANCH   7  17
ENDBRANCH   5  16
ENDBRANCH   1   6
BRANCH   2  20
ATOM     20  C   UNL     1       1.010   9.026  20.429  0.00  0.00    +0.000 C 
BRANCH  20  21
ATOM     21  N   UNL     1       1.868   7.837  20.402  0.00  0.00    +0.000 N 
ATOM     22  C   UNL     1       2.259   7.304  19.182  0.00  0.00    +0.000 C 
ATOM     23  O   UNL     1       1.822   7.776  18.135  0.00  0.00    +0.000 OA
ATOM     24  H   UNL     1       2.511   7.738  21.179  0.00  0.00    +0.000 HD
BRANCH  22  25
ATOM     25  C   UNL     1       3.238   6.080  19.256  0.00  0.00    +0.000 C 
BRANCH  25  26
ATOM     26  C   UNL     1       2.530   4.862  19.829  0.00  0.00    +0.000 A 
ATOM     27  C   UNL     1       2.937   4.294  21.051  0.00  0.00    +0.000 A 
ATOM     28  C   UNL     1       2.273   3.189  21.573  0.00  0.00    +0.000 A 
ATOM     29  C   UNL     1       1.175   2.655  20.893  0.00  0.00    +0.000 A 
ATOM     30  C   UNL     1       0.752   3.226  19.697  0.00  0.00    +0.000 A 
ATOM     31  C   UNL     1       1.419   4.325  19.164  0.00  0.00    +0.000 A 
ENDBRANCH  25  26
BRANCH  25  32
ATOM     32  C   UNL     1       3.992   5.733  17.971  0.00  0.00    +0.000 A 
ATOM     33  C   UNL     1       4.500   6.734  17.173  0.00  0.00    +0.000 A 
ATOM     34  C   UNL     1       5.302   6.399  16.093  0.00  0.00    +0.000 A 
ATOM     35  C   UNL     1       5.561   5.108  15.680  0.00  0.00    +0.000 A 
ATOM     36  C   UNL     1       5.054   4.092  16.448  0.00  0.00    +0.000 A 
ATOM     37  C   UNL     1       4.307   4.400  17.599  0.00  0.00    +0.000 A 
ENDBRANCH  25  32
ENDBRANCH  22  25
ENDBRANCH  20  21
ENDBRANCH   2  20
TORSDOF 9
ENDMDL
MODEL 7
REMARK VINA RESULT:      -8.8      5.956      9.279
REMARK  Name = 
REMARK  10 active torsions:
REMARK  status: ('A' for Active; 'I' for Inactive)
REMARK    1  A    between atoms: C_1  and  C_2
REMARK    2  A    between atoms: C_2  and  O_3
REMARK    3  A    between atoms: O_3  and  C_4
REMARK    4  A    between atoms: C_13  and  C_14
REMARK    5  A    between atoms: N_15  and  N_16
REMARK    6  A    between atoms: C_17  and  C_19
REMARK    7  A    between atoms: C_19  and  N_20
REMARK    8  A    between atoms: C_21  and  C_23
REMARK    9  A    between atoms: C_23  and  C_24
REMARK   10  A    between atoms: C_23  and  C_30
REMARK                            x       y       z     vdW  Elec       q    Type
REMARK                         _______ _______ _______ _____ _____    ______ ____
ROOT
ATOM      1  N   UNL     1       8.971   8.252  19.049  0.00  0.00    +0.000 N 
ATOM      2  C   UNL     1       8.055   7.440  18.411  0.00  0.00    +0.000 C 
ATOM      3  O   UNL     1       8.037   6.230  18.612  0.00  0.00    +0.000 OA
ATOM      4  H   UNL     1       9.609   7.800  19.702  0.00  0.00    +0.000 HD
ENDROOT
BRANCH   1   6
ATOM      5  C   UNL     1       9.676  10.277  19.784  0.00  0.00    +0.000 C 
ATOM      6  N   UNL     1       8.833   9.610  19.056  0.00  0.00    +0.000 NA
BRANCH   5  16
ATOM      7  C   UNL     1       8.896  12.365  21.008  0.00  0.00    +0.000 A 
ATOM      8  C   UNL     1       8.760  13.760  21.037  0.00  0.00    +0.000 A 
ATOM      9  C   UNL     1       9.272  14.551  20.004  0.00  0.00    +0.000 A 
ATOM     10  C   UNL     1       9.977  13.984  18.935  0.00  0.00    +0.000 A 
ATOM     11  C   UNL     1      10.377  14.818  17.879  0.00  0.00    +0.000 A 
ATOM     12  C   UNL     1      11.095  14.319  16.799  0.00  0.00    +0.000 A 
ATOM     13  C   UNL     1      11.393  12.966  16.751  0.00  0.00    +0.000 A 
ATOM     14  C   UNL     1      10.939  12.111  17.764  0.00  0.00    +0.000 A 
ATOM     15  C   UNL     1      10.209  12.580  18.894  0.00  0.00    +0.000 A 
ATOM     16  C   UNL     1       9.631  11.767  19.943  0.00  0.00    +0.000 A 
BRANCH   7  17
ATOM     17  O   UNL     1       8.262  11.556  21.925  0.00  0.00    +0.000 OA
BRANCH  17  19
ATOM     18  C   UNL     1       7.712  11.632  24.283  0.00  0.00    +0.000 C 
ATOM     19  C   UNL     1       7.423  12.193  22.902  0.00  0.00    +0.000 C 
ENDBRANCH  17  19
ENDBRANCH   7  17
ENDBRANCH   5  16
ENDBRANCH   1   6
BRANCH   2  20
ATOM     20  C   UNL     1       7.067   8.155  17.476  0.00  0.00    +0.000 C 
BRANCH  20  21
ATOM     21  N   UNL     1       5.683   7.731  17.712  0.00  0.00    +0.000 N 
ATOM     22  C   UNL     1       5.117   6.765  16.893  0.00  0.00    +0.000 C 
ATOM     23  O   UNL     1       5.742   6.330  15.929  0.00  0.00    +0.000 OA
ATOM     24  H   UNL     1       5.367   7.768  18.674  0.00  0.00    +0.000 HD
BRANCH  22  25
ATOM     25  C   UNL     1       3.659   6.322  17.271  0.00  0.00    +0.000 C 
BRANCH  25  26
ATOM     26  C   UNL     1       3.655   4.900  17.811  0.00  0.00    +0.000 A 
ATOM     27  C   UNL     1       4.619   4.475  18.744  0.00  0.00    +0.000 A 
ATOM     28  C   UNL     1       4.597   3.176  19.241  0.00  0.00    +0.000 A 
ATOM     29  C   UNL     1       3.593   2.295  18.833  0.00  0.00    +0.000 A 
ATOM     30  C   UNL     1       2.622   2.716  17.930  0.00  0.00    +0.000 A 
ATOM     31  C   UNL     1       2.645   4.010  17.420  0.00  0.00    +0.000 A 
ENDBRANCH  25  26
BRANCH  25  32
ATOM     32  C   UNL     1       2.876   7.267  18.184  0.00  0.00    +0.000 A 
ATOM     33  C   UNL     1       2.381   8.455  17.692  0.00  0.00    +0.000 A 
ATOM     34  C   UNL     1       1.554   9.228  18.492  0.00  0.00    +0.000 A 
ATOM     35  C   UNL     1       1.254   8.950  19.810  0.00  0.00    +0.000 A 
ATOM     36  C   UNL     1       1.748   7.780  20.330  0.00  0.00    +0.000 A 
ATOM     37  C   UNL     1       2.521   6.933  19.517  0.00  0.00    +0.000 A 
ENDBRANCH  25  32
ENDBRANCH  22  25
ENDBRANCH  20  21
ENDBRANCH   2  20
TORSDOF 9
ENDMDL
MODEL 8
REMARK VINA RESULT:      -8.8      1.996      9.043
REMARK  Name = 
REMARK  10 active torsions:
REMARK  status: ('A' for Active; 'I' for Inactive)
REMARK    1  A    between atoms: C_1  and  C_2
REMARK    2  A    between atoms: C_2  and  O_3
REMARK    3  A    between atoms: O_3  and  C_4
REMARK    4  A    between atoms: C_13  and  C_14
REMARK    5  A    between atoms: N_15  and  N_16
REMARK    6  A    between atoms: C_17  and  C_19
REMARK    7  A    between atoms: C_19  and  N_20
REMARK    8  A    between atoms: C_21  and  C_23
REMARK    9  A    between atoms: C_23  and  C_24
REMARK   10  A    between atoms: C_23  and  C_30
REMARK                            x       y       z     vdW  Elec       q    Type
REMARK                         _______ _______ _______ _____ _____    ______ ____
ROOT
ATOM      1  N   UNL     1       1.976   8.045  21.485  0.00  0.00    +0.000 N 
ATOM      2  C   UNL     1       1.063   9.014  21.845  0.00  0.00    +0.000 C 
ATOM      3  O   UNL     1       1.374   9.922  22.609  0.00  0.00    +0.000 OA
ATOM      4  H   UNL     1       2.917   8.136  21.865  0.00  0.00    +0.000 HD
ENDROOT
BRANCH   1   6
ATOM      5  C   UNL     1       2.654   6.313  20.189  0.00  0.00    +0.000 C 
ATOM      6  N   UNL     1       1.740   7.200  20.439  0.00  0.00    +0.000 NA
BRANCH   5  16
ATOM      7  C   UNL     1       1.697   4.224  19.102  0.00  0.00    +0.000 A 
ATOM      8  C   UNL     1       1.758   3.265  18.081  0.00  0.00    +0.000 A 
ATOM      9  C   UNL     1       2.710   3.365  17.061  0.00  0.00    +0.000 A 
ATOM     10  C   UNL     1       3.599   4.445  17.000  0.00  0.00    +0.000 A 
ATOM     11  C   UNL     1       4.598   4.436  16.013  0.00  0.00    +0.000 A 
ATOM     12  C   UNL     1       5.497   5.487  15.889  0.00  0.00    +0.000 A 
ATOM     13  C   UNL     1       5.426   6.548  16.778  0.00  0.00    +0.000 A 
ATOM     14  C   UNL     1       4.480   6.536  17.812  0.00  0.00    +0.000 A 
ATOM     15  C   UNL     1       3.531   5.485  17.970  0.00  0.00    +0.000 A 
ATOM     16  C   UNL     1       2.575   5.345  19.048  0.00  0.00    +0.000 A 
BRANCH   7  17
ATOM     17  O   UNL     1       0.880   4.060  20.200  0.00  0.00    +0.000 OA
BRANCH  17  19
ATOM     18  C   UNL     1       2.292   2.926  21.809  0.00  0.00    +0.000 C 
ATOM     19  C   UNL     1       1.031   2.854  20.965  0.00  0.00    +0.000 C 
ENDBRANCH  17  19
ENDBRANCH   7  17
ENDBRANCH   5  16
ENDBRANCH   1   6
BRANCH   2  20
ATOM     20  C   UNL     1      -0.331   8.886  21.211  0.00  0.00    +0.000 C 
BRANCH  20  21
ATOM     21  N   UNL     1      -0.502   9.795  20.073  0.00  0.00    +0.000 N 
ATOM     22  C   UNL     1      -0.984  11.077  20.290  0.00  0.00    +0.000 C 
ATOM     23  O   UNL     1      -1.341  11.420  21.414  0.00  0.00    +0.000 OA
ATOM     24  H   UNL     1       0.144   9.665  19.303  0.00  0.00    +0.000 HD
BRANCH  22  25
ATOM     25  C   UNL     1      -1.059  11.999  19.022  0.00  0.00    +0.000 C 
BRANCH  25  26
ATOM     26  C   UNL     1      -2.298  11.679  18.200  0.00  0.00    +0.000 A 
ATOM     27  C   UNL     1      -3.587  11.812  18.749  0.00  0.00    +0.000 A 
ATOM     28  C   UNL     1      -4.713  11.529  17.983  0.00  0.00    +0.000 A 
ATOM     29  C   UNL     1      -4.565  11.139  16.650  0.00  0.00    +0.000 A 
ATOM     30  C   UNL     1      -3.295  11.029  16.094  0.00  0.00    +0.000 A 
ATOM     31  C   UNL     1      -2.163  11.299  16.857  0.00  0.00    +0.000 A 
ENDBRANCH  25  26
BRANCH  25  32
ATOM     32  C   UNL     1      -0.925  13.504  19.265  0.00  0.00    +0.000 A 
ATOM     33  C   UNL     1      -1.583  14.097  20.320  0.00  0.00    +0.000 A 
ATOM     34  C   UNL     1      -1.335  15.430  20.610  0.00  0.00    +0.000 A 
ATOM     35  C   UNL     1      -0.538  16.263  19.850  0.00  0.00    +0.000 A 
ATOM     36  C   UNL     1       0.116  15.700  18.784  0.00  0.00    +0.000 A 
ATOM     37  C   UNL     1      -0.048  14.330  18.515  0.00  0.00    +0.000 A 
ENDBRANCH  25  32
ENDBRANCH  22  25
ENDBRANCH  20  21
ENDBRANCH   2  20
TORSDOF 9
ENDMDL
MODEL 9
REMARK VINA RESULT:      -8.6      2.158      3.741
REMARK  Name = 
REMARK  10 active torsions:
REMARK  status: ('A' for Active; 'I' for Inactive)
REMARK    1  A    between atoms: C_1  and  C_2
REMARK    2  A    between atoms: C_2  and  O_3
REMARK    3  A    between atoms: O_3  and  C_4
REMARK    4  A    between atoms: C_13  and  C_14
REMARK    5  A    between atoms: N_15  and  N_16
REMARK    6  A    between atoms: C_17  and  C_19
REMARK    7  A    between atoms: C_19  and  N_20
REMARK    8  A    between atoms: C_21  and  C_23
REMARK    9  A    between atoms: C_23  and  C_24
REMARK   10  A    between atoms: C_23  and  C_30
REMARK                            x       y       z     vdW  Elec       q    Type
REMARK                         _______ _______ _______ _____ _____    ______ ____
ROOT
ATOM      1  N   UNL     1       0.562  11.498  18.443  0.00  0.00    +0.000 N 
ATOM      2  C   UNL     1       1.564  10.574  18.230  0.00  0.00    +0.000 C 
ATOM      3  O   UNL     1       2.739  10.857  18.439  0.00  0.00    +0.000 OA
ATOM      4  H   UNL     1       0.846  12.409  18.799  0.00  0.00    +0.000 HD
ENDROOT
BRANCH   1   6
ATOM      5  C   UNL     1      -1.628  12.083  18.461  0.00  0.00    +0.000 C 
ATOM      6  N   UNL     1      -0.751  11.126  18.484  0.00  0.00    +0.000 NA
BRANCH   5  16
ATOM      7  C   UNL     1      -3.848  11.427  17.410  0.00  0.00    +0.000 A 
ATOM      8  C   UNL     1      -5.246  11.361  17.497  0.00  0.00    +0.000 A 
ATOM      9  C   UNL     1      -5.911  11.768  18.658  0.00  0.00    +0.000 A 
ATOM     10  C   UNL     1      -5.204  12.210  19.783  0.00  0.00    +0.000 A 
ATOM     11  C   UNL     1      -5.930  12.703  20.880  0.00  0.00    +0.000 A 
ATOM     12  C   UNL     1      -5.287  13.139  22.032  0.00  0.00    +0.000 A 
ATOM     13  C   UNL     1      -3.903  13.115  22.086  0.00  0.00    +0.000 A 
ATOM     14  C   UNL     1      -3.164  12.692  20.973  0.00  0.00    +0.000 A 
ATOM     15  C   UNL     1      -3.780  12.227  19.776  0.00  0.00    +0.000 A 
ATOM     16  C   UNL     1      -3.106  11.850  18.551  0.00  0.00    +0.000 A 
BRANCH   7  17
ATOM     17  O   UNL     1      -3.185  11.186  16.227  0.00  0.00    +0.000 OA
BRANCH  17  19
ATOM     18  C   UNL     1      -2.905   9.970  14.151  0.00  0.00    +0.000 C 
ATOM     19  C   UNL     1      -3.879  10.435  15.219  0.00  0.00    +0.000 C 
ENDBRANCH  17  19
ENDBRANCH   7  17
ENDBRANCH   5  16
ENDBRANCH   1   6
BRANCH   2  20
ATOM     20  C   UNL     1       1.103   9.189  17.748  0.00  0.00    +0.000 C 
BRANCH  20  21
ATOM     21  N   UNL     1       1.825   8.105  18.422  0.00  0.00    +0.000 N 
ATOM     22  C   UNL     1       2.919   7.523  17.800  0.00  0.00    +0.000 C 
ATOM     23  O   UNL     1       3.230   7.858  16.660  0.00  0.00    +0.000 OA
ATOM     24  H   UNL     1       1.831   8.142  19.436  0.00  0.00    +0.000 HD
BRANCH  22  25
ATOM     25  C   UNL     1       3.672   6.426  18.633  0.00  0.00    +0.000 C 
BRANCH  25  26
ATOM     26  C   UNL     1       2.713   5.325  19.057  0.00  0.00    +0.000 A 
ATOM     27  C   UNL     1       2.403   5.114  20.414  0.00  0.00    +0.000 A 
ATOM     28  C   UNL     1       1.514   4.113  20.789  0.00  0.00    +0.000 A 
ATOM     29  C   UNL     1       0.901   3.328  19.810  0.00  0.00    +0.000 A 
ATOM     30  C   UNL     1       1.183   3.546  18.465  0.00  0.00    +0.000 A 
ATOM     31  C   UNL     1       2.080   4.539  18.084  0.00  0.00    +0.000 A 
ENDBRANCH  25  26
BRANCH  25  32
ATOM     32  C   UNL     1       4.942   5.848  18.007  0.00  0.00    +0.000 A 
ATOM     33  C   UNL     1       6.063   5.639  18.780  0.00  0.00    +0.000 A 
ATOM     34  C   UNL     1       7.154   4.983  18.229  0.00  0.00    +0.000 A 
ATOM     35  C   UNL     1       7.252   4.598  16.907  0.00  0.00    +0.000 A 
ATOM     36  C   UNL     1       6.155   4.810  16.112  0.00  0.00    +0.000 A 
ATOM     37  C   UNL     1       5.002   5.396  16.663  0.00  0.00    +0.000 A 
ENDBRANCH  25  32
ENDBRANCH  22  25
ENDBRANCH  20  21
ENDBRANCH   2  20
TORSDOF 9
ENDMDL
