MODEL 1
REMARK VINA RESULT:      -7.9      0.000      0.000
REMARK  Name = 
REMARK  7 active torsions:
REMARK  status: ('A' for Active; 'I' for Inactive)
REMARK    1  A    between atoms: C_2  and  O_3
REMARK    2  A    between atoms: C_2  and  C_4
REMARK    3  A    between atoms: C_4  and  C_5
REMARK    4  A    between atoms: C_8  and  O_9
REMARK    5  A    between atoms: O_9  and  C_10
REMARK    6  A    between atoms: C_10  and  C_12
REMARK    7  A    between atoms: C_15  and  C_16
REMARK                            x       y       z     vdW  Elec       q    Type
REMARK                         _______ _______ _______ _____ _____    ______ ____
ROOT
ATOM      1  O   UNL     1       3.792   5.695  19.936  0.00  0.00    +0.000 OA
ENDROOT
BRANCH   1   5
ATOM      2  C   UNL     1       5.811   4.024  16.561  0.00  0.00    +0.000 A 
ATOM      3  C   UNL     1       4.467   4.043  16.564  0.00  0.00    +0.000 A 
ATOM      4  C   UNL     1       3.763   4.583  17.712  0.00  0.00    +0.000 A 
ATOM      5  C   UNL     1       4.397   5.096  18.791  0.00  0.00    +0.000 A 
ATOM      6  C   UNL     1       5.829   5.078  18.804  0.00  0.00    +0.000 A 
ATOM      7  N   UNL     1       6.728   5.506  19.667  0.00  0.00    +0.000 NA
ATOM      8  C   UNL     1       7.912   5.191  19.071  0.00  0.00    +0.000 A 
ATOM      9  N   UNL     1       7.831   4.573  17.892  0.00  0.00    +0.000 NA
ATOM     10  N   UNL     1       6.485   4.519  17.688  0.00  0.00    +0.000 N 
BRANCH   2  11
ATOM     11  C   UNL     1       6.607   3.575  15.371  0.00  0.00    +0.000 C 
BRANCH  11  13
ATOM     12  O   UNL     1       6.832   5.651  14.162  0.00  0.00    +0.000 OA
ATOM     13  C   UNL     1       6.428   4.499  14.188  0.00  0.00    +0.000 C 
BRANCH  13  14
ATOM     14  O   UNL     1       5.760   3.938  13.155  0.00  0.00    +0.000 OA
ATOM     15  H   UNL     1       5.029   4.490  12.808  0.00  0.00    +0.000 HD
ENDBRANCH  13  14
ENDBRANCH  11  13
ENDBRANCH   2  11
ENDBRANCH   1   5
BRANCH   1  16
ATOM     16  C   UNL     1       2.440   5.881  19.998  0.00  0.00    +0.000 C 
ATOM     17  O   UNL     1       1.596   5.033  20.253  0.00  0.00    +0.000 OA
BRANCH  16  18
ATOM     18  C   UNL     1       1.999   7.276  19.721  0.00  0.00    +0.000 A 
ATOM     19  C   UNL     1       1.397   7.961  20.792  0.00  0.00    +0.000 A 
ATOM     20  C   UNL     1       0.938   9.268  20.645  0.00  0.00    +0.000 A 
ATOM     21  C   UNL     1       1.075   9.925  19.422  0.00  0.00    +0.000 A 
ATOM     22  C   UNL     1       1.674   9.253  18.345  0.00  0.00    +0.000 A 
ATOM     23  C   UNL     1       2.135   7.929  18.491  0.00  0.00    +0.000 A 
BRANCH  21  24
ATOM     24  C   UNL     1       0.619  11.338  19.324  0.00  0.00    +0.000 C 
ATOM     25  N   UNL     1       0.595  12.112  20.381  0.00  0.00    +0.000 NA
ATOM     26  C   UNL     1       0.055  13.413  19.911  0.00  0.00    +0.000 C 
ATOM     27  C   UNL     1      -0.131  13.297  18.397  0.00  0.00    +0.000 C 
ATOM     28  N   UNL     1       0.232  11.921  18.145  0.00  0.00    +0.000 N 
ATOM     29  H   UNL     1      -0.353  11.389  17.513  0.00  0.00    +0.000 HD
ENDBRANCH  21  24
ENDBRANCH  16  18
ENDBRANCH   1  16
TORSDOF 7
ENDMDL
MODEL 2
REMARK VINA RESULT:      -7.9      0.503      1.056
REMARK  Name = 
REMARK  7 active torsions:
REMARK  status: ('A' for Active; 'I' for Inactive)
REMARK    1  A    between atoms: C_2  and  O_3
REMARK    2  A    between atoms: C_2  and  C_4
REMARK    3  A    between atoms: C_4  and  C_5
REMARK    4  A    between atoms: C_8  and  O_9
REMARK    5  A    between atoms: O_9  and  C_10
REMARK    6  A    between atoms: C_10  and  C_12
REMARK    7  A    between atoms: C_15  and  C_16
REMARK                            x       y       z     vdW  Elec       q    Type
REMARK                         _______ _______ _______ _____ _____    ______ ____
ROOT
ATOM      1  O   UNL     1       3.654   5.568  20.109  0.00  0.00    +0.000 OA
ENDROOT
BRANCH   1   5
ATOM      2  C   UNL     1       5.511   3.994  16.598  0.00  0.00    +0.000 A 
ATOM      3  C   UNL     1       4.168   3.984  16.678  0.00  0.00    +0.000 A 
ATOM      4  C   UNL     1       3.520   4.491  17.873  0.00  0.00    +0.000 A 
ATOM      5  C   UNL     1       4.204   5.000  18.922  0.00  0.00    +0.000 A 
ATOM      6  C   UNL     1       5.635   5.012  18.854  0.00  0.00    +0.000 A 
ATOM      7  N   UNL     1       6.572   5.445  19.672  0.00  0.00    +0.000 NA
ATOM      8  C   UNL     1       7.727   5.165  19.005  0.00  0.00    +0.000 A 
ATOM      9  N   UNL     1       7.591   4.564  17.822  0.00  0.00    +0.000 NA
ATOM     10  N   UNL     1       6.237   4.485  17.694  0.00  0.00    +0.000 N 
BRANCH   2  11
ATOM     11  C   UNL     1       6.246   3.581  15.358  0.00  0.00    +0.000 C 
BRANCH  11  13
ATOM     12  O   UNL     1       6.287   5.912  14.735  0.00  0.00    +0.000 OA
ATOM     13  C   UNL     1       6.489   4.747  14.428  0.00  0.00    +0.000 C 
BRANCH  13  14
ATOM     14  O   UNL     1       6.939   4.385  13.205  0.00  0.00    +0.000 OA
ATOM     15  H   UNL     1       6.479   4.832  12.464  0.00  0.00    +0.000 HD
ENDBRANCH  13  14
ENDBRANCH  11  13
ENDBRANCH   2  11
ENDBRANCH   1   5
BRANCH   1  16
ATOM     16  C   UNL     1       2.305   5.742  20.243  0.00  0.00    +0.000 C 
ATOM     17  O   UNL     1       1.475   4.876  20.484  0.00  0.00    +0.000 OA
BRANCH  16  18
ATOM     18  C   UNL     1       1.848   7.149  20.072  0.00  0.00    +0.000 A 
ATOM     19  C   UNL     1       2.055   7.718  18.802  0.00  0.00    +0.000 A 
ATOM     20  C   UNL     1       1.676   9.031  18.530  0.00  0.00    +0.000 A 
ATOM     21  C   UNL     1       1.072   9.805  19.522  0.00  0.00    +0.000 A 
ATOM     22  C   UNL     1       0.858   9.249  20.793  0.00  0.00    +0.000 A 
ATOM     23  C   UNL     1       1.246   7.923  21.070  0.00  0.00    +0.000 A 
BRANCH  21  24
ATOM     24  C   UNL     1       0.634  11.184  19.172  0.00  0.00    +0.000 C 
ATOM     25  N   UNL     1       1.251  12.231  19.662  0.00  0.00    +0.000 NA
ATOM     26  C   UNL     1       0.520  13.409  19.131  0.00  0.00    +0.000 C 
ATOM     27  C   UNL     1      -0.550  12.877  18.177  0.00  0.00    +0.000 C 
ATOM     28  N   UNL     1      -0.400  11.446  18.310  0.00  0.00    +0.000 N 
ATOM     29  H   UNL     1      -1.241  10.889  18.384  0.00  0.00    +0.000 HD
ENDBRANCH  21  24
ENDBRANCH  16  18
ENDBRANCH   1  16
TORSDOF 7
ENDMDL
MODEL 3
REMARK VINA RESULT:      -7.8      5.404      6.632
REMARK  Name = 
REMARK  7 active torsions:
REMARK  status: ('A' for Active; 'I' for Inactive)
REMARK    1  A    between atoms: C_2  and  O_3
REMARK    2  A    between atoms: C_2  and  C_4
REMARK    3  A    between atoms: C_4  and  C_5
REMARK    4  A    between atoms: C_8  and  O_9
REMARK    5  A    between atoms: O_9  and  C_10
REMARK    6  A    between atoms: C_10  and  C_12
REMARK    7  A    between atoms: C_15  and  C_16
REMARK                            x       y       z     vdW  Elec       q    Type
REMARK                         _______ _______ _______ _____ _____    ______ ____
ROOT
ATOM      1  O   UNL     1       7.007   7.959  17.107  0.00  0.00    +0.000 OA
ENDROOT
BRANCH   1   5
ATOM      2  C   UNL     1       4.126   4.804  17.143  0.00  0.00    +0.000 A 
ATOM      3  C   UNL     1       3.890   5.901  17.883  0.00  0.00    +0.000 A 
ATOM      4  C   UNL     1       4.868   6.973  17.904  0.00  0.00    +0.000 A 
ATOM      5  C   UNL     1       6.017   6.936  17.191  0.00  0.00    +0.000 A 
ATOM      6  C   UNL     1       6.284   5.770  16.402  0.00  0.00    +0.000 A 
ATOM      7  N   UNL     1       7.273   5.434  15.598  0.00  0.00    +0.000 NA
ATOM      8  C   UNL     1       6.911   4.197  15.156  0.00  0.00    +0.000 A 
ATOM      9  N   UNL     1       5.767   3.710  15.638  0.00  0.00    +0.000 NA
ATOM     10  N   UNL     1       5.330   4.733  16.426  0.00  0.00    +0.000 N 
BRANCH   2  11
ATOM     11  C   UNL     1       3.119   3.702  16.993  0.00  0.00    +0.000 C 
BRANCH  11  13
ATOM     12  O   UNL     1       2.606   2.576  19.065  0.00  0.00    +0.000 OA
ATOM     13  C   UNL     1       3.285   2.635  18.051  0.00  0.00    +0.000 C 
BRANCH  13  14
ATOM     14  O   UNL     1       4.273   1.752  17.783  0.00  0.00    +0.000 OA
ATOM     15  H   UNL     1       4.371   1.049  18.459  0.00  0.00    +0.000 HD
ENDBRANCH  13  14
ENDBRANCH  11  13
ENDBRANCH   2  11
ENDBRANCH   1   5
BRANCH   1  16
ATOM     16  C   UNL     1       7.965   8.088  18.072  0.00  0.00    +0.000 C 
ATOM     17  O   UNL     1       8.436   7.193  18.761  0.00  0.00    +0.000 OA
BRANCH  16  18
ATOM     18  C   UNL     1       8.457   9.480  18.267  0.00  0.00    +0.000 A 
ATOM     19  C   UNL     1       7.899  10.458  17.424  0.00  0.00    +0.000 A 
ATOM     20  C   UNL     1       8.291  11.793  17.510  0.00  0.00    +0.000 A 
ATOM     21  C   UNL     1       9.247  12.183  18.448  0.00  0.00    +0.000 A 
ATOM     22  C   UNL     1       9.810  11.217  19.297  0.00  0.00    +0.000 A 
ATOM     23  C   UNL     1       9.418   9.866  19.207  0.00  0.00    +0.000 A 
BRANCH  21  24
ATOM     24  C   UNL     1       9.596  13.627  18.543  0.00  0.00    +0.000 C 
ATOM     25  N   UNL     1      10.401  14.065  19.479  0.00  0.00    +0.000 NA
ATOM     26  C   UNL     1      10.480  15.534  19.282  0.00  0.00    +0.000 C 
ATOM     27  C   UNL     1       9.675  15.858  18.022  0.00  0.00    +0.000 C 
ATOM     28  N   UNL     1       9.136  14.568  17.659  0.00  0.00    +0.000 N 
ATOM     29  H   UNL     1       8.166  14.527  17.373  0.00  0.00    +0.000 HD
ENDBRANCH  21  24
ENDBRANCH  16  18
ENDBRANCH   1  16
TORSDOF 7
ENDMDL
MODEL 4
REMARK VINA RESULT:      -7.8      2.897      8.366
REMARK  Name = 
REMARK  7 active torsions:
REMARK  status: ('A' for Active; 'I' for Inactive)
REMARK    1  A    between atoms: C_2  and  O_3
REMARK    2  A    between atoms: C_2  and  C_4
REMARK    3  A    between atoms: C_4  and  C_5
REMARK    4  A    between atoms: C_8  and  O_9
REMARK    5  A    between atoms: O_9  and  C_10
REMARK    6  A    between atoms: C_10  and  C_12
REMARK    7  A    between atoms: C_15  and  C_16
REMARK                            x       y       z     vdW  Elec       q    Type
REMARK                         _______ _______ _______ _____ _____    ______ ____
ROOT
ATOM      1  O   UNL     1       2.881   7.250  19.655  0.00  0.00    +0.000 OA
ENDROOT
BRANCH   1   5
ATOM      2  C   UNL     1      -0.099  10.229  18.947  0.00  0.00    +0.000 A 
ATOM      3  C   UNL     1       0.616   9.772  17.904  0.00  0.00    +0.000 A 
ATOM      4  C   UNL     1       1.650   8.779  18.128  0.00  0.00    +0.000 A 
ATOM      5  C   UNL     1       1.926   8.264  19.348  0.00  0.00    +0.000 A 
ATOM      6  C   UNL     1       1.175   8.746  20.470  0.00  0.00    +0.000 A 
ATOM      7  N   UNL     1       1.180   8.446  21.753  0.00  0.00    +0.000 NA
ATOM      8  C   UNL     1       0.218   9.262  22.270  0.00  0.00    +0.000 A 
ATOM      9  N   UNL     1      -0.389  10.077  21.405  0.00  0.00    +0.000 NA
ATOM     10  N   UNL     1       0.199   9.733  20.225  0.00  0.00    +0.000 N 
BRANCH   2  11
ATOM     11  C   UNL     1      -1.248  11.179  18.780  0.00  0.00    +0.000 C 
BRANCH  11  13
ATOM     12  O   UNL     1      -2.839   9.813  17.586  0.00  0.00    +0.000 OA
ATOM     13  C   UNL     1      -2.127  10.805  17.608  0.00  0.00    +0.000 C 
BRANCH  13  14
ATOM     14  O   UNL     1      -2.043  11.664  16.568  0.00  0.00    +0.000 OA
ATOM     15  H   UNL     1      -2.129  11.235  15.691  0.00  0.00    +0.000 HD
ENDBRANCH  13  14
ENDBRANCH  11  13
ENDBRANCH   2  11
ENDBRANCH   1   5
BRANCH   1  16
ATOM     16  C   UNL     1       2.691   5.961  19.245  0.00  0.00    +0.000 C 
ATOM     17  O   UNL     1       1.928   5.141  19.737  0.00  0.00    +0.000 OA
BRANCH  16  18
ATOM     18  C   UNL     1       3.520   5.561  18.074  0.00  0.00    +0.000 A 
ATOM     19  C   UNL     1       4.209   6.598  17.419  0.00  0.00    +0.000 A 
ATOM     20  C   UNL     1       5.007   6.342  16.305  0.00  0.00    +0.000 A 
ATOM     21  C   UNL     1       5.141   5.039  15.825  0.00  0.00    +0.000 A 
ATOM     22  C   UNL     1       4.460   3.995  16.470  0.00  0.00    +0.000 A 
ATOM     23  C   UNL     1       3.649   4.254  17.593  0.00  0.00    +0.000 A 
BRANCH  21  24
ATOM     24  C   UNL     1       6.046   4.803  14.667  0.00  0.00    +0.000 C 
ATOM     25  N   UNL     1       7.211   5.398  14.591  0.00  0.00    +0.000 NA
ATOM     26  C   UNL     1       7.800   4.957  13.302  0.00  0.00    +0.000 C 
ATOM     27  C   UNL     1       6.836   3.936  12.697  0.00  0.00    +0.000 C 
ATOM     28  N   UNL     1       5.743   3.945  13.641  0.00  0.00    +0.000 N 
ATOM     29  H   UNL     1       4.801   3.950  13.271  0.00  0.00    +0.000 HD
ENDBRANCH  21  24
ENDBRANCH  16  18
ENDBRANCH   1  16
TORSDOF 7
ENDMDL
MODEL 5
REMARK VINA RESULT:      -7.7      5.426      6.838
REMARK  Name = 
REMARK  7 active torsions:
REMARK  status: ('A' for Active; 'I' for Inactive)
REMARK    1  A    between atoms: C_2  and  O_3
REMARK    2  A    between atoms: C_2  and  C_4
REMARK    3  A    between atoms: C_4  and  C_5
REMARK    4  A    between atoms: C_8  and  O_9
REMARK    5  A    between atoms: O_9  and  C_10
REMARK    6  A    between atoms: C_10  and  C_12
REMARK    7  A    between atoms: C_15  and  C_16
REMARK                            x       y       z     vdW  Elec       q    Type
REMARK                         _______ _______ _______ _____ _____    ______ ____
ROOT
ATOM      1  O   UNL     1       7.025   7.984  17.082  0.00  0.00    +0.000 OA
ENDROOT
BRANCH   1   5
ATOM      2  C   UNL     1       4.214   4.766  17.081  0.00  0.00    +0.000 A 
ATOM      3  C   UNL     1       3.986   5.822  17.883  0.00  0.00    +0.000 A 
ATOM      4  C   UNL     1       4.942   6.913  17.916  0.00  0.00    +0.000 A 
ATOM      5  C   UNL     1       6.061   6.936  17.156  0.00  0.00    +0.000 A 
ATOM      6  C   UNL     1       6.319   5.815  16.301  0.00  0.00    +0.000 A 
ATOM      7  N   UNL     1       7.280   5.540  15.442  0.00  0.00    +0.000 NA
ATOM      8  C   UNL     1       6.927   4.317  14.956  0.00  0.00    +0.000 A 
ATOM      9  N   UNL     1       5.813   3.782  15.461  0.00  0.00    +0.000 NA
ATOM     10  N   UNL     1       5.389   4.757  16.314  0.00  0.00    +0.000 N 
BRANCH   2  11
ATOM     11  C   UNL     1       3.225   3.650  16.920  0.00  0.00    +0.000 C 
BRANCH  11  13
ATOM     12  O   UNL     1       2.215   2.718  18.904  0.00  0.00    +0.000 OA
ATOM     13  C   UNL     1       3.168   2.762  18.142  0.00  0.00    +0.000 C 
BRANCH  13  14
ATOM     14  O   UNL     1       4.285   2.022  18.329  0.00  0.00    +0.000 OA
ATOM     15  H   UNL     1       4.746   1.781  17.499  0.00  0.00    +0.000 HD
ENDBRANCH  13  14
ENDBRANCH  11  13
ENDBRANCH   2  11
ENDBRANCH   1   5
BRANCH   1  16
ATOM     16  C   UNL     1       7.978   8.129  18.049  0.00  0.00    +0.000 C 
ATOM     17  O   UNL     1       8.460   7.244  18.742  0.00  0.00    +0.000 OA
BRANCH  16  18
ATOM     18  C   UNL     1       8.448   9.530  18.242  0.00  0.00    +0.000 A 
ATOM     19  C   UNL     1       9.330   9.746  19.317  0.00  0.00    +0.000 A 
ATOM     20  C   UNL     1       9.826  11.017  19.598  0.00  0.00    +0.000 A 
ATOM     21  C   UNL     1       9.457  12.104  18.804  0.00  0.00    +0.000 A 
ATOM     22  C   UNL     1       8.578  11.902  17.728  0.00  0.00    +0.000 A 
ATOM     23  C   UNL     1       8.072  10.617  17.447  0.00  0.00    +0.000 A 
BRANCH  21  24
ATOM     24  C   UNL     1      10.052  13.434  19.107  0.00  0.00    +0.000 C 
ATOM     25  N   UNL     1       9.832  14.463  18.327  0.00  0.00    +0.000 NA
ATOM     26  C   UNL     1      10.608  15.583  18.916  0.00  0.00    +0.000 C 
ATOM     27  C   UNL     1      11.227  15.063  20.214  0.00  0.00    +0.000 C 
ATOM     28  N   UNL     1      10.828  13.674  20.213  0.00  0.00    +0.000 N 
ATOM     29  H   UNL     1      11.521  12.985  20.474  0.00  0.00    +0.000 HD
ENDBRANCH  21  24
ENDBRANCH  16  18
ENDBRANCH   1  16
TORSDOF 7
ENDMDL
MODEL 6
REMARK VINA RESULT:      -7.7      3.011      8.446
REMARK  Name = 
REMARK  7 active torsions:
REMARK  status: ('A' for Active; 'I' for Inactive)
REMARK    1  A    between atoms: C_2  and  O_3
REMARK    2  A    between atoms: C_2  and  C_4
REMARK    3  A    between atoms: C_4  and  C_5
REMARK    4  A    between atoms: C_8  and  O_9
REMARK    5  A    between atoms: O_9  and  C_10
REMARK    6  A    between atoms: C_10  and  C_12
REMARK    7  A    between atoms: C_15  and  C_16
REMARK                            x       y       z     vdW  Elec       q    Type
REMARK                         _______ _______ _______ _____ _____    ______ ____
ROOT
ATOM      1  O   UNL     1       2.859   6.963  19.663  0.00  0.00    +0.000 OA
ENDROOT
BRANCH   1   5
ATOM      2  C   UNL     1       0.085  10.140  18.978  0.00  0.00    +0.000 A 
ATOM      3  C   UNL     1       0.738   9.615  17.926  0.00  0.00    +0.000 A 
ATOM      4  C   UNL     1       1.703   8.554  18.141  0.00  0.00    +0.000 A 
ATOM      5  C   UNL     1       1.972   8.039  19.363  0.00  0.00    +0.000 A 
ATOM      6  C   UNL     1       1.287   8.592  20.494  0.00  0.00    +0.000 A 
ATOM      7  N   UNL     1       1.304   8.312  21.781  0.00  0.00    +0.000 NA
ATOM      8  C   UNL     1       0.417   9.203  22.308  0.00  0.00    +0.000 A 
ATOM      9  N   UNL     1      -0.152  10.047  21.445  0.00  0.00    +0.000 NA
ATOM     10  N   UNL     1       0.379   9.643  20.257  0.00  0.00    +0.000 N 
BRANCH   2  11
ATOM     11  C   UNL     1      -0.996  11.168  18.823  0.00  0.00    +0.000 C 
BRANCH  11  13
ATOM     12  O   UNL     1       0.400  13.062  19.359  0.00  0.00    +0.000 OA
ATOM     13  C   UNL     1      -0.432  12.557  18.622  0.00  0.00    +0.000 C 
BRANCH  13  14
ATOM     14  O   UNL     1      -0.948  13.205  17.553  0.00  0.00    +0.000 OA
ATOM     15  H   UNL     1      -0.930  14.181  17.634  0.00  0.00    +0.000 HD
ENDBRANCH  13  14
ENDBRANCH  11  13
ENDBRANCH   2  11
ENDBRANCH   1   5
BRANCH   1  16
ATOM     16  C   UNL     1       2.759   5.769  19.008  0.00  0.00    +0.000 C 
ATOM     17  O   UNL     1       2.006   4.844  19.280  0.00  0.00    +0.000 OA
BRANCH  16  18
ATOM     18  C   UNL     1       3.683   5.627  17.847  0.00  0.00    +0.000 A 
ATOM     19  C   UNL     1       3.773   4.343  17.280  0.00  0.00    +0.000 A 
ATOM     20  C   UNL     1       4.612   4.090  16.196  0.00  0.00    +0.000 A 
ATOM     21  C   UNL     1       5.378   5.121  15.649  0.00  0.00    +0.000 A 
ATOM     22  C   UNL     1       5.297   6.407  16.206  0.00  0.00    +0.000 A 
ATOM     23  C   UNL     1       4.451   6.662  17.305  0.00  0.00    +0.000 A 
BRANCH  21  24
ATOM     24  C   UNL     1       6.220   4.820  14.459  0.00  0.00    +0.000 C 
ATOM     25  N   UNL     1       5.842   3.929  13.576  0.00  0.00    +0.000 NA
ATOM     26  C   UNL     1       6.935   3.874  12.573  0.00  0.00    +0.000 C 
ATOM     27  C   UNL     1       7.952   4.947  12.963  0.00  0.00    +0.000 C 
ATOM     28  N   UNL     1       7.403   5.461  14.197  0.00  0.00    +0.000 N 
ATOM     29  H   UNL     1       8.042   5.626  14.964  0.00  0.00    +0.000 HD
ENDBRANCH  21  24
ENDBRANCH  16  18
ENDBRANCH   1  16
TORSDOF 7
ENDMDL
MODEL 7
REMARK VINA RESULT:      -7.7      2.892      8.428
REMARK  Name = 
REMARK  7 active torsions:
REMARK  status: ('A' for Active; 'I' for Inactive)
REMARK    1  A    between atoms: C_2  and  O_3
REMARK    2  A    between atoms: C_2  and  C_4
REMARK    3  A    between atoms: C_4  and  C_5
REMARK    4  A    between atoms: C_8  and  O_9
REMARK    5  A    between atoms: O_9  and  C_10
REMARK    6  A    between atoms: C_10  and  C_12
REMARK    7  A    between atoms: C_15  and  C_16
REMARK                            x       y       z     vdW  Elec       q    Type
REMARK                         _______ _______ _______ _____ _____    ______ ____
ROOT
ATOM      1  O   UNL     1       2.763   7.048  19.705  0.00  0.00    +0.000 OA
ENDROOT
BRANCH   1   5
ATOM      2  C   UNL     1       0.124  10.335  19.005  0.00  0.00    +0.000 A 
ATOM      3  C   UNL     1       0.802   9.818  17.964  0.00  0.00    +0.000 A 
ATOM      4  C   UNL     1       1.722   8.718  18.186  0.00  0.00    +0.000 A 
ATOM      5  C   UNL     1       1.924   8.161  19.402  0.00  0.00    +0.000 A 
ATOM      6  C   UNL     1       1.213   8.704  20.521  0.00  0.00    +0.000 A 
ATOM      7  N   UNL     1       1.168   8.388  21.799  0.00  0.00    +0.000 NA
ATOM      8  C   UNL     1       0.290   9.294  22.316  0.00  0.00    +0.000 A 
ATOM      9  N   UNL     1      -0.215  10.180  21.457  0.00  0.00    +0.000 NA
ATOM     10  N   UNL     1       0.350   9.792  20.279  0.00  0.00    +0.000 N 
BRANCH   2  11
ATOM     11  C   UNL     1      -0.915  11.403  18.837  0.00  0.00    +0.000 C 
BRANCH  11  13
ATOM     12  O   UNL     1      -2.520   9.821  17.973  0.00  0.00    +0.000 OA
ATOM     13  C   UNL     1      -2.056  10.950  17.954  0.00  0.00    +0.000 C 
BRANCH  13  14
ATOM     14  O   UNL     1      -2.512  11.910  17.118  0.00  0.00    +0.000 OA
ATOM     15  H   UNL     1      -2.192  12.811  17.336  0.00  0.00    +0.000 HD
ENDBRANCH  13  14
ENDBRANCH  11  13
ENDBRANCH   2  11
ENDBRANCH   1   5
BRANCH   1  16
ATOM     16  C   UNL     1       2.629   5.866  19.034  0.00  0.00    +0.000 C 
ATOM     17  O   UNL     1       1.840   4.965  19.286  0.00  0.00    +0.000 OA
BRANCH  16  18
ATOM     18  C   UNL     1       3.561   5.704  17.884  0.00  0.00    +0.000 A 
ATOM     19  C   UNL     1       3.695   4.401  17.371  0.00  0.00    +0.000 A 
ATOM     20  C   UNL     1       4.547   4.130  16.302  0.00  0.00    +0.000 A 
ATOM     21  C   UNL     1       5.282   5.161  15.714  0.00  0.00    +0.000 A 
ATOM     22  C   UNL     1       5.157   6.466  16.215  0.00  0.00    +0.000 A 
ATOM     23  C   UNL     1       4.299   6.740  17.300  0.00  0.00    +0.000 A 
BRANCH  21  24
ATOM     24  C   UNL     1       6.138   4.837  14.540  0.00  0.00    +0.000 C 
ATOM     25  N   UNL     1       5.762   3.942  13.660  0.00  0.00    +0.000 NA
ATOM     26  C   UNL     1       6.870   3.863  12.675  0.00  0.00    +0.000 C 
ATOM     27  C   UNL     1       7.895   4.927  13.071  0.00  0.00    +0.000 C 
ATOM     28  N   UNL     1       7.333   5.460  14.290  0.00  0.00    +0.000 N 
ATOM     29  H   UNL     1       7.962   5.624  15.066  0.00  0.00    +0.000 HD
ENDBRANCH  21  24
ENDBRANCH  16  18
ENDBRANCH   1  16
TORSDOF 7
ENDMDL
MODEL 8
REMARK VINA RESULT:      -7.6      2.397      3.861
REMARK  Name = 
REMARK  7 active torsions:
REMARK  status: ('A' for Active; 'I' for Inactive)
REMARK    1  A    between atoms: C_2  and  O_3
REMARK    2  A    between atoms: C_2  and  C_4
REMARK    3  A    between atoms: C_4  and  C_5
REMARK    4  A    between atoms: C_8  and  O_9
REMARK    5  A    between atoms: O_9  and  C_10
REMARK    6  A    between atoms: C_10  and  C_12
REMARK    7  A    between atoms: C_15  and  C_16
REMARK                            x       y       z     vdW  Elec       q    Type
REMARK                         _______ _______ _______ _____ _____    ______ ____
ROOT
ATOM      1  O   UNL     1       4.192   2.955  17.880  0.00  0.00    +0.000 OA
ENDROOT
BRANCH   1   5
ATOM      2  C   UNL     1       7.200   5.964  18.272  0.00  0.00    +0.000 A 
ATOM      3  C   UNL     1       6.521   5.584  19.369  0.00  0.00    +0.000 A 
ATOM      4  C   UNL     1       5.478   4.582  19.252  0.00  0.00    +0.000 A 
ATOM      5  C   UNL     1       5.159   3.984  18.081  0.00  0.00    +0.000 A 
ATOM      6  C   UNL     1       5.871   4.383  16.904  0.00  0.00    +0.000 A 
ATOM      7  N   UNL     1       5.821   3.994  15.646  0.00  0.00    +0.000 NA
ATOM      8  C   UNL     1       6.765   4.767  15.039  0.00  0.00    +0.000 A 
ATOM      9  N   UNL     1       7.404   5.638  15.822  0.00  0.00    +0.000 NA
ATOM     10  N   UNL     1       6.857   5.380  17.043  0.00  0.00    +0.000 N 
BRANCH   2  11
ATOM     11  C   UNL     1       8.356   6.919  18.332  0.00  0.00    +0.000 C 
BRANCH  11  13
ATOM     12  O   UNL     1       7.037   8.585  17.188  0.00  0.00    +0.000 OA
ATOM     13  C   UNL     1       7.948   8.326  17.959  0.00  0.00    +0.000 C 
BRANCH  13  14
ATOM     14  O   UNL     1       8.699   9.285  18.546  0.00  0.00    +0.000 OA
ATOM     15  H   UNL     1       9.197   9.843  17.913  0.00  0.00    +0.000 HD
ENDBRANCH  13  14
ENDBRANCH  11  13
ENDBRANCH   2  11
ENDBRANCH   1   5
BRANCH   1  16
ATOM     16  C   UNL     1       2.856   3.238  17.888  0.00  0.00    +0.000 C 
ATOM     17  O   UNL     1       1.954   2.526  17.470  0.00  0.00    +0.000 OA
BRANCH  16  18
ATOM     18  C   UNL     1       2.513   4.562  18.479  0.00  0.00    +0.000 A 
ATOM     19  C   UNL     1       2.096   4.552  19.823  0.00  0.00    +0.000 A 
ATOM     20  C   UNL     1       1.741   5.730  20.476  0.00  0.00    +0.000 A 
ATOM     21  C   UNL     1       1.801   6.950  19.802  0.00  0.00    +0.000 A 
ATOM     22  C   UNL     1       2.216   6.974  18.460  0.00  0.00    +0.000 A 
ATOM     23  C   UNL     1       2.571   5.782  17.798  0.00  0.00    +0.000 A 
BRANCH  21  24
ATOM     24  C   UNL     1       1.464   8.190  20.553  0.00  0.00    +0.000 C 
ATOM     25  N   UNL     1       1.027   9.257  19.931  0.00  0.00    +0.000 NA
ATOM     26  C   UNL     1       0.841  10.285  20.985  0.00  0.00    +0.000 C 
ATOM     27  C   UNL     1       1.142   9.610  22.324  0.00  0.00    +0.000 C 
ATOM     28  N   UNL     1       1.557   8.287  21.918  0.00  0.00    +0.000 N 
ATOM     29  H   UNL     1       2.366   7.887  22.376  0.00  0.00    +0.000 HD
ENDBRANCH  21  24
ENDBRANCH  16  18
ENDBRANCH   1  16
TORSDOF 7
ENDMDL
MODEL 9
REMARK VINA RESULT:      -7.6      3.441      4.634
REMARK  Name = 
REMARK  7 active torsions:
REMARK  status: ('A' for Active; 'I' for Inactive)
REMARK    1  A    between atoms: C_2  and  O_3
REMARK    2  A    between atoms: C_2  and  C_4
REMARK    3  A    between atoms: C_4  and  C_5
REMARK    4  A    between atoms: C_8  and  O_9
REMARK    5  A    between atoms: O_9  and  C_10
REMARK    6  A    between atoms: C_10  and  C_12
REMARK    7  A    between atoms: C_15  and  C_16
REMARK                            x       y       z     vdW  Elec       q    Type
REMARK                         _______ _______ _______ _____ _____    ______ ____
ROOT
ATOM      1  O   UNL     1       1.457   8.634  19.242  0.00  0.00    +0.000 OA
ENDROOT
BRANCH   1   5
ATOM      2  C   UNL     1       4.164   5.509  18.162  0.00  0.00    +0.000 A 
ATOM      3  C   UNL     1       4.153   6.636  17.428  0.00  0.00    +0.000 A 
ATOM      4  C   UNL     1       3.223   7.698  17.763  0.00  0.00    +0.000 A 
ATOM      5  C   UNL     1       2.365   7.624  18.805  0.00  0.00    +0.000 A 
ATOM      6  C   UNL     1       2.362   6.427  19.594  0.00  0.00    +0.000 A 
ATOM      7  N   UNL     1       1.683   6.053  20.659  0.00  0.00    +0.000 NA
ATOM      8  C   UNL     1       2.164   4.803  20.914  0.00  0.00    +0.000 A 
ATOM      9  N   UNL     1       3.091   4.346  20.071  0.00  0.00    +0.000 NA
ATOM     10  N   UNL     1       3.254   5.401  19.225  0.00  0.00    +0.000 N 
BRANCH   2  11
ATOM     11  C   UNL     1       5.163   4.412  17.938  0.00  0.00    +0.000 C 
BRANCH  11  13
ATOM     12  O   UNL     1       6.574   5.281  19.693  0.00  0.00    +0.000 OA
ATOM     13  C   UNL     1       6.479   4.696  18.625  0.00  0.00    +0.000 C 
BRANCH  13  14
ATOM     14  O   UNL     1       7.558   4.256  17.938  0.00  0.00    +0.000 OA
ATOM     15  H   UNL     1       7.576   3.285  17.807  0.00  0.00    +0.000 HD
ENDBRANCH  13  14
ENDBRANCH  11  13
ENDBRANCH   2  11
ENDBRANCH   1   5
BRANCH   1  16
ATOM     16  C   UNL     1       1.324   9.803  18.548  0.00  0.00    +0.000 C 
ATOM     17  O   UNL     1       2.202  10.397  17.936  0.00  0.00    +0.000 OA
BRANCH  16  18
ATOM     18  C   UNL     1      -0.051  10.374  18.567  0.00  0.00    +0.000 A 
ATOM     19  C   UNL     1      -0.914   9.948  17.541  0.00  0.00    +0.000 A 
ATOM     20  C   UNL     1      -2.221  10.424  17.454  0.00  0.00    +0.000 A 
ATOM     21  C   UNL     1      -2.700  11.334  18.397  0.00  0.00    +0.000 A 
ATOM     22  C   UNL     1      -1.849  11.767  19.427  0.00  0.00    +0.000 A 
ATOM     23  C   UNL     1      -0.525  11.290  19.513  0.00  0.00    +0.000 A 
BRANCH  21  24
ATOM     24  C   UNL     1      -4.118  11.774  18.298  0.00  0.00    +0.000 C 
ATOM     25  N   UNL     1      -4.820  12.030  19.374  0.00  0.00    +0.000 NA
ATOM     26  C   UNL     1      -6.174  12.395  18.889  0.00  0.00    +0.000 C 
ATOM     27  C   UNL     1      -6.111  12.410  17.361  0.00  0.00    +0.000 C 
ATOM     28  N   UNL     1      -4.760  11.968  17.102  0.00  0.00    +0.000 N 
ATOM     29  H   UNL     1      -4.620  11.291  16.364  0.00  0.00    +0.000 HD
ENDBRANCH  21  24
ENDBRANCH  16  18
ENDBRANCH   1  16
TORSDOF 7
ENDMDL
