MODEL 1
REMARK VINA RESULT:      -7.6      0.000      0.000
REMARK  Name = 
REMARK  3 active torsions:
REMARK  status: ('A' for Active; 'I' for Inactive)
REMARK    1  A    between atoms: O_1  and  C_2
REMARK    2  A    between atoms: C_6  and  C_7
REMARK    3  A    between atoms: N_11  and  C_12
REMARK                            x       y       z     vdW  Elec       q    Type
REMARK                         _______ _______ _______ _____ _____    ______ ____
ROOT
ATOM      1  C   UNL     1       6.594   4.653  16.072  0.00  0.00    +0.000 A 
ATOM      2  C   UNL     1       7.656   4.896  16.920  0.00  0.00    +0.000 A 
ATOM      3  S   UNL     1       7.079   5.147  18.517  0.00  0.00    +0.000 S 
ATOM      4  C   UNL     1       5.473   4.820  17.985  0.00  0.00    +0.000 A 
ATOM      5  N   UNL     1       4.441   4.835  18.857  0.00  0.00    +0.000 N 
ATOM      6  N   UNL     1       5.365   4.590  16.694  0.00  0.00    +0.000 NA
ATOM      7  H   UNL     1       4.549   5.298  19.750  0.00  0.00    +0.000 HD
ENDROOT
BRANCH   5   8
ATOM      8  C   UNL     1       3.280   4.041  18.760  0.00  0.00    +0.000 A 
ATOM      9  C   UNL     1       2.105   4.497  18.144  0.00  0.00    +0.000 A 
ATOM     10  C   UNL     1       0.965   3.690  18.078  0.00  0.00    +0.000 A 
ATOM     11  C   UNL     1       0.969   2.425  18.661  0.00  0.00    +0.000 A 
ATOM     12  C   UNL     1       2.115   1.966  19.307  0.00  0.00    +0.000 A 
ATOM     13  C   UNL     1       3.255   2.769  19.347  0.00  0.00    +0.000 A 
ATOM     14  F   UNL     1       4.349   2.306  19.974  0.00  0.00    +0.000 F 
ENDBRANCH   5   8
BRANCH   1  19
ATOM     15  C   UNL     1       6.067   3.465  12.539  0.00  0.00    +0.000 A 
ATOM     16  C   UNL     1       6.989   4.239  11.842  0.00  0.00    +0.000 A 
ATOM     17  C   UNL     1       7.772   5.156  12.537  0.00  0.00    +0.000 A 
ATOM     18  C   UNL     1       7.629   5.289  13.923  0.00  0.00    +0.000 A 
ATOM     19  C   UNL     1       6.705   4.498  14.627  0.00  0.00    +0.000 A 
ATOM     20  C   UNL     1       5.919   3.588  13.918  0.00  0.00    +0.000 A 
BRANCH  15  21
ATOM     21  O   UNL     1       5.270   2.558  11.902  0.00  0.00    +0.000 OA
ATOM     22  H   UNL     1       4.432   2.484  12.393  0.00  0.00    +0.000 HD
ENDBRANCH  15  21
ENDBRANCH   1  19
TORSDOF 3
ENDMDL
MODEL 2
REMARK VINA RESULT:      -7.5      6.273      8.865
REMARK  Name = 
REMARK  3 active torsions:
REMARK  status: ('A' for Active; 'I' for Inactive)
REMARK    1  A    between atoms: O_1  and  C_2
REMARK    2  A    between atoms: C_6  and  C_7
REMARK    3  A    between atoms: N_11  and  C_12
REMARK                            x       y       z     vdW  Elec       q    Type
REMARK                         _______ _______ _______ _____ _____    ______ ____
ROOT
ATOM      1  C   UNL     1       1.026   9.148  19.943  0.00  0.00    +0.000 A 
ATOM      2  C   UNL     1       1.388   9.675  18.719  0.00  0.00    +0.000 A 
ATOM      3  S   UNL     1       2.397   8.565  17.886  0.00  0.00    +0.000 S 
ATOM      4  C   UNL     1       2.202   7.429  19.167  0.00  0.00    +0.000 A 
ATOM      5  N   UNL     1       2.787   6.213  19.106  0.00  0.00    +0.000 N 
ATOM      6  N   UNL     1       1.475   7.865  20.173  0.00  0.00    +0.000 NA
ATOM      7  H   UNL     1       3.552   6.059  18.461  0.00  0.00    +0.000 HD
ENDROOT
BRANCH   5   8
ATOM      8  C   UNL     1       2.273   5.032  19.678  0.00  0.00    +0.000 A 
ATOM      9  C   UNL     1       2.552   4.651  20.999  0.00  0.00    +0.000 A 
ATOM     10  C   UNL     1       2.039   3.465  21.532  0.00  0.00    +0.000 A 
ATOM     11  C   UNL     1       1.269   2.617  20.739  0.00  0.00    +0.000 A 
ATOM     12  C   UNL     1       1.009   2.959  19.414  0.00  0.00    +0.000 A 
ATOM     13  C   UNL     1       1.505   4.156  18.899  0.00  0.00    +0.000 A 
ATOM     14  F   UNL     1       1.241   4.466  17.618  0.00  0.00    +0.000 F 
ENDBRANCH   5   8
BRANCH   1  19
ATOM     15  C   UNL     1      -1.082  11.729  21.695  0.00  0.00    +0.000 A 
ATOM     16  C   UNL     1      -1.193  11.183  22.971  0.00  0.00    +0.000 A 
ATOM     17  C   UNL     1      -0.582   9.962  23.244  0.00  0.00    +0.000 A 
ATOM     18  C   UNL     1       0.136   9.300  22.242  0.00  0.00    +0.000 A 
ATOM     19  C   UNL     1       0.257   9.859  20.957  0.00  0.00    +0.000 A 
ATOM     20  C   UNL     1      -0.368  11.080  20.693  0.00  0.00    +0.000 A 
BRANCH  15  21
ATOM     21  O   UNL     1      -1.670  12.918  21.376  0.00  0.00    +0.000 OA
ATOM     22  H   UNL     1      -1.589  13.517  22.141  0.00  0.00    +0.000 HD
ENDBRANCH  15  21
ENDBRANCH   1  19
TORSDOF 3
ENDMDL
MODEL 3
REMARK VINA RESULT:      -7.5      1.048      1.500
REMARK  Name = 
REMARK  3 active torsions:
REMARK  status: ('A' for Active; 'I' for Inactive)
REMARK    1  A    between atoms: O_1  and  C_2
REMARK    2  A    between atoms: C_6  and  C_7
REMARK    3  A    between atoms: N_11  and  C_12
REMARK                            x       y       z     vdW  Elec       q    Type
REMARK                         _______ _______ _______ _____ _____    ______ ____
ROOT
ATOM      1  C   UNL     1       6.612   4.680  16.090  0.00  0.00    +0.000 A 
ATOM      2  C   UNL     1       7.681   4.953  16.921  0.00  0.00    +0.000 A 
ATOM      3  S   UNL     1       7.119   5.212  18.522  0.00  0.00    +0.000 S 
ATOM      4  C   UNL     1       5.513   4.848  18.015  0.00  0.00    +0.000 A 
ATOM      5  N   UNL     1       4.492   4.854  18.900  0.00  0.00    +0.000 N 
ATOM      6  N   UNL     1       5.393   4.601  16.729  0.00  0.00    +0.000 NA
ATOM      7  H   UNL     1       4.603   5.329  19.786  0.00  0.00    +0.000 HD
ENDROOT
BRANCH   5   8
ATOM      8  C   UNL     1       3.346   4.037  18.827  0.00  0.00    +0.000 A 
ATOM      9  C   UNL     1       3.342   2.703  19.262  0.00  0.00    +0.000 A 
ATOM     10  C   UNL     1       2.192   1.914  19.161  0.00  0.00    +0.000 A 
ATOM     11  C   UNL     1       1.035   2.435  18.587  0.00  0.00    +0.000 A 
ATOM     12  C   UNL     1       1.027   3.747  18.118  0.00  0.00    +0.000 A 
ATOM     13  C   UNL     1       2.172   4.533  18.244  0.00  0.00    +0.000 A 
ATOM     14  F   UNL     1       2.142   5.795  17.785  0.00  0.00    +0.000 F 
ENDBRANCH   5   8
BRANCH   1  19
ATOM     15  C   UNL     1       6.045   3.458  12.575  0.00  0.00    +0.000 A 
ATOM     16  C   UNL     1       6.962   4.223  11.860  0.00  0.00    +0.000 A 
ATOM     17  C   UNL     1       7.755   5.145  12.538  0.00  0.00    +0.000 A 
ATOM     18  C   UNL     1       7.626   5.292  13.923  0.00  0.00    +0.000 A 
ATOM     19  C   UNL     1       6.707   4.510  14.645  0.00  0.00    +0.000 A 
ATOM     20  C   UNL     1       5.912   3.595  13.953  0.00  0.00    +0.000 A 
BRANCH  15  21
ATOM     21  O   UNL     1       5.240   2.547  11.954  0.00  0.00    +0.000 OA
ATOM     22  H   UNL     1       5.659   1.669  12.021  0.00  0.00    +0.000 HD
ENDBRANCH  15  21
ENDBRANCH   1  19
TORSDOF 3
ENDMDL
MODEL 4
REMARK VINA RESULT:      -7.4      3.199      6.754
REMARK  Name = 
REMARK  3 active torsions:
REMARK  status: ('A' for Active; 'I' for Inactive)
REMARK    1  A    between atoms: O_1  and  C_2
REMARK    2  A    between atoms: C_6  and  C_7
REMARK    3  A    between atoms: N_11  and  C_12
REMARK                            x       y       z     vdW  Elec       q    Type
REMARK                         _______ _______ _______ _____ _____    ______ ____
ROOT
ATOM      1  C   UNL     1       5.106   4.564  18.104  0.00  0.00    +0.000 A 
ATOM      2  C   UNL     1       5.674   5.634  18.766  0.00  0.00    +0.000 A 
ATOM      3  S   UNL     1       7.031   6.208  17.886  0.00  0.00    +0.000 S 
ATOM      4  C   UNL     1       6.708   5.059  16.643  0.00  0.00    +0.000 A 
ATOM      5  N   UNL     1       7.482   5.003  15.538  0.00  0.00    +0.000 N 
ATOM      6  N   UNL     1       5.688   4.265  16.890  0.00  0.00    +0.000 NA
ATOM      7  H   UNL     1       8.400   5.430  15.549  0.00  0.00    +0.000 HD
ENDROOT
BRANCH   5   8
ATOM      8  C   UNL     1       7.043   4.622  14.254  0.00  0.00    +0.000 A 
ATOM      9  C   UNL     1       5.936   3.784  14.054  0.00  0.00    +0.000 A 
ATOM     10  C   UNL     1       5.535   3.412  12.767  0.00  0.00    +0.000 A 
ATOM     11  C   UNL     1       6.259   3.841  11.658  0.00  0.00    +0.000 A 
ATOM     12  C   UNL     1       7.382   4.647  11.836  0.00  0.00    +0.000 A 
ATOM     13  C   UNL     1       7.760   5.032  13.121  0.00  0.00    +0.000 A 
ATOM     14  F   UNL     1       8.845   5.810  13.269  0.00  0.00    +0.000 F 
ENDBRANCH   5   8
BRANCH   1  19
ATOM     15  C   UNL     1       2.662   2.883  20.423  0.00  0.00    +0.000 A 
ATOM     16  C   UNL     1       1.858   2.186  19.526  0.00  0.00    +0.000 A 
ATOM     17  C   UNL     1       2.118   2.282  18.161  0.00  0.00    +0.000 A 
ATOM     18  C   UNL     1       3.181   3.070  17.706  0.00  0.00    +0.000 A 
ATOM     19  C   UNL     1       3.999   3.765  18.614  0.00  0.00    +0.000 A 
ATOM     20  C   UNL     1       3.723   3.668  19.979  0.00  0.00    +0.000 A 
BRANCH  15  21
ATOM     21  O   UNL     1       2.443   2.828  21.768  0.00  0.00    +0.000 OA
ATOM     22  H   UNL     1       3.285   3.003  22.226  0.00  0.00    +0.000 HD
ENDBRANCH  15  21
ENDBRANCH   1  19
TORSDOF 3
ENDMDL
MODEL 5
REMARK VINA RESULT:      -7.4      3.799      6.912
REMARK  Name = 
REMARK  3 active torsions:
REMARK  status: ('A' for Active; 'I' for Inactive)
REMARK    1  A    between atoms: O_1  and  C_2
REMARK    2  A    between atoms: C_6  and  C_7
REMARK    3  A    between atoms: N_11  and  C_12
REMARK                            x       y       z     vdW  Elec       q    Type
REMARK                         _______ _______ _______ _____ _____    ______ ____
ROOT
ATOM      1  C   UNL     1       2.586   6.012  19.480  0.00  0.00    +0.000 A 
ATOM      2  C   UNL     1       2.457   5.103  20.512  0.00  0.00    +0.000 A 
ATOM      3  S   UNL     1       3.094   3.584  20.029  0.00  0.00    +0.000 S 
ATOM      4  C   UNL     1       3.581   4.269  18.524  0.00  0.00    +0.000 A 
ATOM      5  N   UNL     1       4.228   3.521  17.604  0.00  0.00    +0.000 N 
ATOM      6  N   UNL     1       3.245   5.531  18.369  0.00  0.00    +0.000 NA
ATOM      7  H   UNL     1       4.190   2.512  17.665  0.00  0.00    +0.000 HD
ENDROOT
BRANCH   5   8
ATOM      8  C   UNL     1       5.183   4.004  16.687  0.00  0.00    +0.000 A 
ATOM      9  C   UNL     1       4.958   4.020  15.302  0.00  0.00    +0.000 A 
ATOM     10  C   UNL     1       5.932   4.492  14.418  0.00  0.00    +0.000 A 
ATOM     11  C   UNL     1       7.166   4.922  14.901  0.00  0.00    +0.000 A 
ATOM     12  C   UNL     1       7.423   4.883  16.270  0.00  0.00    +0.000 A 
ATOM     13  C   UNL     1       6.436   4.432  17.146  0.00  0.00    +0.000 A 
ATOM     14  F   UNL     1       6.705   4.404  18.462  0.00  0.00    +0.000 F 
ENDBRANCH   5   8
BRANCH   1  19
ATOM     15  C   UNL     1       1.659   9.519  18.471  0.00  0.00    +0.000 A 
ATOM     16  C   UNL     1       1.040   9.989  19.625  0.00  0.00    +0.000 A 
ATOM     17  C   UNL     1       0.921   9.145  20.726  0.00  0.00    +0.000 A 
ATOM     18  C   UNL     1       1.425   7.841  20.665  0.00  0.00    +0.000 A 
ATOM     19  C   UNL     1       2.060   7.372  19.502  0.00  0.00    +0.000 A 
ATOM     20  C   UNL     1       2.165   8.224  18.401  0.00  0.00    +0.000 A 
BRANCH  15  21
ATOM     21  O   UNL     1       1.792  10.304  17.363  0.00  0.00    +0.000 OA
ATOM     22  H   UNL     1       1.330  11.147  17.526  0.00  0.00    +0.000 HD
ENDBRANCH  15  21
ENDBRANCH   1  19
TORSDOF 3
ENDMDL
MODEL 6
REMARK VINA RESULT:      -7.4      1.617      2.218
REMARK  Name = 
REMARK  3 active torsions:
REMARK  status: ('A' for Active; 'I' for Inactive)
REMARK    1  A    between atoms: O_1  and  C_2
REMARK    2  A    between atoms: C_6  and  C_7
REMARK    3  A    between atoms: N_11  and  C_12
REMARK                            x       y       z     vdW  Elec       q    Type
REMARK                         _______ _______ _______ _____ _____    ______ ____
ROOT
ATOM      1  C   UNL     1       6.473   4.864  16.783  0.00  0.00    +0.000 A 
ATOM      2  C   UNL     1       7.498   5.167  17.657  0.00  0.00    +0.000 A 
ATOM      3  S   UNL     1       6.863   5.428  19.230  0.00  0.00    +0.000 S 
ATOM      4  C   UNL     1       5.287   5.027  18.657  0.00  0.00    +0.000 A 
ATOM      5  N   UNL     1       4.229   5.019  19.498  0.00  0.00    +0.000 N 
ATOM      6  N   UNL     1       5.229   4.765  17.370  0.00  0.00    +0.000 NA
ATOM      7  H   UNL     1       4.292   5.505  20.383  0.00  0.00    +0.000 HD
ENDROOT
BRANCH   5   8
ATOM      8  C   UNL     1       3.104   4.178  19.383  0.00  0.00    +0.000 A 
ATOM      9  C   UNL     1       2.999   2.962  20.075  0.00  0.00    +0.000 A 
ATOM     10  C   UNL     1       1.876   2.143  19.928  0.00  0.00    +0.000 A 
ATOM     11  C   UNL     1       0.854   2.507  19.055  0.00  0.00    +0.000 A 
ATOM     12  C   UNL     1       0.954   3.695  18.333  0.00  0.00    +0.000 A 
ATOM     13  C   UNL     1       2.067   4.517  18.504  0.00  0.00    +0.000 A 
ATOM     14  F   UNL     1       2.142   5.657  17.798  0.00  0.00    +0.000 F 
ENDBRANCH   5   8
BRANCH   1  19
ATOM     15  C   UNL     1       7.668   5.225  13.232  0.00  0.00    +0.000 A 
ATOM     16  C   UNL     1       6.874   4.292  12.572  0.00  0.00    +0.000 A 
ATOM     17  C   UNL     1       5.956   3.542  13.302  0.00  0.00    +0.000 A 
ATOM     18  C   UNL     1       5.838   3.733  14.683  0.00  0.00    +0.000 A 
ATOM     19  C   UNL     1       6.634   4.683  15.346  0.00  0.00    +0.000 A 
ATOM     20  C   UNL     1       7.557   5.424  14.605  0.00  0.00    +0.000 A 
BRANCH  15  21
ATOM     21  O   UNL     1       8.588   5.979  12.562  0.00  0.00    +0.000 OA
ATOM     22  H   UNL     1       9.405   6.011  13.092  0.00  0.00    +0.000 HD
ENDBRANCH  15  21
ENDBRANCH   1  19
TORSDOF 3
ENDMDL
MODEL 7
REMARK VINA RESULT:      -7.3      2.826      6.563
REMARK  Name = 
REMARK  3 active torsions:
REMARK  status: ('A' for Active; 'I' for Inactive)
REMARK    1  A    between atoms: O_1  and  C_2
REMARK    2  A    between atoms: C_6  and  C_7
REMARK    3  A    between atoms: N_11  and  C_12
REMARK                            x       y       z     vdW  Elec       q    Type
REMARK                         _______ _______ _______ _____ _____    ______ ____
ROOT
ATOM      1  C   UNL     1       4.911   5.343  17.845  0.00  0.00    +0.000 A 
ATOM      2  C   UNL     1       5.517   6.464  18.378  0.00  0.00    +0.000 A 
ATOM      3  S   UNL     1       6.945   6.825  17.498  0.00  0.00    +0.000 S 
ATOM      4  C   UNL     1       6.604   5.528  16.416  0.00  0.00    +0.000 A 
ATOM      5  N   UNL     1       7.422   5.268  15.372  0.00  0.00    +0.000 N 
ATOM      6  N   UNL     1       5.526   4.838  16.719  0.00  0.00    +0.000 NA
ATOM      7  H   UNL     1       8.363   5.638  15.371  0.00  0.00    +0.000 HD
ENDROOT
BRANCH   5   8
ATOM      8  C   UNL     1       7.016   4.731  14.134  0.00  0.00    +0.000 A 
ATOM      9  C   UNL     1       5.939   3.840  14.016  0.00  0.00    +0.000 A 
ATOM     10  C   UNL     1       5.572   3.312  12.774  0.00  0.00    +0.000 A 
ATOM     11  C   UNL     1       6.300   3.637  11.633  0.00  0.00    +0.000 A 
ATOM     12  C   UNL     1       7.394   4.494  11.733  0.00  0.00    +0.000 A 
ATOM     13  C   UNL     1       7.739   5.033  12.972  0.00  0.00    +0.000 A 
ATOM     14  F   UNL     1       8.797   5.858  13.045  0.00  0.00    +0.000 F 
ENDBRANCH   5   8
BRANCH   1  19
ATOM     15  C   UNL     1       2.222   2.817  18.592  0.00  0.00    +0.000 A 
ATOM     16  C   UNL     1       1.436   3.506  19.511  0.00  0.00    +0.000 A 
ATOM     17  C   UNL     1       1.802   4.796  19.887  0.00  0.00    +0.000 A 
ATOM     18  C   UNL     1       2.947   5.385  19.340  0.00  0.00    +0.000 A 
ATOM     19  C   UNL     1       3.733   4.691  18.404  0.00  0.00    +0.000 A 
ATOM     20  C   UNL     1       3.361   3.396  18.041  0.00  0.00    +0.000 A 
BRANCH  15  21
ATOM     21  O   UNL     1       1.910   1.548  18.198  0.00  0.00    +0.000 OA
ATOM     22  H   UNL     1       2.720   1.007  18.229  0.00  0.00    +0.000 HD
ENDBRANCH  15  21
ENDBRANCH   1  19
TORSDOF 3
ENDMDL
MODEL 8
REMARK VINA RESULT:      -7.3      6.081      8.429
REMARK  Name = 
REMARK  3 active torsions:
REMARK  status: ('A' for Active; 'I' for Inactive)
REMARK    1  A    between atoms: O_1  and  C_2
REMARK    2  A    between atoms: C_6  and  C_7
REMARK    3  A    between atoms: N_11  and  C_12
REMARK                            x       y       z     vdW  Elec       q    Type
REMARK                         _______ _______ _______ _____ _____    ______ ____
ROOT
ATOM      1  C   UNL     1       1.391   8.996  19.487  0.00  0.00    +0.000 A 
ATOM      2  C   UNL     1       1.844   9.391  18.244  0.00  0.00    +0.000 A 
ATOM      3  S   UNL     1       2.825   8.158  17.565  0.00  0.00    +0.000 S 
ATOM      4  C   UNL     1       2.500   7.153  18.926  0.00  0.00    +0.000 A 
ATOM      5  N   UNL     1       3.014   5.906  19.001  0.00  0.00    +0.000 N 
ATOM      6  N   UNL     1       1.752   7.716  19.850  0.00  0.00    +0.000 NA
ATOM      7  H   UNL     1       3.799   5.654  18.414  0.00  0.00    +0.000 HD
ENDROOT
BRANCH   5   8
ATOM      8  C   UNL     1       2.404   4.810  19.643  0.00  0.00    +0.000 A 
ATOM      9  C   UNL     1       2.706   4.447  20.965  0.00  0.00    +0.000 A 
ATOM     10  C   UNL     1       2.094   3.344  21.568  0.00  0.00    +0.000 A 
ATOM     11  C   UNL     1       1.196   2.561  20.847  0.00  0.00    +0.000 A 
ATOM     12  C   UNL     1       0.907   2.884  19.523  0.00  0.00    +0.000 A 
ATOM     13  C   UNL     1       1.505   3.999  18.937  0.00  0.00    +0.000 A 
ATOM     14  F   UNL     1       1.211   4.292  17.659  0.00  0.00    +0.000 F 
ENDBRANCH   5   8
BRANCH   1  19
ATOM     15  C   UNL     1      -0.374  10.298  22.547  0.00  0.00    +0.000 A 
ATOM     16  C   UNL     1      -0.903  11.497  22.077  0.00  0.00    +0.000 A 
ATOM     17  C   UNL     1      -0.667  11.875  20.758  0.00  0.00    +0.000 A 
ATOM     18  C   UNL     1       0.093  11.051  19.921  0.00  0.00    +0.000 A 
ATOM     19  C   UNL     1       0.617   9.836  20.393  0.00  0.00    +0.000 A 
ATOM     20  C   UNL     1       0.381   9.471  21.720  0.00  0.00    +0.000 A 
BRANCH  15  21
ATOM     21  O   UNL     1      -0.571   9.888  23.833  0.00  0.00    +0.000 OA
ATOM     22  H   UNL     1      -1.526   9.757  23.973  0.00  0.00    +0.000 HD
ENDBRANCH  15  21
ENDBRANCH   1  19
TORSDOF 3
ENDMDL
MODEL 9
REMARK VINA RESULT:      -7.3      1.207      1.617
REMARK  Name = 
REMARK  3 active torsions:
REMARK  status: ('A' for Active; 'I' for Inactive)
REMARK    1  A    between atoms: O_1  and  C_2
REMARK    2  A    between atoms: C_6  and  C_7
REMARK    3  A    between atoms: N_11  and  C_12
REMARK                            x       y       z     vdW  Elec       q    Type
REMARK                         _______ _______ _______ _____ _____    ______ ____
ROOT
ATOM      1  C   UNL     1       6.518   4.835  16.597  0.00  0.00    +0.000 A 
ATOM      2  C   UNL     1       7.532   5.113  17.492  0.00  0.00    +0.000 A 
ATOM      3  S   UNL     1       6.874   5.347  19.060  0.00  0.00    +0.000 S 
ATOM      4  C   UNL     1       5.305   4.968  18.455  0.00  0.00    +0.000 A 
ATOM      5  N   UNL     1       4.234   4.952  19.279  0.00  0.00    +0.000 N 
ATOM      6  N   UNL     1       5.265   4.733  17.162  0.00  0.00    +0.000 NA
ATOM      7  H   UNL     1       4.287   5.419  20.175  0.00  0.00    +0.000 HD
ENDROOT
BRANCH   5   8
ATOM      8  C   UNL     1       3.105   4.121  19.130  0.00  0.00    +0.000 A 
ATOM      9  C   UNL     1       1.997   4.488  18.353  0.00  0.00    +0.000 A 
ATOM     10  C   UNL     1       0.885   3.648  18.239  0.00  0.00    +0.000 A 
ATOM     11  C   UNL     1       0.847   2.440  18.932  0.00  0.00    +0.000 A 
ATOM     12  C   UNL     1       1.924   2.072  19.737  0.00  0.00    +0.000 A 
ATOM     13  C   UNL     1       3.037   2.906  19.825  0.00  0.00    +0.000 A 
ATOM     14  F   UNL     1       4.064   2.531  20.607  0.00  0.00    +0.000 F 
ENDBRANCH   5   8
BRANCH   1  19
ATOM     15  C   UNL     1       7.723   5.304  13.061  0.00  0.00    +0.000 A 
ATOM     16  C   UNL     1       6.984   4.340  12.382  0.00  0.00    +0.000 A 
ATOM     17  C   UNL     1       6.100   3.533  13.094  0.00  0.00    +0.000 A 
ATOM     18  C   UNL     1       5.961   3.699  14.476  0.00  0.00    +0.000 A 
ATOM     19  C   UNL     1       6.701   4.681  15.159  0.00  0.00    +0.000 A 
ATOM     20  C   UNL     1       7.590   5.478  14.435  0.00  0.00    +0.000 A 
BRANCH  15  21
ATOM     21  O   UNL     1       8.608   6.113  12.409  0.00  0.00    +0.000 OA
ATOM     22  H   UNL     1       8.256   7.022  12.413  0.00  0.00    +0.000 HD
ENDBRANCH  15  21
ENDBRANCH   1  19
TORSDOF 3
ENDMDL
