MODEL 1
REMARK VINA RESULT:      -7.6      0.000      0.000
REMARK  Name = 
REMARK  12 active torsions:
REMARK  status: ('A' for Active; 'I' for Inactive)
REMARK    1  A    between atoms: C_2  and  C_3
REMARK    2  A    between atoms: C_3  and  C_4
REMARK    3  A    between atoms: C_4  and  C_5
REMARK    4  A    between atoms: C_5  and  C_6
REMARK    5  A    between atoms: C_6  and  C_7
REMARK    6  A    between atoms: C_7  and  C_8
REMARK    7  A    between atoms: N_10  and  C_11
REMARK    8  A    between atoms: C_11  and  C_12
REMARK    9  A    between atoms: C_11  and  C_22
REMARK   10  A    between atoms: C_12  and  C_13
REMARK   11  A    between atoms: N_24  and  C_25
REMARK   12  A    between atoms: N_32  and  O_33
REMARK                            x       y       z     vdW  Elec       q    Type
REMARK                         _______ _______ _______ _____ _____    ______ ____
ROOT
ATOM      1  C   UNL     1       2.571   6.600  19.808  0.00  0.00    +0.000 C 
ENDROOT
BRANCH   1   4
ATOM      2  C   UNL     1       2.006   4.319  20.711  0.00  0.00    +0.000 C 
ATOM      3  O   UNL     1       3.048   4.217  21.351  0.00  0.00    +0.000 OA
ATOM      4  N   UNL     1       1.709   5.408  19.942  0.00  0.00    +0.000 N 
ATOM      5  H   UNL     1       0.775   5.514  19.554  0.00  0.00    +0.000 HD
BRANCH   2   6
ATOM      6  C   UNL     1       0.943   3.223  20.693  0.00  0.00    +0.000 C 
BRANCH   6   7
ATOM      7  C   UNL     1       0.456   2.912  19.277  0.00  0.00    +0.000 C 
BRANCH   7   8
ATOM      8  C   UNL     1       1.465   2.062  18.487  0.00  0.00    +0.000 C 
BRANCH   8   9
ATOM      9  C   UNL     1       2.246   2.906  17.470  0.00  0.00    +0.000 C 
BRANCH   9  10
ATOM     10  C   UNL     1       3.754   2.653  17.546  0.00  0.00    +0.000 C 
BRANCH  10  12
ATOM     11  O   UNL     1       3.937   0.556  18.771  0.00  0.00    +0.000 OA
ATOM     12  C   UNL     1       4.141   1.767  18.717  0.00  0.00    +0.000 C 
ATOM     13  N   UNL     1       4.760   2.447  19.736  0.00  0.00    +0.000 N 
ATOM     14  H   UNL     1       4.906   3.448  19.772  0.00  0.00    +0.000 HD
BRANCH  13  15
ATOM     15  O   UNL     1       5.132   1.696  20.871  0.00  0.00    +0.000 OA
ATOM     16  H   UNL     1       6.015   2.069  21.090  0.00  0.00    +0.000 HD
ENDBRANCH  13  15
ENDBRANCH  10  12
ENDBRANCH   9  10
ENDBRANCH   8   9
ENDBRANCH   7   8
ENDBRANCH   6   7
ENDBRANCH   2   6
ENDBRANCH   1   4
BRANCH   1  17
ATOM     17  C   UNL     1       1.697   7.808  20.232  0.00  0.00    +0.000 C 
ATOM     18  O   UNL     1       1.223   7.846  21.375  0.00  0.00    +0.000 OA
ATOM     19  N   UNL     1       1.539   8.793  19.275  0.00  0.00    +0.000 N 
ATOM     20  H   UNL     1       1.837   8.582  18.334  0.00  0.00    +0.000 HD
BRANCH  19  21
ATOM     21  C   UNL     1       0.835  10.008  19.438  0.00  0.00    +0.000 A 
ATOM     22  C   UNL     1       1.243  11.025  20.310  0.00  0.00    +0.000 A 
ATOM     23  C   UNL     1       0.486  12.193  20.453  0.00  0.00    +0.000 A 
ATOM     24  C   UNL     1      -0.687  12.349  19.724  0.00  0.00    +0.000 A 
ATOM     25 CL   UNL     1      -1.637  13.769  19.926  0.00  0.00    +0.000 Cl
ATOM     26  C   UNL     1      -1.095  11.360  18.834  0.00  0.00    +0.000 A 
ATOM     27  C   UNL     1      -0.329  10.197  18.683  0.00  0.00    +0.000 A 
ENDBRANCH  19  21
ENDBRANCH   1  17
BRANCH   1  28
ATOM     28  C   UNL     1       3.185   6.747  18.397  0.00  0.00    +0.000 C 
BRANCH  28  29
ATOM     29  C   UNL     1       4.546   6.128  18.266  0.00  0.00    +0.000 A 
ATOM     30  C   UNL     1       5.377   5.824  19.327  0.00  0.00    +0.000 A 
ATOM     31  N   UNL     1       6.426   5.094  18.854  0.00  0.00    +0.000 N 
ATOM     32  C   UNL     1       6.391   5.045  17.484  0.00  0.00    +0.000 A 
ATOM     33  C   UNL     1       7.282   4.441  16.589  0.00  0.00    +0.000 A 
ATOM     34  C   UNL     1       7.055   4.624  15.225  0.00  0.00    +0.000 A 
ATOM     35  C   UNL     1       5.961   5.360  14.778  0.00  0.00    +0.000 A 
ATOM     36  C   UNL     1       5.041   5.905  15.689  0.00  0.00    +0.000 A 
ATOM     37  C   UNL     1       5.252   5.745  17.073  0.00  0.00    +0.000 A 
ATOM     38  H   UNL     1       7.153   4.679  19.420  0.00  0.00    +0.000 HD
ENDBRANCH  28  29
ENDBRANCH   1  28
TORSDOF 12
ENDMDL
MODEL 2
REMARK VINA RESULT:      -7.5      6.262     10.058
REMARK  Name = 
REMARK  12 active torsions:
REMARK  status: ('A' for Active; 'I' for Inactive)
REMARK    1  A    between atoms: C_2  and  C_3
REMARK    2  A    between atoms: C_3  and  C_4
REMARK    3  A    between atoms: C_4  and  C_5
REMARK    4  A    between atoms: C_5  and  C_6
REMARK    5  A    between atoms: C_6  and  C_7
REMARK    6  A    between atoms: C_7  and  C_8
REMARK    7  A    between atoms: N_10  and  C_11
REMARK    8  A    between atoms: C_11  and  C_12
REMARK    9  A    between atoms: C_11  and  C_22
REMARK   10  A    between atoms: C_12  and  C_13
REMARK   11  A    between atoms: N_24  and  C_25
REMARK   12  A    between atoms: N_32  and  O_33
REMARK                            x       y       z     vdW  Elec       q    Type
REMARK                         _______ _______ _______ _____ _____    ______ ____
ROOT
ATOM      1  C   UNL     1       6.537   6.311  17.755  0.00  0.00    +0.000 C 
ENDROOT
BRANCH   1   4
ATOM      2  C   UNL     1       8.036   8.316  18.015  0.00  0.00    +0.000 C 
ATOM      3  O   UNL     1       8.709   7.808  18.906  0.00  0.00    +0.000 OA
ATOM      4  N   UNL     1       6.979   7.681  17.427  0.00  0.00    +0.000 N 
ATOM      5  H   UNL     1       6.549   8.078  16.596  0.00  0.00    +0.000 HD
BRANCH   2   6
ATOM      6  C   UNL     1       8.299   9.725  17.489  0.00  0.00    +0.000 C 
BRANCH   6   7
ATOM      7  C   UNL     1       9.068  10.584  18.495  0.00  0.00    +0.000 C 
BRANCH   7   8
ATOM      8  C   UNL     1      10.330  11.213  17.881  0.00  0.00    +0.000 C 
BRANCH   8   9
ATOM      9  C   UNL     1      11.366  11.571  18.955  0.00  0.00    +0.000 C 
BRANCH   9  10
ATOM     10  C   UNL     1      12.196  12.799  18.571  0.00  0.00    +0.000 C 
BRANCH  10  12
ATOM     11  O   UNL     1      10.422  14.462  18.445  0.00  0.00    +0.000 OA
ATOM     12  C   UNL     1      11.366  13.884  17.910  0.00  0.00    +0.000 C 
ATOM     13  N   UNL     1      11.769  14.180  16.632  0.00  0.00    +0.000 N 
ATOM     14  H   UNL     1      12.501  13.703  16.121  0.00  0.00    +0.000 HD
BRANCH  13  15
ATOM     15  O   UNL     1      11.033  15.165  15.942  0.00  0.00    +0.000 OA
ATOM     16  H   UNL     1      10.903  14.751  15.059  0.00  0.00    +0.000 HD
ENDBRANCH  13  15
ENDBRANCH  10  12
ENDBRANCH   9  10
ENDBRANCH   8   9
ENDBRANCH   7   8
ENDBRANCH   6   7
ENDBRANCH   2   6
ENDBRANCH   1   4
BRANCH   1  17
ATOM     17  C   UNL     1       7.035   5.413  16.595  0.00  0.00    +0.000 C 
ATOM     18  O   UNL     1       7.968   4.624  16.792  0.00  0.00    +0.000 OA
ATOM     19  N   UNL     1       6.351   5.549  15.401  0.00  0.00    +0.000 N 
ATOM     20  H   UNL     1       5.718   6.331  15.312  0.00  0.00    +0.000 HD
BRANCH  19  21
ATOM     21  C   UNL     1       6.582   4.809  14.219  0.00  0.00    +0.000 A 
ATOM     22  C   UNL     1       7.550   5.157  13.267  0.00  0.00    +0.000 A 
ATOM     23  C   UNL     1       7.710   4.404  12.100  0.00  0.00    +0.000 A 
ATOM     24  C   UNL     1       6.900   3.296  11.875  0.00  0.00    +0.000 A 
ATOM     25 CL   UNL     1       7.072   2.390  10.424  0.00  0.00    +0.000 Cl
ATOM     26  C   UNL     1       5.951   2.920  12.821  0.00  0.00    +0.000 A 
ATOM     27  C   UNL     1       5.801   3.669  13.996  0.00  0.00    +0.000 A 
ENDBRANCH  19  21
ENDBRANCH   1  17
BRANCH   1  28
ATOM     28  C   UNL     1       5.014   6.210  18.005  0.00  0.00    +0.000 C 
BRANCH  28  29
ATOM     29  C   UNL     1       4.597   4.935  18.677  0.00  0.00    +0.000 A 
ATOM     30  C   UNL     1       5.336   3.767  18.674  0.00  0.00    +0.000 A 
ATOM     31  N   UNL     1       4.756   2.893  19.546  0.00  0.00    +0.000 N 
ATOM     32  C   UNL     1       3.566   3.397  20.002  0.00  0.00    +0.000 A 
ATOM     33  C   UNL     1       2.631   2.826  20.875  0.00  0.00    +0.000 A 
ATOM     34  C   UNL     1       1.446   3.525  21.102  0.00  0.00    +0.000 A 
ATOM     35  C   UNL     1       1.220   4.759  20.500  0.00  0.00    +0.000 A 
ATOM     36  C   UNL     1       2.196   5.347  19.678  0.00  0.00    +0.000 A 
ATOM     37  C   UNL     1       3.399   4.658  19.422  0.00  0.00    +0.000 A 
ATOM     38  H   UNL     1       5.125   1.985  19.795  0.00  0.00    +0.000 HD
ENDBRANCH  28  29
ENDBRANCH   1  28
TORSDOF 12
ENDMDL
MODEL 3
REMARK VINA RESULT:      -7.4      5.854      9.703
REMARK  Name = 
REMARK  12 active torsions:
REMARK  status: ('A' for Active; 'I' for Inactive)
REMARK    1  A    between atoms: C_2  and  C_3
REMARK    2  A    between atoms: C_3  and  C_4
REMARK    3  A    between atoms: C_4  and  C_5
REMARK    4  A    between atoms: C_5  and  C_6
REMARK    5  A    between atoms: C_6  and  C_7
REMARK    6  A    between atoms: C_7  and  C_8
REMARK    7  A    between atoms: N_10  and  C_11
REMARK    8  A    between atoms: C_11  and  C_12
REMARK    9  A    between atoms: C_11  and  C_22
REMARK   10  A    between atoms: C_12  and  C_13
REMARK   11  A    between atoms: N_24  and  C_25
REMARK   12  A    between atoms: N_32  and  O_33
REMARK                            x       y       z     vdW  Elec       q    Type
REMARK                         _______ _______ _______ _____ _____    ______ ____
ROOT
ATOM      1  C   UNL     1       5.885   6.593  17.289  0.00  0.00    +0.000 C 
ENDROOT
BRANCH   1   4
ATOM      2  C   UNL     1       7.829   8.034  17.983  0.00  0.00    +0.000 C 
ATOM      3  O   UNL     1       8.266   7.214  18.784  0.00  0.00    +0.000 OA
ATOM      4  N   UNL     1       6.698   7.826  17.246  0.00  0.00    +0.000 N 
ATOM      5  H   UNL     1       6.461   8.464  16.492  0.00  0.00    +0.000 HD
BRANCH   2   6
ATOM      6  C   UNL     1       8.498   9.386  17.746  0.00  0.00    +0.000 C 
BRANCH   6   7
ATOM      7  C   UNL     1       9.137   9.946  19.018  0.00  0.00    +0.000 C 
BRANCH   7   8
ATOM      8  C   UNL     1      10.116  11.095  18.722  0.00  0.00    +0.000 C 
BRANCH   8   9
ATOM      9  C   UNL     1      10.269  12.036  19.925  0.00  0.00    +0.000 C 
BRANCH   9  10
ATOM     10  C   UNL     1       9.137  13.063  20.004  0.00  0.00    +0.000 C 
BRANCH  10  12
ATOM     11  O   UNL     1       7.952  13.714  17.979  0.00  0.00    +0.000 OA
ATOM     12  C   UNL     1       8.940  13.819  18.703  0.00  0.00    +0.000 C 
ATOM     13  N   UNL     1       9.982  14.656  18.393  0.00  0.00    +0.000 N 
ATOM     14  H   UNL     1      10.843  14.744  18.920  0.00  0.00    +0.000 HD
BRANCH  13  15
ATOM     15  O   UNL     1       9.884  15.379  17.186  0.00  0.00    +0.000 OA
ATOM     16  H   UNL     1       9.188  16.042  17.394  0.00  0.00    +0.000 HD
ENDBRANCH  13  15
ENDBRANCH  10  12
ENDBRANCH   9  10
ENDBRANCH   8   9
ENDBRANCH   7   8
ENDBRANCH   6   7
ENDBRANCH   2   6
ENDBRANCH   1   4
BRANCH   1  17
ATOM     17  C   UNL     1       6.511   5.633  16.247  0.00  0.00    +0.000 C 
ATOM     18  O   UNL     1       7.507   4.966  16.554  0.00  0.00    +0.000 OA
ATOM     19  N   UNL     1       5.863   5.574  15.027  0.00  0.00    +0.000 N 
ATOM     20  H   UNL     1       5.161   6.275  14.837  0.00  0.00    +0.000 HD
BRANCH  19  21
ATOM     21  C   UNL     1       6.209   4.741  13.939  0.00  0.00    +0.000 A 
ATOM     22  C   UNL     1       7.343   4.943  13.142  0.00  0.00    +0.000 A 
ATOM     23  C   UNL     1       7.615   4.104  12.057  0.00  0.00    +0.000 A 
ATOM     24  C   UNL     1       6.752   3.055  11.761  0.00  0.00    +0.000 A 
ATOM     25 CL   UNL     1       7.067   2.043  10.406  0.00  0.00    +0.000 Cl
ATOM     26  C   UNL     1       5.634   2.823  12.557  0.00  0.00    +0.000 A 
ATOM     27  C   UNL     1       5.370   3.657  13.651  0.00  0.00    +0.000 A 
ENDBRANCH  19  21
ENDBRANCH   1  17
BRANCH   1  28
ATOM     28  C   UNL     1       4.378   6.856  17.062  0.00  0.00    +0.000 C 
BRANCH  28  29
ATOM     29  C   UNL     1       3.489   6.129  18.029  0.00  0.00    +0.000 A 
ATOM     30  C   UNL     1       2.922   6.696  19.155  0.00  0.00    +0.000 A 
ATOM     31  N   UNL     1       2.022   5.812  19.671  0.00  0.00    +0.000 N 
ATOM     32  C   UNL     1       2.097   4.615  19.007  0.00  0.00    +0.000 A 
ATOM     33  C   UNL     1       1.389   3.427  19.227  0.00  0.00    +0.000 A 
ATOM     34  C   UNL     1       1.731   2.318  18.454  0.00  0.00    +0.000 A 
ATOM     35  C   UNL     1       2.724   2.405  17.482  0.00  0.00    +0.000 A 
ATOM     36  C   UNL     1       3.379   3.622  17.231  0.00  0.00    +0.000 A 
ATOM     37  C   UNL     1       3.061   4.757  18.005  0.00  0.00    +0.000 A 
ATOM     38  H   UNL     1       1.412   5.992  20.457  0.00  0.00    +0.000 HD
ENDBRANCH  28  29
ENDBRANCH   1  28
TORSDOF 12
ENDMDL
MODEL 4
REMARK VINA RESULT:      -7.4      4.208      5.793
REMARK  Name = 
REMARK  12 active torsions:
REMARK  status: ('A' for Active; 'I' for Inactive)
REMARK    1  A    between atoms: C_2  and  C_3
REMARK    2  A    between atoms: C_3  and  C_4
REMARK    3  A    between atoms: C_4  and  C_5
REMARK    4  A    between atoms: C_5  and  C_6
REMARK    5  A    between atoms: C_6  and  C_7
REMARK    6  A    between atoms: C_7  and  C_8
REMARK    7  A    between atoms: N_10  and  C_11
REMARK    8  A    between atoms: C_11  and  C_12
REMARK    9  A    between atoms: C_11  and  C_22
REMARK   10  A    between atoms: C_12  and  C_13
REMARK   11  A    between atoms: N_24  and  C_25
REMARK   12  A    between atoms: N_32  and  O_33
REMARK                            x       y       z     vdW  Elec       q    Type
REMARK                         _______ _______ _______ _____ _____    ______ ____
ROOT
ATOM      1  C   UNL     1       7.194   6.302  17.571  0.00  0.00    +0.000 C 
ENDROOT
BRANCH   1   4
ATOM      2  C   UNL     1       5.301   5.437  18.986  0.00  0.00    +0.000 C 
ATOM      3  O   UNL     1       5.943   4.489  19.424  0.00  0.00    +0.000 OA
ATOM      4  N   UNL     1       5.813   6.334  18.092  0.00  0.00    +0.000 N 
ATOM      5  H   UNL     1       5.297   7.183  17.875  0.00  0.00    +0.000 HD
BRANCH   2   6
ATOM      6  C   UNL     1       3.848   5.697  19.381  0.00  0.00    +0.000 C 
BRANCH   6   7
ATOM      7  C   UNL     1       2.958   5.967  18.167  0.00  0.00    +0.000 C 
BRANCH   7   8
ATOM      8  C   UNL     1       1.951   4.831  17.917  0.00  0.00    +0.000 C 
BRANCH   8   9
ATOM      9  C   UNL     1       2.618   3.614  17.262  0.00  0.00    +0.000 C 
BRANCH   9  10
ATOM     10  C   UNL     1       2.317   2.315  18.013  0.00  0.00    +0.000 C 
BRANCH  10  12
ATOM     11  O   UNL     1       2.636   2.360  20.428  0.00  0.00    +0.000 OA
ATOM     12  C   UNL     1       3.105   2.189  19.304  0.00  0.00    +0.000 C 
ATOM     13  N   UNL     1       4.422   1.853  19.110  0.00  0.00    +0.000 N 
ATOM     14  H   UNL     1       4.877   1.752  18.211  0.00  0.00    +0.000 HD
BRANCH  13  15
ATOM     15  O   UNL     1       5.228   1.737  20.262  0.00  0.00    +0.000 OA
ATOM     16  H   UNL     1       4.925   0.884  20.646  0.00  0.00    +0.000 HD
ENDBRANCH  13  15
ENDBRANCH  10  12
ENDBRANCH   9  10
ENDBRANCH   8   9
ENDBRANCH   7   8
ENDBRANCH   6   7
ENDBRANCH   2   6
ENDBRANCH   1   4
BRANCH   1  17
ATOM     17  C   UNL     1       7.953   7.437  18.304  0.00  0.00    +0.000 C 
ATOM     18  O   UNL     1       8.661   7.165  19.282  0.00  0.00    +0.000 OA
ATOM     19  N   UNL     1       7.796   8.701  17.767  0.00  0.00    +0.000 N 
ATOM     20  H   UNL     1       7.074   8.827  17.071  0.00  0.00    +0.000 HD
BRANCH  19  21
ATOM     21  C   UNL     1       8.421   9.884  18.222  0.00  0.00    +0.000 A 
ATOM     22  C   UNL     1       8.330  11.112  17.553  0.00  0.00    +0.000 A 
ATOM     23  C   UNL     1       9.000  12.241  18.034  0.00  0.00    +0.000 A 
ATOM     24  C   UNL     1       9.767  12.150  19.190  0.00  0.00    +0.000 A 
ATOM     25 CL   UNL     1      10.619  13.530  19.764  0.00  0.00    +0.000 Cl
ATOM     26  C   UNL     1       9.849  10.945  19.882  0.00  0.00    +0.000 A 
ATOM     27  C   UNL     1       9.168   9.818  19.405  0.00  0.00    +0.000 A 
ENDBRANCH  19  21
ENDBRANCH   1  17
BRANCH   1  28
ATOM     28  C   UNL     1       7.262   6.407  16.030  0.00  0.00    +0.000 C 
BRANCH  28  29
ATOM     29  C   UNL     1       6.830   5.156  15.322  0.00  0.00    +0.000 A 
ATOM     30  C   UNL     1       6.192   4.090  15.927  0.00  0.00    +0.000 A 
ATOM     31  N   UNL     1       5.771   3.235  14.953  0.00  0.00    +0.000 N 
ATOM     32  C   UNL     1       6.256   3.630  13.732  0.00  0.00    +0.000 A 
ATOM     33  C   UNL     1       6.105   3.031  12.476  0.00  0.00    +0.000 A 
ATOM     34  C   UNL     1       6.787   3.599  11.401  0.00  0.00    +0.000 A 
ATOM     35  C   UNL     1       7.568   4.738  11.575  0.00  0.00    +0.000 A 
ATOM     36  C   UNL     1       7.657   5.364  12.830  0.00  0.00    +0.000 A 
ATOM     37  C   UNL     1       6.986   4.804  13.936  0.00  0.00    +0.000 A 
ATOM     38  H   UNL     1       5.216   2.404  15.104  0.00  0.00    +0.000 HD
ENDBRANCH  28  29
ENDBRANCH   1  28
TORSDOF 12
ENDMDL
MODEL 5
REMARK VINA RESULT:      -7.2      1.509      1.823
REMARK  Name = 
REMARK  12 active torsions:
REMARK  status: ('A' for Active; 'I' for Inactive)
REMARK    1  A    between atoms: C_2  and  C_3
REMARK    2  A    between atoms: C_3  and  C_4
REMARK    3  A    between atoms: C_4  and  C_5
REMARK    4  A    between atoms: C_5  and  C_6
REMARK    5  A    between atoms: C_6  and  C_7
REMARK    6  A    between atoms: C_7  and  C_8
REMARK    7  A    between atoms: N_10  and  C_11
REMARK    8  A    between atoms: C_11  and  C_12
REMARK    9  A    between atoms: C_11  and  C_22
REMARK   10  A    between atoms: C_12  and  C_13
REMARK   11  A    between atoms: N_24  and  C_25
REMARK   12  A    between atoms: N_32  and  O_33
REMARK                            x       y       z     vdW  Elec       q    Type
REMARK                         _______ _______ _______ _____ _____    ______ ____
ROOT
ATOM      1  C   UNL     1       3.089   7.399  18.471  0.00  0.00    +0.000 C 
ENDROOT
BRANCH   1   4
ATOM      2  C   UNL     1       3.017   5.500  20.122  0.00  0.00    +0.000 C 
ATOM      3  O   UNL     1       4.189   5.184  19.944  0.00  0.00    +0.000 OA
ATOM      4  N   UNL     1       2.414   6.527  19.454  0.00  0.00    +0.000 N 
ATOM      5  H   UNL     1       1.493   6.846  19.742  0.00  0.00    +0.000 HD
BRANCH   2   6
ATOM      6  C   UNL     1       2.106   4.758  21.097  0.00  0.00    +0.000 C 
BRANCH   6   7
ATOM      7  C   UNL     1       0.836   4.239  20.422  0.00  0.00    +0.000 C 
BRANCH   7   8
ATOM      8  C   UNL     1       0.884   2.722  20.175  0.00  0.00    +0.000 C 
BRANCH   8   9
ATOM      9  C   UNL     1       0.804   2.385  18.680  0.00  0.00    +0.000 C 
BRANCH   9  10
ATOM     10  C   UNL     1       1.853   3.141  17.861  0.00  0.00    +0.000 C 
BRANCH  10  12
ATOM     11  O   UNL     1       4.245   2.964  17.438  0.00  0.00    +0.000 OA
ATOM     12  C   UNL     1       3.214   2.470  17.889  0.00  0.00    +0.000 C 
ATOM     13  N   UNL     1       3.201   1.232  18.483  0.00  0.00    +0.000 N 
ATOM     14  H   UNL     1       2.377   0.752  18.823  0.00  0.00    +0.000 HD
BRANCH  13  15
ATOM     15  O   UNL     1       4.425   0.534  18.530  0.00  0.00    +0.000 OA
ATOM     16  H   UNL     1       4.160  -0.375  18.263  0.00  0.00    +0.000 HD
ENDBRANCH  13  15
ENDBRANCH  10  12
ENDBRANCH   9  10
ENDBRANCH   8   9
ENDBRANCH   7   8
ENDBRANCH   6   7
ENDBRANCH   2   6
ENDBRANCH   1   4
BRANCH   1  17
ATOM     17  C   UNL     1       2.243   8.696  18.400  0.00  0.00    +0.000 C 
ATOM     18  O   UNL     1       2.269   9.385  17.372  0.00  0.00    +0.000 OA
ATOM     19  N   UNL     1       1.479   8.970  19.519  0.00  0.00    +0.000 N 
ATOM     20  H   UNL     1       1.658   8.428  20.351  0.00  0.00    +0.000 HD
BRANCH  19  21
ATOM     21  C   UNL     1       0.591  10.059  19.675  0.00  0.00    +0.000 A 
ATOM     22  C   UNL     1       0.954  11.271  20.275  0.00  0.00    +0.000 A 
ATOM     23  C   UNL     1       0.022  12.301  20.432  0.00  0.00    +0.000 A 
ATOM     24  C   UNL     1      -1.285  12.124  19.989  0.00  0.00    +0.000 A 
ATOM     25 CL   UNL     1      -2.441  13.378  20.212  0.00  0.00    +0.000 Cl
ATOM     26  C   UNL     1      -1.657  10.936  19.367  0.00  0.00    +0.000 A 
ATOM     27  C   UNL     1      -0.719   9.911  19.200  0.00  0.00    +0.000 A 
ENDBRANCH  19  21
ENDBRANCH   1  17
BRANCH   1  28
ATOM     28  C   UNL     1       3.293   6.718  17.098  0.00  0.00    +0.000 C 
BRANCH  28  29
ATOM     29  C   UNL     1       4.736   6.522  16.733  0.00  0.00    +0.000 A 
ATOM     30  C   UNL     1       5.795   7.180  17.330  0.00  0.00    +0.000 A 
ATOM     31  N   UNL     1       6.953   6.607  16.896  0.00  0.00    +0.000 N 
ATOM     32  C   UNL     1       6.690   5.694  15.906  0.00  0.00    +0.000 A 
ATOM     33  C   UNL     1       7.576   4.908  15.159  0.00  0.00    +0.000 A 
ATOM     34  C   UNL     1       7.041   4.122  14.140  0.00  0.00    +0.000 A 
ATOM     35  C   UNL     1       5.670   4.104  13.897  0.00  0.00    +0.000 A 
ATOM     36  C   UNL     1       4.790   4.850  14.699  0.00  0.00    +0.000 A 
ATOM     37  C   UNL     1       5.304   5.663  15.729  0.00  0.00    +0.000 A 
ATOM     38  H   UNL     1       7.880   6.844  17.221  0.00  0.00    +0.000 HD
ENDBRANCH  28  29
ENDBRANCH   1  28
TORSDOF 12
ENDMDL
MODEL 6
REMARK VINA RESULT:      -7.2      4.092      6.644
REMARK  Name = 
REMARK  12 active torsions:
REMARK  status: ('A' for Active; 'I' for Inactive)
REMARK    1  A    between atoms: C_2  and  C_3
REMARK    2  A    between atoms: C_3  and  C_4
REMARK    3  A    between atoms: C_4  and  C_5
REMARK    4  A    between atoms: C_5  and  C_6
REMARK    5  A    between atoms: C_6  and  C_7
REMARK    6  A    between atoms: C_7  and  C_8
REMARK    7  A    between atoms: N_10  and  C_11
REMARK    8  A    between atoms: C_11  and  C_12
REMARK    9  A    between atoms: C_11  and  C_22
REMARK   10  A    between atoms: C_12  and  C_13
REMARK   11  A    between atoms: N_24  and  C_25
REMARK   12  A    between atoms: N_32  and  O_33
REMARK                            x       y       z     vdW  Elec       q    Type
REMARK                         _______ _______ _______ _____ _____    ______ ____
ROOT
ATOM      1  C   UNL     1       4.109   5.520  17.143  0.00  0.00    +0.000 C 
ENDROOT
BRANCH   1   4
ATOM      2  C   UNL     1       6.537   5.847  17.721  0.00  0.00    +0.000 C 
ATOM      3  O   UNL     1       6.938   5.516  16.610  0.00  0.00    +0.000 OA
ATOM      4  N   UNL     1       5.214   5.862  18.061  0.00  0.00    +0.000 N 
ATOM      5  H   UNL     1       4.921   6.285  18.938  0.00  0.00    +0.000 HD
BRANCH   2   6
ATOM      6  C   UNL     1       7.484   6.257  18.847  0.00  0.00    +0.000 C 
BRANCH   6   7
ATOM      7  C   UNL     1       8.357   7.453  18.463  0.00  0.00    +0.000 C 
BRANCH   7   8
ATOM      8  C   UNL     1       7.560   8.545  17.730  0.00  0.00    +0.000 C 
BRANCH   8   9
ATOM      9  C   UNL     1       8.272   9.904  17.786  0.00  0.00    +0.000 C 
BRANCH   9  10
ATOM     10  C   UNL     1       9.186  10.027  19.007  0.00  0.00    +0.000 C 
BRANCH  10  12
ATOM     11  O   UNL     1      10.672  11.809  19.745  0.00  0.00    +0.000 OA
ATOM     12  C   UNL     1      10.249  11.097  18.837  0.00  0.00    +0.000 C 
ATOM     13  N   UNL     1      10.717  11.203  17.552  0.00  0.00    +0.000 N 
ATOM     14  H   UNL     1      10.371  10.684  16.755  0.00  0.00    +0.000 HD
BRANCH  13  15
ATOM     15  O   UNL     1      11.694  12.191  17.307  0.00  0.00    +0.000 OA
ATOM     16  H   UNL     1      11.637  12.748  18.116  0.00  0.00    +0.000 HD
ENDBRANCH  13  15
ENDBRANCH  10  12
ENDBRANCH   9  10
ENDBRANCH   8   9
ENDBRANCH   7   8
ENDBRANCH   6   7
ENDBRANCH   2   6
ENDBRANCH   1   4
BRANCH   1  17
ATOM     17  C   UNL     1       2.873   6.302  17.654  0.00  0.00    +0.000 C 
ATOM     18  O   UNL     1       1.746   5.801  17.546  0.00  0.00    +0.000 OA
ATOM     19  N   UNL     1       3.142   7.527  18.236  0.00  0.00    +0.000 N 
ATOM     20  H   UNL     1       4.073   7.902  18.126  0.00  0.00    +0.000 HD
BRANCH  19  21
ATOM     21  C   UNL     1       2.195   8.399  18.820  0.00  0.00    +0.000 A 
ATOM     22  C   UNL     1       1.692   8.235  20.117  0.00  0.00    +0.000 A 
ATOM     23  C   UNL     1       0.730   9.113  20.629  0.00  0.00    +0.000 A 
ATOM     24  C   UNL     1       0.263  10.161  19.843  0.00  0.00    +0.000 A 
ATOM     25 CL   UNL     1      -0.945  11.219  20.459  0.00  0.00    +0.000 Cl
ATOM     26  C   UNL     1       0.770  10.354  18.561  0.00  0.00    +0.000 A 
ATOM     27  C   UNL     1       1.742   9.482  18.056  0.00  0.00    +0.000 A 
ENDBRANCH  19  21
ENDBRANCH   1  17
BRANCH   1  28
ATOM     28  C   UNL     1       3.871   3.997  17.024  0.00  0.00    +0.000 C 
BRANCH  28  29
ATOM     29  C   UNL     1       3.899   3.279  18.341  0.00  0.00    +0.000 A 
ATOM     30  C   UNL     1       4.990   2.593  18.841  0.00  0.00    +0.000 A 
ATOM     31  N   UNL     1       4.724   2.250  20.133  0.00  0.00    +0.000 N 
ATOM     32  C   UNL     1       3.425   2.553  20.447  0.00  0.00    +0.000 A 
ATOM     33  C   UNL     1       2.722   2.340  21.640  0.00  0.00    +0.000 A 
ATOM     34  C   UNL     1       1.366   2.664  21.659  0.00  0.00    +0.000 A 
ATOM     35  C   UNL     1       0.747   3.205  20.536  0.00  0.00    +0.000 A 
ATOM     36  C   UNL     1       1.481   3.471  19.369  0.00  0.00    +0.000 A 
ATOM     37  C   UNL     1       2.851   3.143  19.317  0.00  0.00    +0.000 A 
ATOM     38  H   UNL     1       5.374   1.800  20.763  0.00  0.00    +0.000 HD
ENDBRANCH  28  29
ENDBRANCH   1  28
TORSDOF 12
ENDMDL
MODEL 7
REMARK VINA RESULT:      -7.1      3.012      5.012
REMARK  Name = 
REMARK  12 active torsions:
REMARK  status: ('A' for Active; 'I' for Inactive)
REMARK    1  A    between atoms: C_2  and  C_3
REMARK    2  A    between atoms: C_3  and  C_4
REMARK    3  A    between atoms: C_4  and  C_5
REMARK    4  A    between atoms: C_5  and  C_6
REMARK    5  A    between atoms: C_6  and  C_7
REMARK    6  A    between atoms: C_7  and  C_8
REMARK    7  A    between atoms: N_10  and  C_11
REMARK    8  A    between atoms: C_11  and  C_12
REMARK    9  A    between atoms: C_11  and  C_22
REMARK   10  A    between atoms: C_12  and  C_13
REMARK   11  A    between atoms: N_24  and  C_25
REMARK   12  A    between atoms: N_32  and  O_33
REMARK                            x       y       z     vdW  Elec       q    Type
REMARK                         _______ _______ _______ _____ _____    ______ ____
ROOT
ATOM      1  C   UNL     1       2.667   7.132  17.400  0.00  0.00    +0.000 C 
ENDROOT
BRANCH   1   4
ATOM      2  C   UNL     1       5.172   7.001  17.201  0.00  0.00    +0.000 C 
ATOM      3  O   UNL     1       5.175   7.189  15.989  0.00  0.00    +0.000 OA
ATOM      4  N   UNL     1       4.027   6.943  17.944  0.00  0.00    +0.000 N 
ATOM      5  H   UNL     1       4.081   6.936  18.958  0.00  0.00    +0.000 HD
BRANCH   2   6
ATOM      6  C   UNL     1       6.456   6.787  18.002  0.00  0.00    +0.000 C 
BRANCH   6   7
ATOM      7  C   UNL     1       6.457   5.452  18.748  0.00  0.00    +0.000 C 
BRANCH   7   8
ATOM      8  C   UNL     1       7.317   4.390  18.043  0.00  0.00    +0.000 C 
BRANCH   8   9
ATOM      9  C   UNL     1       7.577   4.752  16.574  0.00  0.00    +0.000 C 
BRANCH   9  10
ATOM     10  C   UNL     1       6.626   4.022  15.622  0.00  0.00    +0.000 C 
BRANCH  10  12
ATOM     11  O   UNL     1       6.319   3.829  13.214  0.00  0.00    +0.000 OA
ATOM     12  C   UNL     1       6.864   4.383  14.167  0.00  0.00    +0.000 C 
ATOM     13  N   UNL     1       7.757   5.411  13.997  0.00  0.00    +0.000 N 
ATOM     14  H   UNL     1       8.275   5.868  14.737  0.00  0.00    +0.000 HD
BRANCH  13  15
ATOM     15  O   UNL     1       8.048   5.792  12.670  0.00  0.00    +0.000 OA
ATOM     16  H   UNL     1       8.840   6.363  12.784  0.00  0.00    +0.000 HD
ENDBRANCH  13  15
ENDBRANCH  10  12
ENDBRANCH   9  10
ENDBRANCH   8   9
ENDBRANCH   7   8
ENDBRANCH   6   7
ENDBRANCH   2   6
ENDBRANCH   1   4
BRANCH   1  17
ATOM     17  C   UNL     1       2.085   8.370  18.129  0.00  0.00    +0.000 C 
ATOM     18  O   UNL     1       2.141   9.480  17.585  0.00  0.00    +0.000 OA
ATOM     19  N   UNL     1       1.501   8.118  19.357  0.00  0.00    +0.000 N 
ATOM     20  H   UNL     1       1.654   7.208  19.769  0.00  0.00    +0.000 HD
BRANCH  19  21
ATOM     21  C   UNL     1       0.860   9.067  20.185  0.00  0.00    +0.000 A 
ATOM     22  C   UNL     1       0.117  10.146  19.690  0.00  0.00    +0.000 A 
ATOM     23  C   UNL     1      -0.468  11.072  20.559  0.00  0.00    +0.000 A 
ATOM     24  C   UNL     1      -0.311  10.925  21.933  0.00  0.00    +0.000 A 
ATOM     25 CL   UNL     1      -1.000  12.083  23.002  0.00  0.00    +0.000 Cl
ATOM     26  C   UNL     1       0.402   9.845  22.444  0.00  0.00    +0.000 A 
ATOM     27  C   UNL     1       0.976   8.912  21.572  0.00  0.00    +0.000 A 
ENDBRANCH  19  21
ENDBRANCH   1  17
BRANCH   1  28
ATOM     28  C   UNL     1       1.784   5.868  17.527  0.00  0.00    +0.000 C 
BRANCH  28  29
ATOM     29  C   UNL     1       2.535   4.654  17.990  0.00  0.00    +0.000 A 
ATOM     30  C   UNL     1       3.398   3.915  17.203  0.00  0.00    +0.000 A 
ATOM     31  N   UNL     1       4.049   3.024  18.002  0.00  0.00    +0.000 N 
ATOM     32  C   UNL     1       3.522   3.047  19.268  0.00  0.00    +0.000 A 
ATOM     33  C   UNL     1       3.857   2.278  20.389  0.00  0.00    +0.000 A 
ATOM     34  C   UNL     1       3.089   2.444  21.541  0.00  0.00    +0.000 A 
ATOM     35  C   UNL     1       2.045   3.364  21.575  0.00  0.00    +0.000 A 
ATOM     36  C   UNL     1       1.764   4.173  20.462  0.00  0.00    +0.000 A 
ATOM     37  C   UNL     1       2.516   4.019  19.280  0.00  0.00    +0.000 A 
ATOM     38  H   UNL     1       4.788   2.402  17.704  0.00  0.00    +0.000 HD
ENDBRANCH  28  29
ENDBRANCH   1  28
TORSDOF 12
ENDMDL
MODEL 8
REMARK VINA RESULT:      -7.1      5.975      9.634
REMARK  Name = 
REMARK  12 active torsions:
REMARK  status: ('A' for Active; 'I' for Inactive)
REMARK    1  A    between atoms: C_2  and  C_3
REMARK    2  A    between atoms: C_3  and  C_4
REMARK    3  A    between atoms: C_4  and  C_5
REMARK    4  A    between atoms: C_5  and  C_6
REMARK    5  A    between atoms: C_6  and  C_7
REMARK    6  A    between atoms: C_7  and  C_8
REMARK    7  A    between atoms: N_10  and  C_11
REMARK    8  A    between atoms: C_11  and  C_12
REMARK    9  A    between atoms: C_11  and  C_22
REMARK   10  A    between atoms: C_12  and  C_13
REMARK   11  A    between atoms: N_24  and  C_25
REMARK   12  A    between atoms: N_32  and  O_33
REMARK                            x       y       z     vdW  Elec       q    Type
REMARK                         _______ _______ _______ _____ _____    ______ ____
ROOT
ATOM      1  C   UNL     1       5.070   6.840  17.129  0.00  0.00    +0.000 C 
ENDROOT
BRANCH   1   4
ATOM      2  C   UNL     1       7.315   7.816  17.713  0.00  0.00    +0.000 C 
ATOM      3  O   UNL     1       7.796   6.739  18.048  0.00  0.00    +0.000 OA
ATOM      4  N   UNL     1       6.026   7.955  17.281  0.00  0.00    +0.000 N 
ATOM      5  H   UNL     1       5.721   8.834  16.875  0.00  0.00    +0.000 HD
BRANCH   2   6
ATOM      6  C   UNL     1       8.106   9.121  17.770  0.00  0.00    +0.000 C 
BRANCH   6   7
ATOM      7  C   UNL     1       9.044   9.178  18.977  0.00  0.00    +0.000 C 
BRANCH   7   8
ATOM      8  C   UNL     1       9.266  10.615  19.477  0.00  0.00    +0.000 C 
BRANCH   8   9
ATOM      9  C   UNL     1       9.274  11.624  18.320  0.00  0.00    +0.000 C 
BRANCH   9  10
ATOM     10  C   UNL     1       9.319  13.072  18.816  0.00  0.00    +0.000 C 
BRANCH  10  12
ATOM     11  O   UNL     1      10.400  15.150  18.150  0.00  0.00    +0.000 OA
ATOM     12  C   UNL     1      10.121  13.979  17.900  0.00  0.00    +0.000 C 
ATOM     13  N   UNL     1      10.526  13.367  16.741  0.00  0.00    +0.000 N 
ATOM     14  H   UNL     1      10.283  12.426  16.457  0.00  0.00    +0.000 HD
BRANCH  13  15
ATOM     15  O   UNL     1      11.259  14.151  15.827  0.00  0.00    +0.000 OA
ATOM     16  H   UNL     1      11.862  13.490  15.418  0.00  0.00    +0.000 HD
ENDBRANCH  13  15
ENDBRANCH  10  12
ENDBRANCH   9  10
ENDBRANCH   8   9
ENDBRANCH   7   8
ENDBRANCH   6   7
ENDBRANCH   2   6
ENDBRANCH   1   4
BRANCH   1  17
ATOM     17  C   UNL     1       5.222   6.344  15.669  0.00  0.00    +0.000 C 
ATOM     18  O   UNL     1       4.879   7.081  14.736  0.00  0.00    +0.000 OA
ATOM     19  N   UNL     1       5.776   5.086  15.522  0.00  0.00    +0.000 N 
ATOM     20  H   UNL     1       5.869   4.517  16.351  0.00  0.00    +0.000 HD
BRANCH  19  21
ATOM     21  C   UNL     1       6.062   4.439  14.298  0.00  0.00    +0.000 A 
ATOM     22  C   UNL     1       5.184   3.542  13.676  0.00  0.00    +0.000 A 
ATOM     23  C   UNL     1       5.537   2.906  12.481  0.00  0.00    +0.000 A 
ATOM     24  C   UNL     1       6.774   3.164  11.900  0.00  0.00    +0.000 A 
ATOM     25 CL   UNL     1       7.222   2.357  10.449  0.00  0.00    +0.000 Cl
ATOM     26  C   UNL     1       7.648   4.072  12.490  0.00  0.00    +0.000 A 
ATOM     27  C   UNL     1       7.288   4.717  13.680  0.00  0.00    +0.000 A 
ENDBRANCH  19  21
ENDBRANCH   1  17
BRANCH   1  28
ATOM     28  C   UNL     1       3.621   7.231  17.502  0.00  0.00    +0.000 C 
BRANCH  28  29
ATOM     29  C   UNL     1       2.981   6.300  18.490  0.00  0.00    +0.000 A 
ATOM     30  C   UNL     1       2.597   6.654  19.769  0.00  0.00    +0.000 A 
ATOM     31  N   UNL     1       1.874   5.626  20.298  0.00  0.00    +0.000 N 
ATOM     32  C   UNL     1       1.907   4.542  19.460  0.00  0.00    +0.000 A 
ATOM     33  C   UNL     1       1.339   3.272  19.620  0.00  0.00    +0.000 A 
ATOM     34  C   UNL     1       1.607   2.314  18.643  0.00  0.00    +0.000 A 
ATOM     35  C   UNL     1       2.393   2.626  17.536  0.00  0.00    +0.000 A 
ATOM     36  C   UNL     1       2.902   3.923  17.359  0.00  0.00    +0.000 A 
ATOM     37  C   UNL     1       2.655   4.908  18.337  0.00  0.00    +0.000 A 
ATOM     38  H   UNL     1       1.410   5.639  21.196  0.00  0.00    +0.000 HD
ENDBRANCH  28  29
ENDBRANCH   1  28
TORSDOF 12
ENDMDL
MODEL 9
REMARK VINA RESULT:      -7.0      2.827      4.835
REMARK  Name = 
REMARK  12 active torsions:
REMARK  status: ('A' for Active; 'I' for Inactive)
REMARK    1  A    between atoms: C_2  and  C_3
REMARK    2  A    between atoms: C_3  and  C_4
REMARK    3  A    between atoms: C_4  and  C_5
REMARK    4  A    between atoms: C_5  and  C_6
REMARK    5  A    between atoms: C_6  and  C_7
REMARK    6  A    between atoms: C_7  and  C_8
REMARK    7  A    between atoms: N_10  and  C_11
REMARK    8  A    between atoms: C_11  and  C_12
REMARK    9  A    between atoms: C_11  and  C_22
REMARK   10  A    between atoms: C_12  and  C_13
REMARK   11  A    between atoms: N_24  and  C_25
REMARK   12  A    between atoms: N_32  and  O_33
REMARK                            x       y       z     vdW  Elec       q    Type
REMARK                         _______ _______ _______ _____ _____    ______ ____
ROOT
ATOM      1  C   UNL     1       2.576   7.062  17.549  0.00  0.00    +0.000 C 
ENDROOT
BRANCH   1   4
ATOM      2  C   UNL     1       5.056   6.956  17.129  0.00  0.00    +0.000 C 
ATOM      3  O   UNL     1       4.954   7.211  15.934  0.00  0.00    +0.000 OA
ATOM      4  N   UNL     1       3.978   6.851  17.962  0.00  0.00    +0.000 N 
ATOM      5  H   UNL     1       4.120   6.787  18.967  0.00  0.00    +0.000 HD
BRANCH   2   6
ATOM      6  C   UNL     1       6.403   6.705  17.803  0.00  0.00    +0.000 C 
BRANCH   6   7
ATOM      7  C   UNL     1       6.399   5.431  18.649  0.00  0.00    +0.000 C 
BRANCH   7   8
ATOM      8  C   UNL     1       7.170   4.282  17.978  0.00  0.00    +0.000 C 
BRANCH   8   9
ATOM      9  C   UNL     1       7.542   4.618  16.528  0.00  0.00    +0.000 C 
BRANCH   9  10
ATOM     10  C   UNL     1       6.554   4.021  15.523  0.00  0.00    +0.000 C 
BRANCH  10  12
ATOM     11  O   UNL     1       6.403   3.844  13.099  0.00  0.00    +0.000 OA
ATOM     12  C   UNL     1       6.876   4.398  14.089  0.00  0.00    +0.000 C 
ATOM     13  N   UNL     1       7.760   5.443  13.984  0.00  0.00    +0.000 N 
ATOM     14  H   UNL     1       8.223   5.902  14.758  0.00  0.00    +0.000 HD
BRANCH  13  15
ATOM     15  O   UNL     1       8.127   5.841  12.681  0.00  0.00    +0.000 OA
ATOM     16  H   UNL     1       7.260   6.074  12.280  0.00  0.00    +0.000 HD
ENDBRANCH  13  15
ENDBRANCH  10  12
ENDBRANCH   9  10
ENDBRANCH   8   9
ENDBRANCH   7   8
ENDBRANCH   6   7
ENDBRANCH   2   6
ENDBRANCH   1   4
BRANCH   1  17
ATOM     17  C   UNL     1       1.998   8.117  18.526  0.00  0.00    +0.000 C 
ATOM     18  O   UNL     1       2.073   7.924  19.746  0.00  0.00    +0.000 OA
ATOM     19  N   UNL     1       1.454   9.241  17.933  0.00  0.00    +0.000 N 
ATOM     20  H   UNL     1       1.306   9.217  16.935  0.00  0.00    +0.000 HD
BRANCH  19  21
ATOM     21  C   UNL     1       0.914  10.360  18.608  0.00  0.00    +0.000 A 
ATOM     22  C   UNL     1       1.600  11.571  18.766  0.00  0.00    +0.000 A 
ATOM     23  C   UNL     1       1.026  12.633  19.472  0.00  0.00    +0.000 A 
ATOM     24  C   UNL     1      -0.240  12.489  20.028  0.00  0.00    +0.000 A 
ATOM     25 CL   UNL     1      -0.933  13.782  20.926  0.00  0.00    +0.000 Cl
ATOM     26  C   UNL     1      -0.947  11.302  19.859  0.00  0.00    +0.000 A 
ATOM     27  C   UNL     1      -0.376  10.244  19.140  0.00  0.00    +0.000 A 
ENDBRANCH  19  21
ENDBRANCH   1  17
BRANCH   1  28
ATOM     28  C   UNL     1       1.757   5.751  17.499  0.00  0.00    +0.000 C 
BRANCH  28  29
ATOM     29  C   UNL     1       2.511   4.551  17.993  0.00  0.00    +0.000 A 
ATOM     30  C   UNL     1       3.380   3.798  17.226  0.00  0.00    +0.000 A 
ATOM     31  N   UNL     1       4.031   2.927  18.049  0.00  0.00    +0.000 N 
ATOM     32  C   UNL     1       3.498   2.978  19.311  0.00  0.00    +0.000 A 
ATOM     33  C   UNL     1       3.832   2.237  20.451  0.00  0.00    +0.000 A 
ATOM     34  C   UNL     1       3.059   2.426  21.596  0.00  0.00    +0.000 A 
ATOM     35  C   UNL     1       2.011   3.343  21.605  0.00  0.00    +0.000 A 
ATOM     36  C   UNL     1       1.731   4.124  20.472  0.00  0.00    +0.000 A 
ATOM     37  C   UNL     1       2.489   3.946  19.297  0.00  0.00    +0.000 A 
ATOM     38  H   UNL     1       4.774   2.302  17.768  0.00  0.00    +0.000 HD
ENDBRANCH  28  29
ENDBRANCH   1  28
TORSDOF 12
ENDMDL
