MODEL 1
REMARK VINA RESULT:      -8.0      0.000      0.000
REMARK  Name = 
REMARK  8 active torsions:
REMARK  status: ('A' for Active; 'I' for Inactive)
REMARK    1  A    between atoms: C_1  and  O_2
REMARK    2  A    between atoms: O_2  and  C_3
REMARK    3  A    between atoms: C_6  and  C_7
REMARK    4  A    between atoms: C_7  and  N_8
REMARK    5  A    between atoms: C_9  and  C_11
REMARK    6  A    between atoms: C_14  and  C_15
REMARK    7  A    between atoms: C_24  and  O_25
REMARK    8  A    between atoms: O_25  and  C_26
REMARK                            x       y       z     vdW  Elec       q    Type
REMARK                         _______ _______ _______ _____ _____    ______ ____
ROOT
ATOM      1  N   UNL     1       2.411   6.785  19.440  0.00  0.00    +0.000 N 
ATOM      2  C   UNL     1       3.104   5.593  19.416  0.00  0.00    +0.000 C 
ATOM      3  O   UNL     1       3.137   4.795  20.340  0.00  0.00    +0.000 OA
ATOM      4  H   UNL     1       2.235   7.269  18.567  0.00  0.00    +0.000 HD
ENDROOT
BRANCH   2   5
ATOM      5  C   UNL     1       3.832   5.320  18.146  0.00  0.00    +0.000 A 
ATOM      6  C   UNL     1       4.443   6.357  17.437  0.00  0.00    +0.000 A 
ATOM      7  C   UNL     1       5.108   6.094  16.237  0.00  0.00    +0.000 A 
ATOM      8  C   UNL     1       5.212   4.789  15.721  0.00  0.00    +0.000 A 
ATOM      9  C   UNL     1       4.615   3.755  16.467  0.00  0.00    +0.000 A 
ATOM     10  C   UNL     1       3.932   4.012  17.667  0.00  0.00    +0.000 A 
BRANCH   8  11
ATOM     11  C   UNL     1       5.922   4.537  14.442  0.00  0.00    +0.000 A 
ATOM     12  C   UNL     1       7.120   5.208  14.125  0.00  0.00    +0.000 A 
ATOM     13  C   UNL     1       7.770   5.016  12.902  0.00  0.00    +0.000 A 
ATOM     14  C   UNL     1       7.248   4.127  11.970  0.00  0.00    +0.000 A 
ATOM     15  C   UNL     1       6.078   3.435  12.261  0.00  0.00    +0.000 A 
ATOM     16  C   UNL     1       5.420   3.641  13.480  0.00  0.00    +0.000 A 
ENDBRANCH   8  11
ENDBRANCH   2   5
BRANCH   1  17
ATOM     17  C   UNL     1       1.679   7.232  20.595  0.00  0.00    +0.000 C 
BRANCH  17  21
ATOM     18  C   UNL     1       0.253  11.290  20.171  0.00  0.00    +0.000 A 
ATOM     19  C   UNL     1       0.770  10.586  19.074  0.00  0.00    +0.000 A 
ATOM     20  C   UNL     1       1.237   9.280  19.211  0.00  0.00    +0.000 A 
ATOM     21  C   UNL     1       1.233   8.662  20.459  0.00  0.00    +0.000 A 
ATOM     22  C   UNL     1       0.821   9.404  21.574  0.00  0.00    +0.000 A 
ATOM     23  C   UNL     1       0.327  10.714  21.449  0.00  0.00    +0.000 A 
BRANCH  18  25
ATOM     24  C   UNL     1      -1.626  12.549  19.472  0.00  0.00    +0.000 C 
ATOM     25  O   UNL     1      -0.303  12.533  20.012  0.00  0.00    +0.000 OA
ENDBRANCH  18  25
BRANCH  23  26
ATOM     26  O   UNL     1      -0.045  11.233  22.660  0.00  0.00    +0.000 OA
ATOM     27  C   UNL     1      -1.399  11.144  23.071  0.00  0.00    +0.000 C 
ENDBRANCH  23  26
ENDBRANCH  17  21
ENDBRANCH   1  17
TORSDOF 6
ENDMDL
MODEL 2
REMARK VINA RESULT:      -8.0      4.634      7.477
REMARK  Name = 
REMARK  8 active torsions:
REMARK  status: ('A' for Active; 'I' for Inactive)
REMARK    1  A    between atoms: C_1  and  O_2
REMARK    2  A    between atoms: O_2  and  C_3
REMARK    3  A    between atoms: C_6  and  C_7
REMARK    4  A    between atoms: C_7  and  N_8
REMARK    5  A    between atoms: C_9  and  C_11
REMARK    6  A    between atoms: C_14  and  C_15
REMARK    7  A    between atoms: C_24  and  O_25
REMARK    8  A    between atoms: O_25  and  C_26
REMARK                            x       y       z     vdW  Elec       q    Type
REMARK                         _______ _______ _______ _____ _____    ______ ____
ROOT
ATOM      1  N   UNL     1       5.497   5.437  16.798  0.00  0.00    +0.000 N 
ATOM      2  C   UNL     1       6.661   5.334  17.531  0.00  0.00    +0.000 C 
ATOM      3  O   UNL     1       7.159   4.278  17.890  0.00  0.00    +0.000 OA
ATOM      4  H   UNL     1       5.282   6.315  16.339  0.00  0.00    +0.000 HD
ENDROOT
BRANCH   2   5
ATOM      5  C   UNL     1       7.306   6.634  17.865  0.00  0.00    +0.000 A 
ATOM      6  C   UNL     1       8.219   6.726  18.919  0.00  0.00    +0.000 A 
ATOM      7  C   UNL     1       8.805   7.954  19.236  0.00  0.00    +0.000 A 
ATOM      8  C   UNL     1       8.526   9.119  18.498  0.00  0.00    +0.000 A 
ATOM      9  C   UNL     1       7.627   8.996  17.422  0.00  0.00    +0.000 A 
ATOM     10  C   UNL     1       7.021   7.770  17.104  0.00  0.00    +0.000 A 
BRANCH   8  11
ATOM     11  C   UNL     1       9.161  10.412  18.858  0.00  0.00    +0.000 A 
ATOM     12  C   UNL     1       9.672  10.642  20.151  0.00  0.00    +0.000 A 
ATOM     13  C   UNL     1      10.226  11.872  20.516  0.00  0.00    +0.000 A 
ATOM     14  C   UNL     1      10.303  12.902  19.586  0.00  0.00    +0.000 A 
ATOM     15  C   UNL     1       9.823  12.701  18.296  0.00  0.00    +0.000 A 
ATOM     16  C   UNL     1       9.255  11.472  17.938  0.00  0.00    +0.000 A 
ENDBRANCH   8  11
ENDBRANCH   2   5
BRANCH   1  17
ATOM     17  C   UNL     1       4.719   4.290  16.414  0.00  0.00    +0.000 C 
BRANCH  17  21
ATOM     18  C   UNL     1       1.649   3.413  19.327  0.00  0.00    +0.000 A 
ATOM     19  C   UNL     1       1.992   2.484  18.334  0.00  0.00    +0.000 A 
ATOM     20  C   UNL     1       2.977   2.769  17.390  0.00  0.00    +0.000 A 
ATOM     21  C   UNL     1       3.614   4.007  17.393  0.00  0.00    +0.000 A 
ATOM     22  C   UNL     1       3.193   4.976  18.314  0.00  0.00    +0.000 A 
ATOM     23  C   UNL     1       2.217   4.696  19.287  0.00  0.00    +0.000 A 
BRANCH  18  25
ATOM     24  C   UNL     1       1.340   2.697  21.562  0.00  0.00    +0.000 C 
ATOM     25  O   UNL     1       0.758   3.090  20.317  0.00  0.00    +0.000 OA
ENDBRANCH  18  25
BRANCH  23  26
ATOM     26  O   UNL     1       1.985   5.775  20.097  0.00  0.00    +0.000 OA
ATOM     27  C   UNL     1       2.279   7.079  19.624  0.00  0.00    +0.000 C 
ENDBRANCH  23  26
ENDBRANCH  17  21
ENDBRANCH   1  17
TORSDOF 6
ENDMDL
MODEL 3
REMARK VINA RESULT:      -8.0      4.586      7.404
REMARK  Name = 
REMARK  8 active torsions:
REMARK  status: ('A' for Active; 'I' for Inactive)
REMARK    1  A    between atoms: C_1  and  O_2
REMARK    2  A    between atoms: O_2  and  C_3
REMARK    3  A    between atoms: C_6  and  C_7
REMARK    4  A    between atoms: C_7  and  N_8
REMARK    5  A    between atoms: C_9  and  C_11
REMARK    6  A    between atoms: C_14  and  C_15
REMARK    7  A    between atoms: C_24  and  O_25
REMARK    8  A    between atoms: O_25  and  C_26
REMARK                            x       y       z     vdW  Elec       q    Type
REMARK                         _______ _______ _______ _____ _____    ______ ____
ROOT
ATOM      1  N   UNL     1       5.429   5.365  16.740  0.00  0.00    +0.000 N 
ATOM      2  C   UNL     1       6.498   5.241  17.603  0.00  0.00    +0.000 C 
ATOM      3  O   UNL     1       6.881   4.184  18.080  0.00  0.00    +0.000 OA
ATOM      4  H   UNL     1       5.325   6.221  16.207  0.00  0.00    +0.000 HD
ENDROOT
BRANCH   2   5
ATOM      5  C   UNL     1       7.190   6.519  17.927  0.00  0.00    +0.000 A 
ATOM      6  C   UNL     1       6.896   7.688  17.220  0.00  0.00    +0.000 A 
ATOM      7  C   UNL     1       7.564   8.878  17.519  0.00  0.00    +0.000 A 
ATOM      8  C   UNL     1       8.520   8.950  18.549  0.00  0.00    +0.000 A 
ATOM      9  C   UNL     1       8.778   7.768  19.269  0.00  0.00    +0.000 A 
ATOM     10  C   UNL     1       8.123   6.564  18.965  0.00  0.00    +0.000 A 
BRANCH   8  11
ATOM     11  C   UNL     1       9.217  10.228  18.844  0.00  0.00    +0.000 A 
ATOM     12  C   UNL     1       9.642  11.086  17.811  0.00  0.00    +0.000 A 
ATOM     13  C   UNL     1      10.344  12.265  18.075  0.00  0.00    +0.000 A 
ATOM     14  C   UNL     1      10.620  12.630  19.388  0.00  0.00    +0.000 A 
ATOM     15  C   UNL     1      10.197  11.813  20.431  0.00  0.00    +0.000 A 
ATOM     16  C   UNL     1       9.509  10.624  20.162  0.00  0.00    +0.000 A 
ENDBRANCH   8  11
ENDBRANCH   2   5
BRANCH   1  17
ATOM     17  C   UNL     1       4.621   4.244  16.342  0.00  0.00    +0.000 C 
BRANCH  17  21
ATOM     18  C   UNL     1       1.647   3.322  19.339  0.00  0.00    +0.000 A 
ATOM     19  C   UNL     1       2.063   2.357  18.411  0.00  0.00    +0.000 A 
ATOM     20  C   UNL     1       3.017   2.655  17.440  0.00  0.00    +0.000 A 
ATOM     21  C   UNL     1       3.547   3.939  17.350  0.00  0.00    +0.000 A 
ATOM     22  C   UNL     1       3.050   4.932  18.204  0.00  0.00    +0.000 A 
ATOM     23  C   UNL     1       2.104   4.642  19.203  0.00  0.00    +0.000 A 
BRANCH  18  25
ATOM     24  C   UNL     1       1.410   2.721  21.617  0.00  0.00    +0.000 C 
ATOM     25  O   UNL     1       0.790   2.996  20.359  0.00  0.00    +0.000 OA
ENDBRANCH  18  25
BRANCH  23  26
ATOM     26  O   UNL     1       1.786   5.753  19.937  0.00  0.00    +0.000 OA
ATOM     27  C   UNL     1       2.385   6.997  19.617  0.00  0.00    +0.000 C 
ENDBRANCH  23  26
ENDBRANCH  17  21
ENDBRANCH   1  17
TORSDOF 6
ENDMDL
MODEL 4
REMARK VINA RESULT:      -7.9      2.461      9.315
REMARK  Name = 
REMARK  8 active torsions:
REMARK  status: ('A' for Active; 'I' for Inactive)
REMARK    1  A    between atoms: C_1  and  O_2
REMARK    2  A    between atoms: O_2  and  C_3
REMARK    3  A    between atoms: C_6  and  C_7
REMARK    4  A    between atoms: C_7  and  N_8
REMARK    5  A    between atoms: C_9  and  C_11
REMARK    6  A    between atoms: C_14  and  C_15
REMARK    7  A    between atoms: C_24  and  O_25
REMARK    8  A    between atoms: O_25  and  C_26
REMARK                            x       y       z     vdW  Elec       q    Type
REMARK                         _______ _______ _______ _____ _____    ______ ____
ROOT
ATOM      1  N   UNL     1       3.048   5.397  17.758  0.00  0.00    +0.000 N 
ATOM      2  C   UNL     1       3.190   5.979  19.001  0.00  0.00    +0.000 C 
ATOM      3  O   UNL     1       3.917   5.552  19.884  0.00  0.00    +0.000 OA
ATOM      4  H   UNL     1       2.623   5.932  17.010  0.00  0.00    +0.000 HD
ENDROOT
BRANCH   2   5
ATOM      5  C   UNL     1       2.381   7.211  19.209  0.00  0.00    +0.000 A 
ATOM      6  C   UNL     1       2.154   8.101  18.155  0.00  0.00    +0.000 A 
ATOM      7  C   UNL     1       1.409   9.264  18.365  0.00  0.00    +0.000 A 
ATOM      8  C   UNL     1       0.842   9.563  19.616  0.00  0.00    +0.000 A 
ATOM      9  C   UNL     1       1.057   8.637  20.656  0.00  0.00    +0.000 A 
ATOM     10  C   UNL     1       1.817   7.473  20.459  0.00  0.00    +0.000 A 
BRANCH   8  11
ATOM     11  C   UNL     1       0.056  10.808  19.813  0.00  0.00    +0.000 A 
ATOM     12  C   UNL     1      -0.316  11.243  21.100  0.00  0.00    +0.000 A 
ATOM     13  C   UNL     1      -1.099  12.385  21.294  0.00  0.00    +0.000 A 
ATOM     14  C   UNL     1      -1.513  13.137  20.201  0.00  0.00    +0.000 A 
ATOM     15  C   UNL     1      -1.146  12.743  18.918  0.00  0.00    +0.000 A 
ATOM     16  C   UNL     1      -0.376  11.590  18.726  0.00  0.00    +0.000 A 
ENDBRANCH   8  11
ENDBRANCH   2   5
BRANCH   1  17
ATOM     17  C   UNL     1       3.725   4.182  17.390  0.00  0.00    +0.000 C 
BRANCH  17  21
ATOM     18  C   UNL     1       7.115   5.040  14.850  0.00  0.00    +0.000 A 
ATOM     19  C   UNL     1       6.282   3.940  14.599  0.00  0.00    +0.000 A 
ATOM     20  C   UNL     1       5.193   3.658  15.422  0.00  0.00    +0.000 A 
ATOM     21  C   UNL     1       4.936   4.449  16.539  0.00  0.00    +0.000 A 
ATOM     22  C   UNL     1       5.832   5.479  16.853  0.00  0.00    +0.000 A 
ATOM     23  C   UNL     1       6.922   5.789  16.021  0.00  0.00    +0.000 A 
BRANCH  18  25
ATOM     24  C   UNL     1       7.794   5.262  12.593  0.00  0.00    +0.000 C 
ATOM     25  O   UNL     1       8.120   5.376  13.980  0.00  0.00    +0.000 OA
ENDBRANCH  18  25
BRANCH  23  26
ATOM     26  O   UNL     1       7.643   6.848  16.505  0.00  0.00    +0.000 OA
ATOM     27  C   UNL     1       7.662   7.101  17.899  0.00  0.00    +0.000 C 
ENDBRANCH  23  26
ENDBRANCH  17  21
ENDBRANCH   1  17
TORSDOF 6
ENDMDL
MODEL 5
REMARK VINA RESULT:      -7.8      0.613      1.466
REMARK  Name = 
REMARK  8 active torsions:
REMARK  status: ('A' for Active; 'I' for Inactive)
REMARK    1  A    between atoms: C_1  and  O_2
REMARK    2  A    between atoms: O_2  and  C_3
REMARK    3  A    between atoms: C_6  and  C_7
REMARK    4  A    between atoms: C_7  and  N_8
REMARK    5  A    between atoms: C_9  and  C_11
REMARK    6  A    between atoms: C_14  and  C_15
REMARK    7  A    between atoms: C_24  and  O_25
REMARK    8  A    between atoms: O_25  and  C_26
REMARK                            x       y       z     vdW  Elec       q    Type
REMARK                         _______ _______ _______ _____ _____    ______ ____
ROOT
ATOM      1  N   UNL     1       2.561   7.140  19.308  0.00  0.00    +0.000 N 
ATOM      2  C   UNL     1       3.148   5.893  19.266  0.00  0.00    +0.000 C 
ATOM      3  O   UNL     1       3.106   5.081  20.177  0.00  0.00    +0.000 OA
ATOM      4  H   UNL     1       2.432   7.652  18.442  0.00  0.00    +0.000 HD
ENDROOT
BRANCH   2   5
ATOM      5  C   UNL     1       3.854   5.577  17.994  0.00  0.00    +0.000 A 
ATOM      6  C   UNL     1       3.991   4.255  17.564  0.00  0.00    +0.000 A 
ATOM      7  C   UNL     1       4.671   3.967  16.379  0.00  0.00    +0.000 A 
ATOM      8  C   UNL     1       5.209   4.985  15.570  0.00  0.00    +0.000 A 
ATOM      9  C   UNL     1       5.033   6.312  16.007  0.00  0.00    +0.000 A 
ATOM     10  C   UNL     1       4.364   6.610  17.205  0.00  0.00    +0.000 A 
BRANCH   8  11
ATOM     11  C   UNL     1       5.931   4.652  14.315  0.00  0.00    +0.000 A 
ATOM     12  C   UNL     1       5.388   3.753  13.376  0.00  0.00    +0.000 A 
ATOM     13  C   UNL     1       6.081   3.393  12.216  0.00  0.00    +0.000 A 
ATOM     14  C   UNL     1       7.330   3.943  11.954  0.00  0.00    +0.000 A 
ATOM     15  C   UNL     1       7.884   4.849  12.853  0.00  0.00    +0.000 A 
ATOM     16  C   UNL     1       7.195   5.195  14.021  0.00  0.00    +0.000 A 
ENDBRANCH   8  11
ENDBRANCH   2   5
BRANCH   1  17
ATOM     17  C   UNL     1       1.865   7.631  20.467  0.00  0.00    +0.000 C 
BRANCH  17  21
ATOM     18  C   UNL     1      -0.428  11.186  19.580  0.00  0.00    +0.000 A 
ATOM     19  C   UNL     1       0.386  10.588  18.607  0.00  0.00    +0.000 A 
ATOM     20  C   UNL     1       1.131   9.446  18.894  0.00  0.00    +0.000 A 
ATOM     21  C   UNL     1       1.110   8.899  20.174  0.00  0.00    +0.000 A 
ATOM     22  C   UNL     1       0.386   9.561  21.175  0.00  0.00    +0.000 A 
ATOM     23  C   UNL     1      -0.388  10.701  20.896  0.00  0.00    +0.000 A 
BRANCH  18  25
ATOM     24  C   UNL     1      -0.571  13.485  19.029  0.00  0.00    +0.000 C 
ATOM     25  O   UNL     1      -1.241  12.244  19.265  0.00  0.00    +0.000 OA
ENDBRANCH  18  25
BRANCH  23  26
ATOM     26  O   UNL     1      -1.033  11.161  22.013  0.00  0.00    +0.000 OA
ATOM     27  C   UNL     1      -0.964  10.415  23.216  0.00  0.00    +0.000 C 
ENDBRANCH  23  26
ENDBRANCH  17  21
ENDBRANCH   1  17
TORSDOF 6
ENDMDL
MODEL 6
REMARK VINA RESULT:      -7.7      2.840      5.442
REMARK  Name = 
REMARK  8 active torsions:
REMARK  status: ('A' for Active; 'I' for Inactive)
REMARK    1  A    between atoms: C_1  and  O_2
REMARK    2  A    between atoms: O_2  and  C_3
REMARK    3  A    between atoms: C_6  and  C_7
REMARK    4  A    between atoms: C_7  and  N_8
REMARK    5  A    between atoms: C_9  and  C_11
REMARK    6  A    between atoms: C_14  and  C_15
REMARK    7  A    between atoms: C_24  and  O_25
REMARK    8  A    between atoms: O_25  and  C_26
REMARK                            x       y       z     vdW  Elec       q    Type
REMARK                         _______ _______ _______ _____ _____    ______ ____
ROOT
ATOM      1  N   UNL     1      -0.201  11.192  19.455  0.00  0.00    +0.000 N 
ATOM      2  C   UNL     1       0.271  10.183  20.269  0.00  0.00    +0.000 C 
ATOM      3  O   UNL     1       0.010  10.077  21.457  0.00  0.00    +0.000 OA
ATOM      4  H   UNL     1      -0.142  11.080  18.449  0.00  0.00    +0.000 HD
ENDROOT
BRANCH   2   5
ATOM      5  C   UNL     1       1.143   9.187  19.588  0.00  0.00    +0.000 A 
ATOM      6  C   UNL     1       1.552   8.027  20.250  0.00  0.00    +0.000 A 
ATOM      7  C   UNL     1       2.385   7.107  19.609  0.00  0.00    +0.000 A 
ATOM      8  C   UNL     1       2.811   7.297  18.282  0.00  0.00    +0.000 A 
ATOM      9  C   UNL     1       2.362   8.457  17.623  0.00  0.00    +0.000 A 
ATOM     10  C   UNL     1       1.537   9.395  18.264  0.00  0.00    +0.000 A 
BRANCH   8  11
ATOM     11  C   UNL     1       3.699   6.304  17.624  0.00  0.00    +0.000 A 
ATOM     12  C   UNL     1       4.805   6.711  16.851  0.00  0.00    +0.000 A 
ATOM     13  C   UNL     1       5.618   5.789  16.186  0.00  0.00    +0.000 A 
ATOM     14  C   UNL     1       5.357   4.428  16.295  0.00  0.00    +0.000 A 
ATOM     15  C   UNL     1       4.283   3.994  17.066  0.00  0.00    +0.000 A 
ATOM     16  C   UNL     1       3.462   4.921  17.718  0.00  0.00    +0.000 A 
ENDBRANCH   8  11
ENDBRANCH   2   5
BRANCH   1  17
ATOM     17  C   UNL     1      -1.028  12.261  19.946  0.00  0.00    +0.000 C 
BRANCH  17  21
ATOM     18  C   UNL     1      -5.094  12.052  18.495  0.00  0.00    +0.000 A 
ATOM     19  C   UNL     1      -4.798  12.625  19.740  0.00  0.00    +0.000 A 
ATOM     20  C   UNL     1      -3.489  12.686  20.212  0.00  0.00    +0.000 A 
ATOM     21  C   UNL     1      -2.448  12.139  19.466  0.00  0.00    +0.000 A 
ATOM     22  C   UNL     1      -2.758  11.467  18.275  0.00  0.00    +0.000 A 
ATOM     23  C   UNL     1      -4.071  11.416  17.775  0.00  0.00    +0.000 A 
BRANCH  18  25
ATOM     24  C   UNL     1      -6.660  13.207  17.145  0.00  0.00    +0.000 C 
ATOM     25  O   UNL     1      -6.367  12.089  17.987  0.00  0.00    +0.000 OA
ENDBRANCH  18  25
BRANCH  23  26
ATOM     26  O   UNL     1      -4.135  10.738  16.588  0.00  0.00    +0.000 OA
ATOM     27  C   UNL     1      -3.117  10.928  15.620  0.00  0.00    +0.000 C 
ENDBRANCH  23  26
ENDBRANCH  17  21
ENDBRANCH   1  17
TORSDOF 6
ENDMDL
MODEL 7
REMARK VINA RESULT:      -7.7      2.516      9.375
REMARK  Name = 
REMARK  8 active torsions:
REMARK  status: ('A' for Active; 'I' for Inactive)
REMARK    1  A    between atoms: C_1  and  O_2
REMARK    2  A    between atoms: O_2  and  C_3
REMARK    3  A    between atoms: C_6  and  C_7
REMARK    4  A    between atoms: C_7  and  N_8
REMARK    5  A    between atoms: C_9  and  C_11
REMARK    6  A    between atoms: C_14  and  C_15
REMARK    7  A    between atoms: C_24  and  O_25
REMARK    8  A    between atoms: O_25  and  C_26
REMARK                            x       y       z     vdW  Elec       q    Type
REMARK                         _______ _______ _______ _____ _____    ______ ____
ROOT
ATOM      1  N   UNL     1       3.917   5.757  19.709  0.00  0.00    +0.000 N 
ATOM      2  C   UNL     1       2.802   6.107  18.976  0.00  0.00    +0.000 C 
ATOM      3  O   UNL     1       2.383   5.480  18.016  0.00  0.00    +0.000 OA
ATOM      4  H   UNL     1       4.059   6.180  20.620  0.00  0.00    +0.000 HD
ENDROOT
BRANCH   2   5
ATOM      5  C   UNL     1       2.107   7.337  19.446  0.00  0.00    +0.000 A 
ATOM      6  C   UNL     1       1.872   8.401  18.571  0.00  0.00    +0.000 A 
ATOM      7  C   UNL     1       1.235   9.558  19.026  0.00  0.00    +0.000 A 
ATOM      8  C   UNL     1       0.785   9.682  20.353  0.00  0.00    +0.000 A 
ATOM      9  C   UNL     1       1.005   8.586  21.209  0.00  0.00    +0.000 A 
ATOM     10  C   UNL     1       1.658   7.424  20.765  0.00  0.00    +0.000 A 
BRANCH   8  11
ATOM     11  C   UNL     1       0.113  10.924  20.811  0.00  0.00    +0.000 A 
ATOM     12  C   UNL     1      -0.079  12.016  19.942  0.00  0.00    +0.000 A 
ATOM     13  C   UNL     1      -0.664  13.208  20.375  0.00  0.00    +0.000 A 
ATOM     14  C   UNL     1      -1.095  13.333  21.691  0.00  0.00    +0.000 A 
ATOM     15  C   UNL     1      -0.936  12.266  22.569  0.00  0.00    +0.000 A 
ATOM     16  C   UNL     1      -0.335  11.078  22.136  0.00  0.00    +0.000 A 
ENDBRANCH   8  11
ENDBRANCH   2   5
BRANCH   1  17
ATOM     17  C   UNL     1       4.733   4.619  19.382  0.00  0.00    +0.000 C 
BRANCH  17  21
ATOM     18  C   UNL     1       6.566   5.168  15.506  0.00  0.00    +0.000 A 
ATOM     19  C   UNL     1       5.736   4.068  15.765  0.00  0.00    +0.000 A 
ATOM     20  C   UNL     1       5.150   3.887  17.017  0.00  0.00    +0.000 A 
ATOM     21  C   UNL     1       5.414   4.781  18.051  0.00  0.00    +0.000 A 
ATOM     22  C   UNL     1       6.332   5.816  17.825  0.00  0.00    +0.000 A 
ATOM     23  C   UNL     1       6.914   6.025  16.562  0.00  0.00    +0.000 A 
BRANCH  18  25
ATOM     24  C   UNL     1       6.838   4.353  13.300  0.00  0.00    +0.000 C 
ATOM     25  O   UNL     1       7.054   5.402  14.246  0.00  0.00    +0.000 OA
ENDBRANCH  18  25
BRANCH  23  26
ATOM     26  O   UNL     1       7.752   7.108  16.564  0.00  0.00    +0.000 OA
ATOM     27  C   UNL     1       7.779   7.968  17.690  0.00  0.00    +0.000 C 
ENDBRANCH  23  26
ENDBRANCH  17  21
ENDBRANCH   1  17
TORSDOF 6
ENDMDL
MODEL 8
REMARK VINA RESULT:      -7.7      5.842      7.946
REMARK  Name = 
REMARK  8 active torsions:
REMARK  status: ('A' for Active; 'I' for Inactive)
REMARK    1  A    between atoms: C_1  and  O_2
REMARK    2  A    between atoms: O_2  and  C_3
REMARK    3  A    between atoms: C_6  and  C_7
REMARK    4  A    between atoms: C_7  and  N_8
REMARK    5  A    between atoms: C_9  and  C_11
REMARK    6  A    between atoms: C_14  and  C_15
REMARK    7  A    between atoms: C_24  and  O_25
REMARK    8  A    between atoms: O_25  and  C_26
REMARK                            x       y       z     vdW  Elec       q    Type
REMARK                         _______ _______ _______ _____ _____    ______ ____
ROOT
ATOM      1  N   UNL     1       7.578   8.502  17.795  0.00  0.00    +0.000 N 
ATOM      2  C   UNL     1       7.350   7.276  17.204  0.00  0.00    +0.000 C 
ATOM      3  O   UNL     1       8.034   6.804  16.310  0.00  0.00    +0.000 OA
ATOM      4  H   UNL     1       7.126   8.715  18.677  0.00  0.00    +0.000 HD
ENDROOT
BRANCH   2   5
ATOM      5  C   UNL     1       6.183   6.529  17.747  0.00  0.00    +0.000 A 
ATOM      6  C   UNL     1       6.351   5.585  18.763  0.00  0.00    +0.000 A 
ATOM      7  C   UNL     1       5.252   4.876  19.254  0.00  0.00    +0.000 A 
ATOM      8  C   UNL     1       3.950   5.105  18.773  0.00  0.00    +0.000 A 
ATOM      9  C   UNL     1       3.799   6.083  17.771  0.00  0.00    +0.000 A 
ATOM     10  C   UNL     1       4.900   6.790  17.261  0.00  0.00    +0.000 A 
BRANCH   8  11
ATOM     11  C   UNL     1       2.798   4.336  19.310  0.00  0.00    +0.000 A 
ATOM     12  C   UNL     1       2.524   4.298  20.691  0.00  0.00    +0.000 A 
ATOM     13  C   UNL     1       1.475   3.536  21.213  0.00  0.00    +0.000 A 
ATOM     14  C   UNL     1       0.654   2.808  20.359  0.00  0.00    +0.000 A 
ATOM     15  C   UNL     1       0.888   2.840  18.989  0.00  0.00    +0.000 A 
ATOM     16  C   UNL     1       1.950   3.591  18.471  0.00  0.00    +0.000 A 
ENDBRANCH   8  11
ENDBRANCH   2   5
BRANCH   1  17
ATOM     17  C   UNL     1       8.640   9.378  17.377  0.00  0.00    +0.000 C 
BRANCH  17  21
ATOM     18  C   UNL     1       9.602  12.434  20.278  0.00  0.00    +0.000 A 
ATOM     19  C   UNL     1       9.517  11.085  20.649  0.00  0.00    +0.000 A 
ATOM     20  C   UNL     1       9.200  10.100  19.716  0.00  0.00    +0.000 A 
ATOM     21  C   UNL     1       8.921  10.447  18.397  0.00  0.00    +0.000 A 
ATOM     22  C   UNL     1       8.895  11.805  18.052  0.00  0.00    +0.000 A 
ATOM     23  C   UNL     1       9.235  12.809  18.976  0.00  0.00    +0.000 A 
BRANCH  18  25
ATOM     24  C   UNL     1       8.998  13.927  22.014  0.00  0.00    +0.000 C 
ATOM     25  O   UNL     1      10.019  13.387  21.172  0.00  0.00    +0.000 OA
ENDBRANCH  18  25
BRANCH  23  26
ATOM     26  O   UNL     1       9.172  14.056  18.415  0.00  0.00    +0.000 OA
ATOM     27  C   UNL     1      10.337  14.621  17.837  0.00  0.00    +0.000 C 
ENDBRANCH  23  26
ENDBRANCH  17  21
ENDBRANCH   1  17
TORSDOF 6
ENDMDL
MODEL 9
REMARK VINA RESULT:      -7.7      4.668      7.417
REMARK  Name = 
REMARK  8 active torsions:
REMARK  status: ('A' for Active; 'I' for Inactive)
REMARK    1  A    between atoms: C_1  and  O_2
REMARK    2  A    between atoms: O_2  and  C_3
REMARK    3  A    between atoms: C_6  and  C_7
REMARK    4  A    between atoms: C_7  and  N_8
REMARK    5  A    between atoms: C_9  and  C_11
REMARK    6  A    between atoms: C_14  and  C_15
REMARK    7  A    between atoms: C_24  and  O_25
REMARK    8  A    between atoms: O_25  and  C_26
REMARK                            x       y       z     vdW  Elec       q    Type
REMARK                         _______ _______ _______ _____ _____    ______ ____
ROOT
ATOM      1  N   UNL     1       5.401   5.607  16.822  0.00  0.00    +0.000 N 
ATOM      2  C   UNL     1       6.557   5.442  17.558  0.00  0.00    +0.000 C 
ATOM      3  O   UNL     1       6.998   4.361  17.915  0.00  0.00    +0.000 OA
ATOM      4  H   UNL     1       5.233   6.497  16.365  0.00  0.00    +0.000 HD
ENDROOT
BRANCH   2   5
ATOM      5  C   UNL     1       7.267   6.705  17.897  0.00  0.00    +0.000 A 
ATOM      6  C   UNL     1       8.212   6.738  18.926  0.00  0.00    +0.000 A 
ATOM      7  C   UNL     1       8.860   7.932  19.248  0.00  0.00    +0.000 A 
ATOM      8  C   UNL     1       8.613   9.122  18.540  0.00  0.00    +0.000 A 
ATOM      9  C   UNL     1       7.681   9.060  17.487  0.00  0.00    +0.000 A 
ATOM     10  C   UNL     1       7.013   7.867  17.165  0.00  0.00    +0.000 A 
BRANCH   8  11
ATOM     11  C   UNL     1       9.314  10.379  18.905  0.00  0.00    +0.000 A 
ATOM     12  C   UNL     1       9.851  11.231  17.920  0.00  0.00    +0.000 A 
ATOM     13  C   UNL     1      10.556  12.390  18.253  0.00  0.00    +0.000 A 
ATOM     14  C   UNL     1      10.726  12.741  19.587  0.00  0.00    +0.000 A 
ATOM     15  C   UNL     1      10.192  11.931  20.583  0.00  0.00    +0.000 A 
ATOM     16  C   UNL     1       9.499  10.761  20.246  0.00  0.00    +0.000 A 
ENDBRANCH   8  11
ENDBRANCH   2   5
BRANCH   1  17
ATOM     17  C   UNL     1       4.566   4.503  16.433  0.00  0.00    +0.000 C 
BRANCH  17  21
ATOM     18  C   UNL     1       1.613   3.577  19.450  0.00  0.00    +0.000 A 
ATOM     19  C   UNL     1       1.718   2.811  18.280  0.00  0.00    +0.000 A 
ATOM     20  C   UNL     1       2.665   3.113  17.303  0.00  0.00    +0.000 A 
ATOM     21  C   UNL     1       3.503   4.215  17.457  0.00  0.00    +0.000 A 
ATOM     22  C   UNL     1       3.323   5.045  18.571  0.00  0.00    +0.000 A 
ATOM     23  C   UNL     1       2.387   4.741  19.576  0.00  0.00    +0.000 A 
BRANCH  18  25
ATOM     24  C   UNL     1       1.366   2.600  21.592  0.00  0.00    +0.000 C 
ATOM     25  O   UNL     1       0.755   3.213  20.456  0.00  0.00    +0.000 OA
ENDBRANCH  18  25
BRANCH  23  26
ATOM     26  O   UNL     1       2.404   5.670  20.582  0.00  0.00    +0.000 OA
ATOM     27  C   UNL     1       1.439   6.708  20.589  0.00  0.00    +0.000 C 
ENDBRANCH  23  26
ENDBRANCH  17  21
ENDBRANCH   1  17
TORSDOF 6
ENDMDL
