MODEL 1
REMARK VINA RESULT:      -6.4      0.000      0.000
REMARK  Name = 
REMARK  6 active torsions:
REMARK  status: ('A' for Active; 'I' for Inactive)
REMARK    1  A    between atoms: C_1  and  O_2
REMARK    2  A    between atoms: O_2  and  C_3
REMARK    3  A    between atoms: C_7  and  N_8
REMARK    4  A    between atoms: C_9  and  C_11
REMARK    5  A    between atoms: C_11  and  C_12
REMARK    6  A    between atoms: C_12  and  N_13
REMARK                            x       y       z     vdW  Elec       q    Type
REMARK                         _______ _______ _______ _____ _____    ______ ____
ROOT
ATOM      1  N   UNL     1       5.973   4.869  16.042  0.00  0.00    +0.000 N 
ATOM      2  C   UNL     1       5.305   5.992  16.460  0.00  0.00    +0.000 C 
ATOM      3  O   UNL     1       5.125   6.916  15.679  0.00  0.00    +0.000 OA
ATOM      4  H   UNL     1       6.275   4.185  16.754  0.00  0.00    +0.000 HD
ENDROOT
BRANCH   1   9
ATOM      5  C   UNL     1       5.880   3.535  12.501  0.00  0.00    +0.000 A 
ATOM      6  C   UNL     1       7.021   4.139  11.967  0.00  0.00    +0.000 A 
ATOM      7  C   UNL     1       7.804   4.978  12.746  0.00  0.00    +0.000 A 
ATOM      8  C   UNL     1       7.471   5.215  14.077  0.00  0.00    +0.000 A 
ATOM      9  C   UNL     1       6.331   4.618  14.665  0.00  0.00    +0.000 A 
ATOM     10  C   UNL     1       5.524   3.788  13.849  0.00  0.00    +0.000 A 
BRANCH   5  12
ATOM     11  C   UNL     1       3.994   3.030  11.032  0.00  0.00    +0.000 C 
ATOM     12  O   UNL     1       5.168   2.727  11.679  0.00  0.00    +0.000 OA
ENDBRANCH   5  12
ENDBRANCH   1   9
BRANCH   2  13
ATOM     13  C   UNL     1       4.805   6.185  17.888  0.00  0.00    +0.000 C 
BRANCH  13  14
ATOM     14  C   UNL     1       3.586   5.249  18.095  0.00  0.00    +0.000 C 
BRANCH  14  15
ATOM     15  N   UNL     1       3.825   3.799  17.881  0.00  0.00    +0.000 NA
ATOM     16  C   UNL     1       2.669   3.031  17.377  0.00  0.00    +0.000 C 
ATOM     17  C   UNL     1       1.586   2.859  18.461  0.00  0.00    +0.000 C 
ATOM     18  O   UNL     1       2.117   2.233  19.617  0.00  0.00    +0.000 OA
ATOM     19  C   UNL     1       3.152   3.029  20.155  0.00  0.00    +0.000 C 
ATOM     20  C   UNL     1       4.301   3.170  19.138  0.00  0.00    +0.000 C 
ENDBRANCH  14  15
ENDBRANCH  13  14
ENDBRANCH   2  13
TORSDOF 5
ENDMDL
MODEL 2
REMARK VINA RESULT:      -6.4      3.783      7.335
REMARK  Name = 
REMARK  6 active torsions:
REMARK  status: ('A' for Active; 'I' for Inactive)
REMARK    1  A    between atoms: C_1  and  O_2
REMARK    2  A    between atoms: O_2  and  C_3
REMARK    3  A    between atoms: C_7  and  N_8
REMARK    4  A    between atoms: C_9  and  C_11
REMARK    5  A    between atoms: C_11  and  C_12
REMARK    6  A    between atoms: C_12  and  N_13
REMARK                            x       y       z     vdW  Elec       q    Type
REMARK                         _______ _______ _______ _____ _____    ______ ____
ROOT
ATOM      1  N   UNL     1       3.096   6.092  19.914  0.00  0.00    +0.000 N 
ATOM      2  C   UNL     1       2.778   4.850  19.425  0.00  0.00    +0.000 C 
ATOM      3  O   UNL     1       1.768   4.704  18.749  0.00  0.00    +0.000 OA
ATOM      4  H   UNL     1       3.839   6.162  20.626  0.00  0.00    +0.000 HD
ENDROOT
BRANCH   1   9
ATOM      5  C   UNL     1       0.929   9.190  20.087  0.00  0.00    +0.000 A 
ATOM      6  C   UNL     1       1.070   9.678  18.784  0.00  0.00    +0.000 A 
ATOM      7  C   UNL     1       1.869   9.012  17.866  0.00  0.00    +0.000 A 
ATOM      8  C   UNL     1       2.527   7.839  18.227  0.00  0.00    +0.000 A 
ATOM      9  C   UNL     1       2.407   7.302  19.530  0.00  0.00    +0.000 A 
ATOM     10  C   UNL     1       1.613   8.009  20.465  0.00  0.00    +0.000 A 
BRANCH   5  12
ATOM     11  C   UNL     1      -0.696  10.941  20.599  0.00  0.00    +0.000 C 
ATOM     12  O   UNL     1       0.131   9.894  20.925  0.00  0.00    +0.000 OA
ENDBRANCH   5  12
ENDBRANCH   1   9
BRANCH   2  13
ATOM     13  C   UNL     1       3.597   3.598  19.723  0.00  0.00    +0.000 C 
BRANCH  13  14
ATOM     14  C   UNL     1       4.911   3.685  18.904  0.00  0.00    +0.000 C 
BRANCH  14  15
ATOM     15  N   UNL     1       5.153   4.959  18.181  0.00  0.00    +0.000 NA
ATOM     16  C   UNL     1       5.038   4.889  16.709  0.00  0.00    +0.000 C 
ATOM     17  C   UNL     1       6.220   4.120  16.085  0.00  0.00    +0.000 C 
ATOM     18  O   UNL     1       7.459   4.707  16.447  0.00  0.00    +0.000 OA
ATOM     19  C   UNL     1       7.608   4.673  17.851  0.00  0.00    +0.000 C 
ATOM     20  C   UNL     1       6.493   5.494  18.527  0.00  0.00    +0.000 C 
ENDBRANCH  14  15
ENDBRANCH  13  14
ENDBRANCH   2  13
TORSDOF 5
ENDMDL
MODEL 3
REMARK VINA RESULT:      -6.4      1.418      1.599
REMARK  Name = 
REMARK  6 active torsions:
REMARK  status: ('A' for Active; 'I' for Inactive)
REMARK    1  A    between atoms: C_1  and  O_2
REMARK    2  A    between atoms: O_2  and  C_3
REMARK    3  A    between atoms: C_7  and  N_8
REMARK    4  A    between atoms: C_9  and  C_11
REMARK    5  A    between atoms: C_11  and  C_12
REMARK    6  A    between atoms: C_12  and  N_13
REMARK                            x       y       z     vdW  Elec       q    Type
REMARK                         _______ _______ _______ _____ _____    ______ ____
ROOT
ATOM      1  N   UNL     1       6.164   5.172  15.979  0.00  0.00    +0.000 N 
ATOM      2  C   UNL     1       6.988   4.897  17.041  0.00  0.00    +0.000 C 
ATOM      3  O   UNL     1       7.976   4.194  16.876  0.00  0.00    +0.000 OA
ATOM      4  H   UNL     1       5.248   5.607  16.171  0.00  0.00    +0.000 HD
ENDROOT
BRANCH   1   9
ATOM      5  C   UNL     1       5.987   3.588  12.547  0.00  0.00    +0.000 A 
ATOM      6  C   UNL     1       7.095   4.179  11.931  0.00  0.00    +0.000 A 
ATOM      7  C   UNL     1       7.882   5.089  12.623  0.00  0.00    +0.000 A 
ATOM      8  C   UNL     1       7.586   5.412  13.944  0.00  0.00    +0.000 A 
ATOM      9  C   UNL     1       6.482   4.832  14.612  0.00  0.00    +0.000 A 
ATOM     10  C   UNL     1       5.670   3.928  13.885  0.00  0.00    +0.000 A 
BRANCH   5  12
ATOM     11  C   UNL     1       4.080   2.943  11.164  0.00  0.00    +0.000 C 
ATOM     12  O   UNL     1       5.269   2.708  11.809  0.00  0.00    +0.000 OA
ENDBRANCH   5  12
ENDBRANCH   1   9
BRANCH   2  13
ATOM     13  C   UNL     1       6.715   5.383  18.461  0.00  0.00    +0.000 C 
BRANCH  13  14
ATOM     14  C   UNL     1       5.520   4.568  19.020  0.00  0.00    +0.000 C 
BRANCH  14  15
ATOM     15  N   UNL     1       4.353   4.405  18.115  0.00  0.00    +0.000 NA
ATOM     16  C   UNL     1       3.209   5.300  18.383  0.00  0.00    +0.000 C 
ATOM     17  C   UNL     1       2.469   4.901  19.676  0.00  0.00    +0.000 C 
ATOM     18  O   UNL     1       2.028   3.555  19.617  0.00  0.00    +0.000 OA
ATOM     19  C   UNL     1       3.140   2.697  19.468  0.00  0.00    +0.000 C 
ATOM     20  C   UNL     1       3.875   3.001  18.147  0.00  0.00    +0.000 C 
ENDBRANCH  14  15
ENDBRANCH  13  14
ENDBRANCH   2  13
TORSDOF 5
ENDMDL
MODEL 4
REMARK VINA RESULT:      -6.3      0.913      1.376
REMARK  Name = 
REMARK  6 active torsions:
REMARK  status: ('A' for Active; 'I' for Inactive)
REMARK    1  A    between atoms: C_1  and  O_2
REMARK    2  A    between atoms: O_2  and  C_3
REMARK    3  A    between atoms: C_7  and  N_8
REMARK    4  A    between atoms: C_9  and  C_11
REMARK    5  A    between atoms: C_11  and  C_12
REMARK    6  A    between atoms: C_12  and  N_13
REMARK                            x       y       z     vdW  Elec       q    Type
REMARK                         _______ _______ _______ _____ _____    ______ ____
ROOT
ATOM      1  N   UNL     1       6.443   4.772  16.085  0.00  0.00    +0.000 N 
ATOM      2  C   UNL     1       5.558   5.675  16.618  0.00  0.00    +0.000 C 
ATOM      3  O   UNL     1       5.013   6.493  15.890  0.00  0.00    +0.000 OA
ATOM      4  H   UNL     1       7.026   4.218  16.731  0.00  0.00    +0.000 HD
ENDROOT
BRANCH   1   9
ATOM      5  C   UNL     1       6.005   3.563  12.525  0.00  0.00    +0.000 A 
ATOM      6  C   UNL     1       7.033   4.263  11.885  0.00  0.00    +0.000 A 
ATOM      7  C   UNL     1       7.850   5.125  12.603  0.00  0.00    +0.000 A 
ATOM      8  C   UNL     1       7.666   5.290  13.973  0.00  0.00    +0.000 A 
ATOM      9  C   UNL     1       6.646   4.596  14.666  0.00  0.00    +0.000 A 
ATOM     10  C   UNL     1       5.800   3.743  13.915  0.00  0.00    +0.000 A 
BRANCH   5  12
ATOM     11  C   UNL     1       4.051   3.033  11.158  0.00  0.00    +0.000 C 
ATOM     12  O   UNL     1       5.251   2.739  11.759  0.00  0.00    +0.000 OA
ENDBRANCH   5  12
ENDBRANCH   1   9
BRANCH   2  13
ATOM     13  C   UNL     1       5.244   5.758  18.108  0.00  0.00    +0.000 C 
BRANCH  13  14
ATOM     14  C   UNL     1       5.170   4.310  18.659  0.00  0.00    +0.000 C 
BRANCH  14  15
ATOM     15  N   UNL     1       3.908   3.930  19.345  0.00  0.00    +0.000 NA
ATOM     16  C   UNL     1       3.775   2.499  19.685  0.00  0.00    +0.000 C 
ATOM     17  C   UNL     1       3.543   1.636  18.429  0.00  0.00    +0.000 C 
ATOM     18  O   UNL     1       2.400   2.073  17.714  0.00  0.00    +0.000 OA
ATOM     19  C   UNL     1       2.581   3.411  17.298  0.00  0.00    +0.000 C 
ATOM     20  C   UNL     1       2.740   4.333  18.523  0.00  0.00    +0.000 C 
ENDBRANCH  14  15
ENDBRANCH  13  14
ENDBRANCH   2  13
TORSDOF 5
ENDMDL
MODEL 5
REMARK VINA RESULT:      -6.3      0.935      1.345
REMARK  Name = 
REMARK  6 active torsions:
REMARK  status: ('A' for Active; 'I' for Inactive)
REMARK    1  A    between atoms: C_1  and  O_2
REMARK    2  A    between atoms: O_2  and  C_3
REMARK    3  A    between atoms: C_7  and  N_8
REMARK    4  A    between atoms: C_9  and  C_11
REMARK    5  A    between atoms: C_11  and  C_12
REMARK    6  A    between atoms: C_12  and  N_13
REMARK                            x       y       z     vdW  Elec       q    Type
REMARK                         _______ _______ _______ _____ _____    ______ ____
ROOT
ATOM      1  N   UNL     1       6.045   4.976  15.832  0.00  0.00    +0.000 N 
ATOM      2  C   UNL     1       5.277   6.059  16.176  0.00  0.00    +0.000 C 
ATOM      3  O   UNL     1       5.008   6.904  15.333  0.00  0.00    +0.000 OA
ATOM      4  H   UNL     1       6.413   4.377  16.588  0.00  0.00    +0.000 HD
ENDROOT
BRANCH   1   9
ATOM      5  C   UNL     1       6.072   3.373  12.404  0.00  0.00    +0.000 A 
ATOM      6  C   UNL     1       7.138   4.054  11.808  0.00  0.00    +0.000 A 
ATOM      7  C   UNL     1       7.831   5.029  12.511  0.00  0.00    +0.000 A 
ATOM      8  C   UNL     1       7.483   5.329  13.825  0.00  0.00    +0.000 A 
ATOM      9  C   UNL     1       6.418   4.660  14.473  0.00  0.00    +0.000 A 
ATOM     10  C   UNL     1       5.700   3.689  13.733  0.00  0.00    +0.000 A 
BRANCH   5  12
ATOM     11  C   UNL     1       5.976   1.254  11.192  0.00  0.00    +0.000 C 
ATOM     12  O   UNL     1       5.445   2.434  11.656  0.00  0.00    +0.000 OA
ENDBRANCH   5  12
ENDBRANCH   1   9
BRANCH   2  13
ATOM     13  C   UNL     1       4.768   6.309  17.592  0.00  0.00    +0.000 C 
BRANCH  13  14
ATOM     14  C   UNL     1       3.464   5.489  17.779  0.00  0.00    +0.000 C 
BRANCH  14  15
ATOM     15  N   UNL     1       3.388   4.643  18.997  0.00  0.00    +0.000 NA
ATOM     16  C   UNL     1       4.179   3.396  18.957  0.00  0.00    +0.000 C 
ATOM     17  C   UNL     1       3.557   2.360  18.000  0.00  0.00    +0.000 C 
ATOM     18  O   UNL     1       2.217   2.072  18.361  0.00  0.00    +0.000 OA
ATOM     19  C   UNL     1       1.442   3.251  18.292  0.00  0.00    +0.000 C 
ATOM     20  C   UNL     1       1.975   4.298  19.290  0.00  0.00    +0.000 C 
ENDBRANCH  14  15
ENDBRANCH  13  14
ENDBRANCH   2  13
TORSDOF 5
ENDMDL
MODEL 6
REMARK VINA RESULT:      -6.1      4.023      7.797
REMARK  Name = 
REMARK  6 active torsions:
REMARK  status: ('A' for Active; 'I' for Inactive)
REMARK    1  A    between atoms: C_1  and  O_2
REMARK    2  A    between atoms: O_2  and  C_3
REMARK    3  A    between atoms: C_7  and  N_8
REMARK    4  A    between atoms: C_9  and  C_11
REMARK    5  A    between atoms: C_11  and  C_12
REMARK    6  A    between atoms: C_12  and  N_13
REMARK                            x       y       z     vdW  Elec       q    Type
REMARK                         _______ _______ _______ _____ _____    ______ ____
ROOT
ATOM      1  N   UNL     1       3.037   6.536  19.732  0.00  0.00    +0.000 N 
ATOM      2  C   UNL     1       2.950   5.395  18.975  0.00  0.00    +0.000 C 
ATOM      3  O   UNL     1       2.004   5.242  18.214  0.00  0.00    +0.000 OA
ATOM      4  H   UNL     1       3.732   6.566  20.494  0.00  0.00    +0.000 HD
ENDROOT
BRANCH   1   9
ATOM      5  C   UNL     1       0.540   9.282  20.470  0.00  0.00    +0.000 A 
ATOM      6  C   UNL     1       0.481   9.920  19.228  0.00  0.00    +0.000 A 
ATOM      7  C   UNL     1       1.253   9.467  18.167  0.00  0.00    +0.000 A 
ATOM      8  C   UNL     1       2.084   8.361  18.324  0.00  0.00    +0.000 A 
ATOM      9  C   UNL     1       2.169   7.677  19.560  0.00  0.00    +0.000 A 
ATOM     10  C   UNL     1       1.398   8.168  20.641  0.00  0.00    +0.000 A 
BRANCH   5  12
ATOM     11  C   UNL     1      -0.247   9.411  22.780  0.00  0.00    +0.000 C 
ATOM     12  O   UNL     1      -0.244   9.779  21.456  0.00  0.00    +0.000 OA
ENDBRANCH   5  12
ENDBRANCH   1   9
BRANCH   2  13
ATOM     13  C   UNL     1       3.957   4.252  19.065  0.00  0.00    +0.000 C 
BRANCH  13  14
ATOM     14  C   UNL     1       5.360   4.873  19.291  0.00  0.00    +0.000 C 
BRANCH  14  15
ATOM     15  N   UNL     1       6.417   4.482  18.323  0.00  0.00    +0.000 NA
ATOM     16  C   UNL     1       7.678   5.246  18.414  0.00  0.00    +0.000 C 
ATOM     17  C   UNL     1       7.507   6.687  17.894  0.00  0.00    +0.000 C 
ATOM     18  O   UNL     1       7.031   6.695  16.559  0.00  0.00    +0.000 OA
ATOM     19  C   UNL     1       5.773   6.056  16.499  0.00  0.00    +0.000 C 
ATOM     20  C   UNL     1       5.900   4.584  16.936  0.00  0.00    +0.000 C 
ENDBRANCH  14  15
ENDBRANCH  13  14
ENDBRANCH   2  13
TORSDOF 5
ENDMDL
MODEL 7
REMARK VINA RESULT:      -6.0      1.419      1.735
REMARK  Name = 
REMARK  6 active torsions:
REMARK  status: ('A' for Active; 'I' for Inactive)
REMARK    1  A    between atoms: C_1  and  O_2
REMARK    2  A    between atoms: O_2  and  C_3
REMARK    3  A    between atoms: C_7  and  N_8
REMARK    4  A    between atoms: C_9  and  C_11
REMARK    5  A    between atoms: C_11  and  C_12
REMARK    6  A    between atoms: C_12  and  N_13
REMARK                            x       y       z     vdW  Elec       q    Type
REMARK                         _______ _______ _______ _____ _____    ______ ____
ROOT
ATOM      1  N   UNL     1       5.996   5.283  16.042  0.00  0.00    +0.000 N 
ATOM      2  C   UNL     1       6.768   5.050  17.152  0.00  0.00    +0.000 C 
ATOM      3  O   UNL     1       7.779   4.368  17.055  0.00  0.00    +0.000 OA
ATOM      4  H   UNL     1       5.061   5.699  16.175  0.00  0.00    +0.000 HD
ENDROOT
BRANCH   1   9
ATOM      5  C   UNL     1       6.000   3.676  12.615  0.00  0.00    +0.000 A 
ATOM      6  C   UNL     1       7.164   4.228  12.072  0.00  0.00    +0.000 A 
ATOM      7  C   UNL     1       7.931   5.120  12.808  0.00  0.00    +0.000 A 
ATOM      8  C   UNL     1       7.558   5.463  14.105  0.00  0.00    +0.000 A 
ATOM      9  C   UNL     1       6.394   4.922  14.701  0.00  0.00    +0.000 A 
ATOM     10  C   UNL     1       5.605   4.037  13.927  0.00  0.00    +0.000 A 
BRANCH   5  12
ATOM     11  C   UNL     1       4.059   3.003  11.294  0.00  0.00    +0.000 C 
ATOM     12  O   UNL     1       5.306   2.812  11.837  0.00  0.00    +0.000 OA
ENDBRANCH   5  12
ENDBRANCH   1   9
BRANCH   2  13
ATOM     13  C   UNL     1       6.408   5.559  18.544  0.00  0.00    +0.000 C 
BRANCH  13  14
ATOM     14  C   UNL     1       4.866   5.706  18.611  0.00  0.00    +0.000 C 
BRANCH  14  15
ATOM     15  N   UNL     1       4.138   4.664  19.380  0.00  0.00    +0.000 NA
ATOM     16  C   UNL     1       4.278   3.284  18.872  0.00  0.00    +0.000 C 
ATOM     17  C   UNL     1       3.504   3.083  17.554  0.00  0.00    +0.000 C 
ATOM     18  O   UNL     1       2.132   3.405  17.714  0.00  0.00    +0.000 OA
ATOM     19  C   UNL     1       2.003   4.758  18.096  0.00  0.00    +0.000 C 
ATOM     20  C   UNL     1       2.695   4.999  19.452  0.00  0.00    +0.000 C 
ENDBRANCH  14  15
ENDBRANCH  13  14
ENDBRANCH   2  13
TORSDOF 5
ENDMDL
MODEL 8
REMARK VINA RESULT:      -6.0      0.954      1.145
REMARK  Name = 
REMARK  6 active torsions:
REMARK  status: ('A' for Active; 'I' for Inactive)
REMARK    1  A    between atoms: C_1  and  O_2
REMARK    2  A    between atoms: O_2  and  C_3
REMARK    3  A    between atoms: C_7  and  N_8
REMARK    4  A    between atoms: C_9  and  C_11
REMARK    5  A    between atoms: C_11  and  C_12
REMARK    6  A    between atoms: C_12  and  N_13
REMARK                            x       y       z     vdW  Elec       q    Type
REMARK                         _______ _______ _______ _____ _____    ______ ____
ROOT
ATOM      1  N   UNL     1       6.114   4.126  16.321  0.00  0.00    +0.000 N 
ATOM      2  C   UNL     1       5.732   5.217  17.060  0.00  0.00    +0.000 C 
ATOM      3  O   UNL     1       5.787   6.334  16.565  0.00  0.00    +0.000 OA
ATOM      4  H   UNL     1       6.236   3.223  16.807  0.00  0.00    +0.000 HD
ENDROOT
BRANCH   1   9
ATOM      5  C   UNL     1       5.920   3.518  12.591  0.00  0.00    +0.000 A 
ATOM      6  C   UNL     1       6.986   4.304  12.144  0.00  0.00    +0.000 A 
ATOM      7  C   UNL     1       7.750   5.032  13.046  0.00  0.00    +0.000 A 
ATOM      8  C   UNL     1       7.474   4.972  14.409  0.00  0.00    +0.000 A 
ATOM      9  C   UNL     1       6.412   4.182  14.909  0.00  0.00    +0.000 A 
ATOM     10  C   UNL     1       5.622   3.470  13.974  0.00  0.00    +0.000 A 
BRANCH   5  12
ATOM     11  C   UNL     1       4.016   3.189  11.096  0.00  0.00    +0.000 C 
ATOM     12  O   UNL     1       5.221   2.836  11.651  0.00  0.00    +0.000 OA
ENDBRANCH   5  12
ENDBRANCH   1   9
BRANCH   2  13
ATOM     13  C   UNL     1       5.282   5.126  18.515  0.00  0.00    +0.000 C 
BRANCH  13  14
ATOM     14  C   UNL     1       4.434   3.837  18.670  0.00  0.00    +0.000 C 
BRANCH  14  15
ATOM     15  N   UNL     1       3.312   3.667  17.711  0.00  0.00    +0.000 NA
ATOM     16  C   UNL     1       2.141   4.538  17.941  0.00  0.00    +0.000 C 
ATOM     17  C   UNL     1       1.352   4.108  19.193  0.00  0.00    +0.000 C 
ATOM     18  O   UNL     1       0.939   2.755  19.096  0.00  0.00    +0.000 OA
ATOM     19  C   UNL     1       2.071   1.919  18.985  0.00  0.00    +0.000 C 
ATOM     20  C   UNL     1       2.858   2.254  17.704  0.00  0.00    +0.000 C 
ENDBRANCH  14  15
ENDBRANCH  13  14
ENDBRANCH   2  13
TORSDOF 5
ENDMDL
MODEL 9
REMARK VINA RESULT:      -6.0      3.251      7.084
REMARK  Name = 
REMARK  6 active torsions:
REMARK  status: ('A' for Active; 'I' for Inactive)
REMARK    1  A    between atoms: C_1  and  O_2
REMARK    2  A    between atoms: O_2  and  C_3
REMARK    3  A    between atoms: C_7  and  N_8
REMARK    4  A    between atoms: C_9  and  C_11
REMARK    5  A    between atoms: C_11  and  C_12
REMARK    6  A    between atoms: C_12  and  N_13
REMARK                            x       y       z     vdW  Elec       q    Type
REMARK                         _______ _______ _______ _____ _____    ______ ____
ROOT
ATOM      1  N   UNL     1       2.949   5.384  19.218  0.00  0.00    +0.000 N 
ATOM      2  C   UNL     1       2.478   4.521  18.261  0.00  0.00    +0.000 C 
ATOM      3  O   UNL     1       1.399   4.739  17.725  0.00  0.00    +0.000 OA
ATOM      4  H   UNL     1       3.760   5.092  19.784  0.00  0.00    +0.000 HD
ENDROOT
BRANCH   1   9
ATOM      5  C   UNL     1       1.737   8.952  18.860  0.00  0.00    +0.000 A 
ATOM      6  C   UNL     1       1.119   9.141  20.099  0.00  0.00    +0.000 A 
ATOM      7  C   UNL     1       1.088   8.116  21.034  0.00  0.00    +0.000 A 
ATOM      8  C   UNL     1       1.689   6.892  20.754  0.00  0.00    +0.000 A 
ATOM      9  C   UNL     1       2.335   6.656  19.518  0.00  0.00    +0.000 A 
ATOM     10  C   UNL     1       2.331   7.701  18.562  0.00  0.00    +0.000 A 
BRANCH   5  12
ATOM     11  C   UNL     1       1.969  11.318  18.298  0.00  0.00    +0.000 C 
ATOM     12  O   UNL     1       1.729   9.999  18.000  0.00  0.00    +0.000 OA
ENDBRANCH   5  12
ENDBRANCH   1   9
BRANCH   2  13
ATOM     13  C   UNL     1       3.209   3.247  17.849  0.00  0.00    +0.000 C 
BRANCH  13  14
ATOM     14  C   UNL     1       4.727   3.563  17.811  0.00  0.00    +0.000 C 
BRANCH  14  15
ATOM     15  N   UNL     1       5.109   4.901  17.291  0.00  0.00    +0.000 NA
ATOM     16  C   UNL     1       5.326   4.979  15.832  0.00  0.00    +0.000 C 
ATOM     17  C   UNL     1       6.626   4.265  15.413  0.00  0.00    +0.000 C 
ATOM     18  O   UNL     1       7.746   4.800  16.099  0.00  0.00    +0.000 OA
ATOM     19  C   UNL     1       7.579   4.624  17.490  0.00  0.00    +0.000 C 
ATOM     20  C   UNL     1       6.331   5.385  17.979  0.00  0.00    +0.000 C 
ENDBRANCH  14  15
ENDBRANCH  13  14
ENDBRANCH   2  13
TORSDOF 5
ENDMDL
