MODEL 1
REMARK VINA RESULT:      -7.6      0.000      0.000
REMARK  Name = 
REMARK  8 active torsions:
REMARK  status: ('A' for Active; 'I' for Inactive)
REMARK    1  A    between atoms: C_1  and  N_2
REMARK    2  A    between atoms: N_2  and  C_3
REMARK    3  A    between atoms: C_3  and  C_4
REMARK    4  A    between atoms: N_6  and  C_7
REMARK    5  A    between atoms: C_14  and  C_16
REMARK    6  A    between atoms: C_16  and  N_17
REMARK    7  A    between atoms: N_20  and  C_21
REMARK    8  A    between atoms: C_21  and  C_22
REMARK                            x       y       z     vdW  Elec       q    Type
REMARK                         _______ _______ _______ _____ _____    ______ ____
ROOT
ATOM      1  C   UNL     1       1.510   2.598  21.979  0.00  0.00    +0.000 C 
ATOM      2  N   UNL     1       2.201   3.399  20.983  0.00  0.00    +0.000 N 
ATOM      3  C   UNL     1       2.229   2.912  19.682  0.00  0.00    +0.000 C 
ATOM      4  O   UNL     1       1.791   1.787  19.406  0.00  0.00    +0.000 OA
ENDROOT
BRANCH   2   5
ATOM      5  C   UNL     1       2.535   4.782  21.346  0.00  0.00    +0.000 C 
BRANCH   5   6
ATOM      6  C   UNL     1       1.700   5.875  20.661  0.00  0.00    +0.000 C 
ATOM      7  O   UNL     1       0.525   5.657  20.363  0.00  0.00    +0.000 OA
ATOM      8  N   UNL     1       2.354   7.093  20.508  0.00  0.00    +0.000 N 
ATOM      9  H   UNL     1       3.351   6.983  20.360  0.00  0.00    +0.000 HD
BRANCH   8  10
ATOM     10  C   UNL     1       1.715   8.200  19.894  0.00  0.00    +0.000 A 
ATOM     11  C   UNL     1       1.936   8.388  18.522  0.00  0.00    +0.000 A 
ATOM     12  C   UNL     1       1.210   9.346  17.810  0.00  0.00    +0.000 A 
ATOM     13  C   UNL     1       0.294  10.162  18.469  0.00  0.00    +0.000 A 
ATOM     14  C   UNL     1       0.142  10.055  19.851  0.00  0.00    +0.000 A 
ATOM     15  C   UNL     1       0.863   9.092  20.568  0.00  0.00    +0.000 A 
ATOM     16 BR   UNL     1       0.772   9.208  22.468  0.00  0.00    +0.000 Br
ENDBRANCH   8  10
ENDBRANCH   5   6
ENDBRANCH   2   5
BRANCH   3  17
ATOM     17  C   UNL     1       2.828   3.777  18.566  0.00  0.00    +0.000 C 
BRANCH  17  18
ATOM     18  N   UNL     1       4.107   3.225  18.075  0.00  0.00    +0.000 NA
ATOM     19  C   UNL     1       4.200   3.240  16.599  0.00  0.00    +0.000 C 
ATOM     20  C   UNL     1       4.457   4.623  15.955  0.00  0.00    +0.000 C 
ATOM     21  N   UNL     1       5.607   5.354  16.527  0.00  0.00    +0.000 NA
ATOM     22  C   UNL     1       5.454   5.378  18.001  0.00  0.00    +0.000 C 
ATOM     23  C   UNL     1       5.241   3.989  18.643  0.00  0.00    +0.000 C 
BRANCH  21  24
ATOM     24  C   UNL     1       6.875   4.739  16.093  0.00  0.00    +0.000 C 
BRANCH  24  25
ATOM     25  C   UNL     1       7.003   4.614  14.590  0.00  0.00    +0.000 A 
ATOM     26  C   UNL     1       7.808   5.510  13.869  0.00  0.00    +0.000 A 
ATOM     27  C   UNL     1       7.893   5.426  12.479  0.00  0.00    +0.000 A 
ATOM     28  C   UNL     1       7.178   4.442  11.796  0.00  0.00    +0.000 A 
ATOM     29  C   UNL     1       6.386   3.543  12.508  0.00  0.00    +0.000 A 
ATOM     30 CL   UNL     1       5.504   2.330  11.663  0.00  0.00    +0.000 Cl
ATOM     31  C   UNL     1       6.294   3.623  13.897  0.00  0.00    +0.000 A 
ENDBRANCH  24  25
ENDBRANCH  21  24
ENDBRANCH  17  18
ENDBRANCH   3  17
TORSDOF 7
ENDMDL
MODEL 2
REMARK VINA RESULT:      -7.4      1.096      1.762
REMARK  Name = 
REMARK  8 active torsions:
REMARK  status: ('A' for Active; 'I' for Inactive)
REMARK    1  A    between atoms: C_1  and  N_2
REMARK    2  A    between atoms: N_2  and  C_3
REMARK    3  A    between atoms: C_3  and  C_4
REMARK    4  A    between atoms: N_6  and  C_7
REMARK    5  A    between atoms: C_14  and  C_16
REMARK    6  A    between atoms: C_16  and  N_17
REMARK    7  A    between atoms: N_20  and  C_21
REMARK    8  A    between atoms: C_21  and  C_22
REMARK                            x       y       z     vdW  Elec       q    Type
REMARK                         _______ _______ _______ _____ _____    ______ ____
ROOT
ATOM      1  C   UNL     1       1.266   2.559  20.857  0.00  0.00    +0.000 C 
ATOM      2  N   UNL     1       2.489   3.298  20.595  0.00  0.00    +0.000 N 
ATOM      3  C   UNL     1       3.298   2.843  19.561  0.00  0.00    +0.000 C 
ATOM      4  O   UNL     1       3.051   1.784  18.968  0.00  0.00    +0.000 OA
ENDROOT
BRANCH   2   5
ATOM      5  C   UNL     1       2.619   4.624  21.213  0.00  0.00    +0.000 C 
BRANCH   5   6
ATOM      6  C   UNL     1       1.809   5.752  20.556  0.00  0.00    +0.000 C 
ATOM      7  O   UNL     1       0.601   5.612  20.365  0.00  0.00    +0.000 OA
ATOM      8  N   UNL     1       2.533   6.913  20.303  0.00  0.00    +0.000 N 
ATOM      9  H   UNL     1       3.503   6.725  20.078  0.00  0.00    +0.000 HD
BRANCH   8  10
ATOM     10  C   UNL     1       1.924   8.043  19.701  0.00  0.00    +0.000 A 
ATOM     11  C   UNL     1       2.150   8.238  18.331  0.00  0.00    +0.000 A 
ATOM     12  C   UNL     1       1.450   9.224  17.628  0.00  0.00    +0.000 A 
ATOM     13  C   UNL     1       0.557  10.058  18.296  0.00  0.00    +0.000 A 
ATOM     14  C   UNL     1       0.403   9.942  19.678  0.00  0.00    +0.000 A 
ATOM     15  C   UNL     1       1.098   8.952  20.384  0.00  0.00    +0.000 A 
ATOM     16 BR   UNL     1       1.011   9.051  22.285  0.00  0.00    +0.000 Br
ENDBRANCH   8  10
ENDBRANCH   5   6
ENDBRANCH   2   5
BRANCH   3  17
ATOM     17  C   UNL     1       4.531   3.660  19.153  0.00  0.00    +0.000 C 
BRANCH  17  18
ATOM     18  N   UNL     1       4.264   4.496  17.965  0.00  0.00    +0.000 NA
ATOM     19  C   UNL     1       5.319   5.505  17.734  0.00  0.00    +0.000 C 
ATOM     20  C   UNL     1       6.650   4.967  17.155  0.00  0.00    +0.000 C 
ATOM     21  N   UNL     1       6.492   4.135  15.943  0.00  0.00    +0.000 NA
ATOM     22  C   UNL     1       5.475   3.094  16.225  0.00  0.00    +0.000 C 
ATOM     23  C   UNL     1       4.133   3.642  16.762  0.00  0.00    +0.000 C 
BRANCH  21  24
ATOM     24  C   UNL     1       6.144   4.977  14.784  0.00  0.00    +0.000 C 
BRANCH  24  25
ATOM     25  C   UNL     1       5.818   4.183  13.537  0.00  0.00    +0.000 A 
ATOM     26  C   UNL     1       4.497   4.111  13.065  0.00  0.00    +0.000 A 
ATOM     27  C   UNL     1       4.187   3.345  11.942  0.00  0.00    +0.000 A 
ATOM     28  C   UNL     1       5.193   2.646  11.277  0.00  0.00    +0.000 A 
ATOM     29  C   UNL     1       6.508   2.722  11.733  0.00  0.00    +0.000 A 
ATOM     30 CL   UNL     1       7.748   1.858  10.910  0.00  0.00    +0.000 Cl
ATOM     31  C   UNL     1       6.825   3.484  12.857  0.00  0.00    +0.000 A 
ENDBRANCH  24  25
ENDBRANCH  21  24
ENDBRANCH  17  18
ENDBRANCH   3  17
TORSDOF 7
ENDMDL
MODEL 3
REMARK VINA RESULT:      -7.4      4.101      6.892
REMARK  Name = 
REMARK  8 active torsions:
REMARK  status: ('A' for Active; 'I' for Inactive)
REMARK    1  A    between atoms: C_1  and  N_2
REMARK    2  A    between atoms: N_2  and  C_3
REMARK    3  A    between atoms: C_3  and  C_4
REMARK    4  A    between atoms: N_6  and  C_7
REMARK    5  A    between atoms: C_14  and  C_16
REMARK    6  A    between atoms: C_16  and  N_17
REMARK    7  A    between atoms: N_20  and  C_21
REMARK    8  A    between atoms: C_21  and  C_22
REMARK                            x       y       z     vdW  Elec       q    Type
REMARK                         _______ _______ _______ _____ _____    ______ ____
ROOT
ATOM      1  C   UNL     1      -1.586  12.616  23.054  0.00  0.00    +0.000 C 
ATOM      2  N   UNL     1      -0.498  12.071  22.260  0.00  0.00    +0.000 N 
ATOM      3  C   UNL     1      -0.160  10.740  22.474  0.00  0.00    +0.000 C 
ATOM      4  O   UNL     1      -0.678  10.083  23.386  0.00  0.00    +0.000 OA
ENDROOT
BRANCH   2   5
ATOM      5  C   UNL     1      -0.060  12.850  21.094  0.00  0.00    +0.000 C 
BRANCH   5   6
ATOM      6  C   UNL     1      -1.061  12.936  19.931  0.00  0.00    +0.000 C 
ATOM      7  O   UNL     1      -1.221  14.000  19.334  0.00  0.00    +0.000 OA
ATOM      8  N   UNL     1      -1.661  11.727  19.593  0.00  0.00    +0.000 N 
ATOM      9  H   UNL     1      -1.794  11.121  20.395  0.00  0.00    +0.000 HD
BRANCH   8  10
ATOM     10  C   UNL     1      -2.607  11.644  18.540  0.00  0.00    +0.000 A 
ATOM     11  C   UNL     1      -2.126  11.282  17.274  0.00  0.00    +0.000 A 
ATOM     12  C   UNL     1      -3.013  11.010  16.227  0.00  0.00    +0.000 A 
ATOM     13  C   UNL     1      -4.385  11.147  16.421  0.00  0.00    +0.000 A 
ATOM     14  C   UNL     1      -4.869  11.607  17.645  0.00  0.00    +0.000 A 
ATOM     15  C   UNL     1      -3.984  11.874  18.698  0.00  0.00    +0.000 A 
ATOM     16 BR   UNL     1      -4.725  12.737  20.227  0.00  0.00    +0.000 Br
ENDBRANCH   8  10
ENDBRANCH   5   6
ENDBRANCH   2   5
BRANCH   3  17
ATOM     17  C   UNL     1       0.889  10.075  21.573  0.00  0.00    +0.000 C 
BRANCH  17  18
ATOM     18  N   UNL     1       0.271   9.127  20.624  0.00  0.00    +0.000 NA
ATOM     19  C   UNL     1       0.599   9.440  19.217  0.00  0.00    +0.000 C 
ATOM     20  C   UNL     1       2.034   9.081  18.764  0.00  0.00    +0.000 C 
ATOM     21  N   UNL     1       2.435   7.690  19.065  0.00  0.00    +0.000 NA
ATOM     22  C   UNL     1       2.153   7.425  20.496  0.00  0.00    +0.000 C 
ATOM     23  C   UNL     1       0.706   7.745  20.930  0.00  0.00    +0.000 C 
BRANCH  21  24
ATOM     24  C   UNL     1       1.745   6.750  18.162  0.00  0.00    +0.000 C 
BRANCH  24  25
ATOM     25  C   UNL     1       2.534   5.489  17.885  0.00  0.00    +0.000 A 
ATOM     26  C   UNL     1       1.874   4.262  17.706  0.00  0.00    +0.000 A 
ATOM     27  C   UNL     1       2.600   3.090  17.495  0.00  0.00    +0.000 A 
ATOM     28  C   UNL     1       3.993   3.133  17.455  0.00  0.00    +0.000 A 
ATOM     29  C   UNL     1       4.654   4.349  17.621  0.00  0.00    +0.000 A 
ATOM     30 CL   UNL     1       6.374   4.398  17.572  0.00  0.00    +0.000 Cl
ATOM     31  C   UNL     1       3.935   5.523  17.835  0.00  0.00    +0.000 A 
ENDBRANCH  24  25
ENDBRANCH  21  24
ENDBRANCH  17  18
ENDBRANCH   3  17
TORSDOF 7
ENDMDL
MODEL 4
REMARK VINA RESULT:      -7.0      6.515      9.691
REMARK  Name = 
REMARK  8 active torsions:
REMARK  status: ('A' for Active; 'I' for Inactive)
REMARK    1  A    between atoms: C_1  and  N_2
REMARK    2  A    between atoms: N_2  and  C_3
REMARK    3  A    between atoms: C_3  and  C_4
REMARK    4  A    between atoms: N_6  and  C_7
REMARK    5  A    between atoms: C_14  and  C_16
REMARK    6  A    between atoms: C_16  and  N_17
REMARK    7  A    between atoms: N_20  and  C_21
REMARK    8  A    between atoms: C_21  and  C_22
REMARK                            x       y       z     vdW  Elec       q    Type
REMARK                         _______ _______ _______ _____ _____    ______ ____
ROOT
ATOM      1  C   UNL     1      -1.538  12.704  20.863  0.00  0.00    +0.000 C 
ATOM      2  N   UNL     1      -0.854  13.384  19.776  0.00  0.00    +0.000 N 
ATOM      3  C   UNL     1      -0.112  14.514  20.099  0.00  0.00    +0.000 C 
ATOM      4  O   UNL     1      -0.132  14.992  21.241  0.00  0.00    +0.000 OA
ENDROOT
BRANCH   2   5
ATOM      5  C   UNL     1      -0.736  12.665  18.501  0.00  0.00    +0.000 C 
BRANCH   5   6
ATOM      6  C   UNL     1      -0.438  11.161  18.605  0.00  0.00    +0.000 C 
ATOM      7  O   UNL     1      -1.302  10.339  18.302  0.00  0.00    +0.000 OA
ATOM      8  N   UNL     1       0.869  10.854  18.970  0.00  0.00    +0.000 N 
ATOM      9  H   UNL     1       1.270  11.543  19.597  0.00  0.00    +0.000 HD
BRANCH   8  10
ATOM     10  C   UNL     1       1.299   9.510  19.107  0.00  0.00    +0.000 A 
ATOM     11  C   UNL     1       1.880   8.905  17.984  0.00  0.00    +0.000 A 
ATOM     12  C   UNL     1       2.483   7.648  18.086  0.00  0.00    +0.000 A 
ATOM     13  C   UNL     1       2.467   6.961  19.297  0.00  0.00    +0.000 A 
ATOM     14  C   UNL     1       1.801   7.507  20.393  0.00  0.00    +0.000 A 
ATOM     15  C   UNL     1       1.201   8.769  20.297  0.00  0.00    +0.000 A 
ATOM     16 BR   UNL     1       0.106   9.298  21.765  0.00  0.00    +0.000 Br
ENDBRANCH   8  10
ENDBRANCH   5   6
ENDBRANCH   2   5
BRANCH   3  17
ATOM     17  C   UNL     1       0.737  15.193  19.017  0.00  0.00    +0.000 C 
BRANCH  17  18
ATOM     18  N   UNL     1       1.946  15.821  19.587  0.00  0.00    +0.000 NA
ATOM     19  C   UNL     1       2.961  14.827  19.996  0.00  0.00    +0.000 C 
ATOM     20  C   UNL     1       3.753  14.159  18.846  0.00  0.00    +0.000 C 
ATOM     21  N   UNL     1       4.357  15.114  17.892  0.00  0.00    +0.000 NA
ATOM     22  C   UNL     1       3.303  16.058  17.451  0.00  0.00    +0.000 C 
ATOM     23  C   UNL     1       2.546  16.753  18.605  0.00  0.00    +0.000 C 
BRANCH  21  24
ATOM     24  C   UNL     1       5.513  15.793  18.507  0.00  0.00    +0.000 C 
BRANCH  24  25
ATOM     25  C   UNL     1       6.724  14.899  18.666  0.00  0.00    +0.000 A 
ATOM     26  C   UNL     1       7.187  14.131  17.585  0.00  0.00    +0.000 A 
ATOM     27  C   UNL     1       8.275  13.273  17.740  0.00  0.00    +0.000 A 
ATOM     28  C   UNL     1       8.915  13.177  18.976  0.00  0.00    +0.000 A 
ATOM     29  C   UNL     1       8.467  13.945  20.049  0.00  0.00    +0.000 A 
ATOM     30 CL   UNL     1       9.258  13.824  21.573  0.00  0.00    +0.000 Cl
ATOM     31  C   UNL     1       7.378  14.803  19.902  0.00  0.00    +0.000 A 
ENDBRANCH  24  25
ENDBRANCH  21  24
ENDBRANCH  17  18
ENDBRANCH   3  17
TORSDOF 7
ENDMDL
MODEL 5
REMARK VINA RESULT:      -6.9      2.547      3.581
REMARK  Name = 
REMARK  8 active torsions:
REMARK  status: ('A' for Active; 'I' for Inactive)
REMARK    1  A    between atoms: C_1  and  N_2
REMARK    2  A    between atoms: N_2  and  C_3
REMARK    3  A    between atoms: C_3  and  C_4
REMARK    4  A    between atoms: N_6  and  C_7
REMARK    5  A    between atoms: C_14  and  C_16
REMARK    6  A    between atoms: C_16  and  N_17
REMARK    7  A    between atoms: N_20  and  C_21
REMARK    8  A    between atoms: C_21  and  C_22
REMARK                            x       y       z     vdW  Elec       q    Type
REMARK                         _______ _______ _______ _____ _____    ______ ____
ROOT
ATOM      1  C   UNL     1       1.347   2.690  21.415  0.00  0.00    +0.000 C 
ATOM      2  N   UNL     1       2.061   3.536  20.474  0.00  0.00    +0.000 N 
ATOM      3  C   UNL     1       2.023   3.171  19.134  0.00  0.00    +0.000 C 
ATOM      4  O   UNL     1       1.508   2.105  18.772  0.00  0.00    +0.000 OA
ENDROOT
BRANCH   2   5
ATOM      5  C   UNL     1       2.491   4.858  20.951  0.00  0.00    +0.000 C 
BRANCH   5   6
ATOM      6  C   UNL     1       1.495   6.007  20.728  0.00  0.00    +0.000 C 
ATOM      7  O   UNL     1       0.312   5.760  20.492  0.00  0.00    +0.000 OA
ATOM      8  N   UNL     1       2.030   7.279  20.905  0.00  0.00    +0.000 N 
ATOM      9  H   UNL     1       3.006   7.331  20.634  0.00  0.00    +0.000 HD
BRANCH   8  10
ATOM     10  C   UNL     1       1.236   8.441  20.735  0.00  0.00    +0.000 A 
ATOM     11  C   UNL     1       0.411   8.815  21.806  0.00  0.00    +0.000 A 
ATOM     12  C   UNL     1      -0.268  10.037  21.787  0.00  0.00    +0.000 A 
ATOM     13  C   UNL     1      -0.172  10.873  20.678  0.00  0.00    +0.000 A 
ATOM     14  C   UNL     1       0.562  10.464  19.564  0.00  0.00    +0.000 A 
ATOM     15  C   UNL     1       1.249   9.244  19.582  0.00  0.00    +0.000 A 
ATOM     16 BR   UNL     1       1.999   8.671  17.926  0.00  0.00    +0.000 Br
ENDBRANCH   8  10
ENDBRANCH   5   6
ENDBRANCH   2   5
BRANCH   3  17
ATOM     17  C   UNL     1       2.645   4.098  18.082  0.00  0.00    +0.000 C 
BRANCH  17  18
ATOM     18  N   UNL     1       4.117   3.982  18.054  0.00  0.00    +0.000 NA
ATOM     19  C   UNL     1       4.607   3.278  16.850  0.00  0.00    +0.000 C 
ATOM     20  C   UNL     1       4.566   4.090  15.533  0.00  0.00    +0.000 C 
ATOM     21  N   UNL     1       5.208   5.419  15.620  0.00  0.00    +0.000 NA
ATOM     22  C   UNL     1       4.652   6.125  16.799  0.00  0.00    +0.000 C 
ATOM     23  C   UNL     1       4.735   5.326  18.119  0.00  0.00    +0.000 C 
BRANCH  21  24
ATOM     24  C   UNL     1       6.675   5.280  15.675  0.00  0.00    +0.000 C 
BRANCH  24  25
ATOM     25  C   UNL     1       7.298   5.924  16.894  0.00  0.00    +0.000 A 
ATOM     26  C   UNL     1       7.629   5.149  18.017  0.00  0.00    +0.000 A 
ATOM     27  C   UNL     1       8.162   5.746  19.159  0.00  0.00    +0.000 A 
ATOM     28  C   UNL     1       8.374   7.124  19.189  0.00  0.00    +0.000 A 
ATOM     29  C   UNL     1       8.059   7.898  18.074  0.00  0.00    +0.000 A 
ATOM     30 CL   UNL     1       8.321   9.598  18.113  0.00  0.00    +0.000 Cl
ATOM     31  C   UNL     1       7.523   7.308  16.930  0.00  0.00    +0.000 A 
ENDBRANCH  24  25
ENDBRANCH  21  24
ENDBRANCH  17  18
ENDBRANCH   3  17
TORSDOF 7
ENDMDL
MODEL 6
REMARK VINA RESULT:      -6.8      5.721     11.334
REMARK  Name = 
REMARK  8 active torsions:
REMARK  status: ('A' for Active; 'I' for Inactive)
REMARK    1  A    between atoms: C_1  and  N_2
REMARK    2  A    between atoms: N_2  and  C_3
REMARK    3  A    between atoms: C_3  and  C_4
REMARK    4  A    between atoms: N_6  and  C_7
REMARK    5  A    between atoms: C_14  and  C_16
REMARK    6  A    between atoms: C_16  and  N_17
REMARK    7  A    between atoms: N_20  and  C_21
REMARK    8  A    between atoms: C_21  and  C_22
REMARK                            x       y       z     vdW  Elec       q    Type
REMARK                         _______ _______ _______ _____ _____    ______ ____
ROOT
ATOM      1  C   UNL     1       2.176   8.154  17.550  0.00  0.00    +0.000 C 
ATOM      2  N   UNL     1       1.947   8.601  18.913  0.00  0.00    +0.000 N 
ATOM      3  C   UNL     1       1.404   9.869  19.084  0.00  0.00    +0.000 C 
ATOM      4  O   UNL     1       1.237  10.633  18.124  0.00  0.00    +0.000 OA
ENDROOT
BRANCH   2   5
ATOM      5  C   UNL     1       2.003   7.586  19.973  0.00  0.00    +0.000 C 
BRANCH   5   6
ATOM      6  C   UNL     1       2.670   6.255  19.590  0.00  0.00    +0.000 C 
ATOM      7  O   UNL     1       3.895   6.142  19.639  0.00  0.00    +0.000 OA
ATOM      8  N   UNL     1       1.781   5.227  19.290  0.00  0.00    +0.000 N 
ATOM      9  H   UNL     1       0.928   5.565  18.857  0.00  0.00    +0.000 HD
BRANCH   8  10
ATOM     10  C   UNL     1       2.243   3.939  18.920  0.00  0.00    +0.000 A 
ATOM     11  C   UNL     1       2.408   3.687  17.550  0.00  0.00    +0.000 A 
ATOM     12  C   UNL     1       3.021   2.509  17.113  0.00  0.00    +0.000 A 
ATOM     13  C   UNL     1       3.427   1.549  18.036  0.00  0.00    +0.000 A 
ATOM     14  C   UNL     1       3.173   1.742  19.393  0.00  0.00    +0.000 A 
ATOM     15  C   UNL     1       2.565   2.923  19.836  0.00  0.00    +0.000 A 
ATOM     16 BR   UNL     1       2.035   2.968  21.666  0.00  0.00    +0.000 Br
ENDBRANCH   8  10
ENDBRANCH   5   6
ENDBRANCH   2   5
BRANCH   3  17
ATOM     17  C   UNL     1       1.017  10.340  20.492  0.00  0.00    +0.000 C 
BRANCH  17  18
ATOM     18  N   UNL     1      -0.443  10.280  20.706  0.00  0.00    +0.000 NA
ATOM     19  C   UNL     1      -0.802   9.637  21.988  0.00  0.00    +0.000 C 
ATOM     20  C   UNL     1      -0.571  10.491  23.257  0.00  0.00    +0.000 C 
ATOM     21  N   UNL     1      -1.174  11.840  23.198  0.00  0.00    +0.000 NA
ATOM     22  C   UNL     1      -0.746  12.484  21.933  0.00  0.00    +0.000 C 
ATOM     23  C   UNL     1      -1.019  11.644  20.666  0.00  0.00    +0.000 C 
BRANCH  21  24
ATOM     24  C   UNL     1      -2.640  11.755  23.330  0.00  0.00    +0.000 C 
BRANCH  24  25
ATOM     25  C   UNL     1      -3.331  13.100  23.278  0.00  0.00    +0.000 A 
ATOM     26  C   UNL     1      -4.281  13.373  22.281  0.00  0.00    +0.000 A 
ATOM     27  C   UNL     1      -4.886  14.627  22.203  0.00  0.00    +0.000 A 
ATOM     28  C   UNL     1      -4.553  15.620  23.124  0.00  0.00    +0.000 A 
ATOM     29  C   UNL     1      -3.619  15.351  24.124  0.00  0.00    +0.000 A 
ATOM     30 CL   UNL     1      -3.209  16.578  25.259  0.00  0.00    +0.000 Cl
ATOM     31  C   UNL     1      -3.007  14.101  24.206  0.00  0.00    +0.000 A 
ENDBRANCH  24  25
ENDBRANCH  21  24
ENDBRANCH  17  18
ENDBRANCH   3  17
TORSDOF 7
ENDMDL
MODEL 7
REMARK VINA RESULT:      -6.8      6.784      8.671
REMARK  Name = 
REMARK  8 active torsions:
REMARK  status: ('A' for Active; 'I' for Inactive)
REMARK    1  A    between atoms: C_1  and  N_2
REMARK    2  A    between atoms: N_2  and  C_3
REMARK    3  A    between atoms: C_3  and  C_4
REMARK    4  A    between atoms: N_6  and  C_7
REMARK    5  A    between atoms: C_14  and  C_16
REMARK    6  A    between atoms: C_16  and  N_17
REMARK    7  A    between atoms: N_20  and  C_21
REMARK    8  A    between atoms: C_21  and  C_22
REMARK                            x       y       z     vdW  Elec       q    Type
REMARK                         _______ _______ _______ _____ _____    ______ ____
ROOT
ATOM      1  C   UNL     1       9.423  10.236  19.528  0.00  0.00    +0.000 C 
ATOM      2  N   UNL     1       8.689   9.722  18.384  0.00  0.00    +0.000 N 
ATOM      3  C   UNL     1       8.361   8.372  18.394  0.00  0.00    +0.000 C 
ATOM      4  O   UNL     1       8.780   7.614  19.278  0.00  0.00    +0.000 OA
ENDROOT
BRANCH   2   5
ATOM      5  C   UNL     1       8.084  10.705  17.476  0.00  0.00    +0.000 C 
BRANCH   5   6
ATOM      6  C   UNL     1       8.557  12.157  17.649  0.00  0.00    +0.000 C 
ATOM      7  O   UNL     1       7.735  13.072  17.694  0.00  0.00    +0.000 OA
ATOM      8  N   UNL     1       9.929  12.301  17.832  0.00  0.00    +0.000 N 
ATOM      9  H   UNL     1      10.463  11.600  17.331  0.00  0.00    +0.000 HD
BRANCH   8  10
ATOM     10  C   UNL     1      10.518  13.579  18.006  0.00  0.00    +0.000 A 
ATOM     11  C   UNL     1      11.103  14.174  16.880  0.00  0.00    +0.000 A 
ATOM     12  C   UNL     1      11.549  15.498  16.926  0.00  0.00    +0.000 A 
ATOM     13  C   UNL     1      11.462  16.224  18.111  0.00  0.00    +0.000 A 
ATOM     14  C   UNL     1      10.978  15.609  19.265  0.00  0.00    +0.000 A 
ATOM     15  C   UNL     1      10.525  14.284  19.222  0.00  0.00    +0.000 A 
ATOM     16 BR   UNL     1      10.131  13.470  20.899  0.00  0.00    +0.000 Br
ENDBRANCH   8  10
ENDBRANCH   5   6
ENDBRANCH   2   5
BRANCH   3  17
ATOM     17  C   UNL     1       7.473   7.804  17.279  0.00  0.00    +0.000 C 
BRANCH  17  18
ATOM     18  N   UNL     1       7.282   6.347  17.423  0.00  0.00    +0.000 NA
ATOM     19  C   UNL     1       6.284   6.006  18.459  0.00  0.00    +0.000 C 
ATOM     20  C   UNL     1       4.804   6.243  18.072  0.00  0.00    +0.000 C 
ATOM     21  N   UNL     1       4.408   5.628  16.787  0.00  0.00    +0.000 NA
ATOM     22  C   UNL     1       5.390   6.038  15.755  0.00  0.00    +0.000 C 
ATOM     23  C   UNL     1       6.863   5.759  16.130  0.00  0.00    +0.000 C 
BRANCH  21  24
ATOM     24  C   UNL     1       4.303   4.164  16.928  0.00  0.00    +0.000 C 
BRANCH  24  25
ATOM     25  C   UNL     1       3.216   3.726  17.885  0.00  0.00    +0.000 A 
ATOM     26  C   UNL     1       1.865   3.790  17.505  0.00  0.00    +0.000 A 
ATOM     27  C   UNL     1       0.859   3.429  18.400  0.00  0.00    +0.000 A 
ATOM     28  C   UNL     1       1.191   2.996  19.684  0.00  0.00    +0.000 A 
ATOM     29  C   UNL     1       2.530   2.920  20.064  0.00  0.00    +0.000 A 
ATOM     30 CL   UNL     1       2.938   2.385  21.648  0.00  0.00    +0.000 Cl
ATOM     31  C   UNL     1       3.541   3.281  19.175  0.00  0.00    +0.000 A 
ENDBRANCH  24  25
ENDBRANCH  21  24
ENDBRANCH  17  18
ENDBRANCH   3  17
TORSDOF 7
ENDMDL
MODEL 8
REMARK VINA RESULT:      -6.8      5.916     11.471
REMARK  Name = 
REMARK  8 active torsions:
REMARK  status: ('A' for Active; 'I' for Inactive)
REMARK    1  A    between atoms: C_1  and  N_2
REMARK    2  A    between atoms: N_2  and  C_3
REMARK    3  A    between atoms: C_3  and  C_4
REMARK    4  A    between atoms: N_6  and  C_7
REMARK    5  A    between atoms: C_14  and  C_16
REMARK    6  A    between atoms: C_16  and  N_17
REMARK    7  A    between atoms: N_20  and  C_21
REMARK    8  A    between atoms: C_21  and  C_22
REMARK                            x       y       z     vdW  Elec       q    Type
REMARK                         _______ _______ _______ _____ _____    ______ ____
ROOT
ATOM      1  C   UNL     1       2.207   8.611  17.876  0.00  0.00    +0.000 C 
ATOM      2  N   UNL     1       1.593   8.774  19.182  0.00  0.00    +0.000 N 
ATOM      3  C   UNL     1       0.545   9.681  19.283  0.00  0.00    +0.000 C 
ATOM      4  O   UNL     1       0.228  10.408  18.332  0.00  0.00    +0.000 OA
ENDROOT
BRANCH   2   5
ATOM      5  C   UNL     1       1.902   7.764  20.202  0.00  0.00    +0.000 C 
BRANCH   5   6
ATOM      6  C   UNL     1       2.529   6.460  19.685  0.00  0.00    +0.000 C 
ATOM      7  O   UNL     1       3.751   6.366  19.572  0.00  0.00    +0.000 OA
ATOM      8  N   UNL     1       1.621   5.430  19.461  0.00  0.00    +0.000 N 
ATOM      9  H   UNL     1       0.716   5.769  19.154  0.00  0.00    +0.000 HD
BRANCH   8  10
ATOM     10  C   UNL     1       2.046   4.164  18.983  0.00  0.00    +0.000 A 
ATOM     11  C   UNL     1       2.159   4.008  17.595  0.00  0.00    +0.000 A 
ATOM     12  C   UNL     1       2.734   2.855  17.053  0.00  0.00    +0.000 A 
ATOM     13  C   UNL     1       3.156   1.825  17.890  0.00  0.00    +0.000 A 
ATOM     14  C   UNL     1       2.954   1.925  19.266  0.00  0.00    +0.000 A 
ATOM     15  C   UNL     1       2.383   3.081  19.813  0.00  0.00    +0.000 A 
ATOM     16 BR   UNL     1       1.919   3.003  21.660  0.00  0.00    +0.000 Br
ENDBRANCH   8  10
ENDBRANCH   5   6
ENDBRANCH   2   5
BRANCH   3  17
ATOM     17  C   UNL     1      -0.227   9.797  20.604  0.00  0.00    +0.000 C 
BRANCH  17  18
ATOM     18  N   UNL     1       0.401  10.772  21.519  0.00  0.00    +0.000 NA
ATOM     19  C   UNL     1       0.837  12.002  20.824  0.00  0.00    +0.000 C 
ATOM     20  C   UNL     1      -0.289  12.984  20.421  0.00  0.00    +0.000 C 
ATOM     21  N   UNL     1      -1.203  13.342  21.526  0.00  0.00    +0.000 NA
ATOM     22  C   UNL     1      -1.674  12.090  22.164  0.00  0.00    +0.000 C 
ATOM     23  C   UNL     1      -0.542  11.133  22.602  0.00  0.00    +0.000 C 
BRANCH  21  24
ATOM     24  C   UNL     1      -0.533  14.251  22.475  0.00  0.00    +0.000 C 
BRANCH  24  25
ATOM     25  C   UNL     1      -1.492  15.025  23.351  0.00  0.00    +0.000 A 
ATOM     26  C   UNL     1      -1.457  14.877  24.747  0.00  0.00    +0.000 A 
ATOM     27  C   UNL     1      -2.369  15.555  25.555  0.00  0.00    +0.000 A 
ATOM     28  C   UNL     1      -3.323  16.393  24.977  0.00  0.00    +0.000 A 
ATOM     29  C   UNL     1      -3.356  16.553  23.593  0.00  0.00    +0.000 A 
ATOM     30 CL   UNL     1      -4.535  17.586  22.882  0.00  0.00    +0.000 Cl
ATOM     31  C   UNL     1      -2.449  15.876  22.779  0.00  0.00    +0.000 A 
ENDBRANCH  24  25
ENDBRANCH  21  24
ENDBRANCH  17  18
ENDBRANCH   3  17
TORSDOF 7
ENDMDL
MODEL 9
REMARK VINA RESULT:      -6.7      6.128     11.590
REMARK  Name = 
REMARK  8 active torsions:
REMARK  status: ('A' for Active; 'I' for Inactive)
REMARK    1  A    between atoms: C_1  and  N_2
REMARK    2  A    between atoms: N_2  and  C_3
REMARK    3  A    between atoms: C_3  and  C_4
REMARK    4  A    between atoms: N_6  and  C_7
REMARK    5  A    between atoms: C_14  and  C_16
REMARK    6  A    between atoms: C_16  and  N_17
REMARK    7  A    between atoms: N_20  and  C_21
REMARK    8  A    between atoms: C_21  and  C_22
REMARK                            x       y       z     vdW  Elec       q    Type
REMARK                         _______ _______ _______ _____ _____    ______ ____
ROOT
ATOM      1  C   UNL     1       2.005   8.968  17.894  0.00  0.00    +0.000 C 
ATOM      2  N   UNL     1       1.436   9.012  19.231  0.00  0.00    +0.000 N 
ATOM      3  C   UNL     1       0.314   9.810  19.418  0.00  0.00    +0.000 C 
ATOM      4  O   UNL     1      -0.109  10.548  18.518  0.00  0.00    +0.000 OA
ENDROOT
BRANCH   2   5
ATOM      5  C   UNL     1       1.880   7.988  20.185  0.00  0.00    +0.000 C 
BRANCH   5   6
ATOM      6  C   UNL     1       2.455   6.702  19.570  0.00  0.00    +0.000 C 
ATOM      7  O   UNL     1       3.618   6.677  19.170  0.00  0.00    +0.000 OA
ATOM      8  N   UNL     1       1.592   5.611  19.600  0.00  0.00    +0.000 N 
ATOM      9  H   UNL     1       0.619   5.881  19.509  0.00  0.00    +0.000 HD
BRANCH   8  10
ATOM     10  C   UNL     1       1.978   4.353  19.070  0.00  0.00    +0.000 A 
ATOM     11  C   UNL     1       2.045   4.239  17.674  0.00  0.00    +0.000 A 
ATOM     12  C   UNL     1       2.581   3.093  17.080  0.00  0.00    +0.000 A 
ATOM     13  C   UNL     1       3.007   2.029  17.871  0.00  0.00    +0.000 A 
ATOM     14  C   UNL     1       2.848   2.089  19.255  0.00  0.00    +0.000 A 
ATOM     15  C   UNL     1       2.317   3.238  19.855  0.00  0.00    +0.000 A 
ATOM     16 BR   UNL     1       1.907   3.110  21.712  0.00  0.00    +0.000 Br
ENDBRANCH   8  10
ENDBRANCH   5   6
ENDBRANCH   2   5
BRANCH   3  17
ATOM     17  C   UNL     1      -0.406   9.792  20.772  0.00  0.00    +0.000 C 
BRANCH  17  18
ATOM     18  N   UNL     1       0.205  10.736  21.729  0.00  0.00    +0.000 NA
ATOM     19  C   UNL     1       0.385  12.087  21.156  0.00  0.00    +0.000 C 
ATOM     20  C   UNL     1      -0.902  12.936  21.018  0.00  0.00    +0.000 C 
ATOM     21  N   UNL     1      -1.701  13.031  22.258  0.00  0.00    +0.000 NA
ATOM     22  C   UNL     1      -1.919  11.659  22.775  0.00  0.00    +0.000 C 
ATOM     23  C   UNL     1      -0.626  10.831  22.951  0.00  0.00    +0.000 C 
BRANCH  21  24
ATOM     24  C   UNL     1      -1.034  13.912  23.234  0.00  0.00    +0.000 C 
BRANCH  24  25
ATOM     25  C   UNL     1      -1.682  15.273  23.361  0.00  0.00    +0.000 A 
ATOM     26  C   UNL     1      -1.045  16.414  22.847  0.00  0.00    +0.000 A 
ATOM     27  C   UNL     1      -1.617  17.676  23.001  0.00  0.00    +0.000 A 
ATOM     28  C   UNL     1      -2.836  17.811  23.666  0.00  0.00    +0.000 A 
ATOM     29  C   UNL     1      -3.479  16.681  24.169  0.00  0.00    +0.000 A 
ATOM     30 CL   UNL     1      -4.983  16.850  24.990  0.00  0.00    +0.000 Cl
ATOM     31  C   UNL     1      -2.911  15.417  24.021  0.00  0.00    +0.000 A 
ENDBRANCH  24  25
ENDBRANCH  21  24
ENDBRANCH  17  18
ENDBRANCH   3  17
TORSDOF 7
ENDMDL
