MODEL 1
REMARK VINA RESULT:      -8.5      0.000      0.000
REMARK  Name = 
REMARK  10 active torsions:
REMARK  status: ('A' for Active; 'I' for Inactive)
REMARK    1  A    between atoms: C_1  and  C_2
REMARK    2  A    between atoms: C_4  and  C_5
REMARK    3  A    between atoms: N_6  and  C_7
REMARK    4  A    between atoms: C_7  and  C_8
REMARK    5  A    between atoms: C_8  and  N_9
REMARK    6  A    between atoms: N_9  and  C_10
REMARK    7  A    between atoms: C_10  and  C_11
REMARK    8  A    between atoms: C_12  and  C_13
REMARK    9  A    between atoms: C_17  and  C_18
REMARK   10  A    between atoms: C_20  and  C_21
REMARK                            x       y       z     vdW  Elec       q    Type
REMARK                         _______ _______ _______ _____ _____    ______ ____
ROOT
ATOM      1  C   UNL     1       1.084   9.792  19.661  0.00  0.00    +0.000 A 
ATOM      2  C   UNL     1       1.640   8.523  19.831  0.00  0.00    +0.000 A 
ATOM      3  N   UNL     1       1.445   8.100  21.136  0.00  0.00    +0.000 NA
ATOM      4  C   UNL     1       0.704   9.010  21.712  0.00  0.00    +0.000 A 
ATOM      5  C   UNL     1       0.087   9.014  22.989  0.00  0.00    +0.000 A 
ATOM      6  C   UNL     1      -0.593  10.102  23.392  0.00  0.00    +0.000 A 
ATOM      7  C   UNL     1      -0.680  11.287  22.548  0.00  0.00    +0.000 A 
ATOM      8 CL   UNL     1      -1.500  12.670  23.148  0.00  0.00    +0.000 Cl
ATOM      9  C   UNL     1      -0.142  11.263  21.320  0.00  0.00    +0.000 A 
ATOM     10  N   UNL     1       0.525  10.114  20.890  0.00  0.00    +0.000 N 
ENDROOT
BRANCH   2  11
ATOM     11  C   UNL     1       2.343   7.689  18.828  0.00  0.00    +0.000 C 
ATOM     12  O   UNL     1       2.675   8.165  17.740  0.00  0.00    +0.000 OA
ATOM     13  N   UNL     1       2.601   6.341  19.158  0.00  0.00    +0.000 N 
ATOM     14  C   UNL     1       3.604   5.615  18.386  0.00  0.00    +0.000 C 
ATOM     15  C   UNL     1       3.378   4.098  18.413  0.00  0.00    +0.000 C 
ATOM     16  C   UNL     1       2.219   3.656  17.525  0.00  0.00    +0.000 C 
ATOM     17  O   UNL     1       3.269   3.583  19.744  0.00  0.00    +0.000 OA
ATOM     18  C   UNL     1       2.376   4.266  20.625  0.00  0.00    +0.000 C 
ATOM     19  C   UNL     1       0.973   3.661  20.624  0.00  0.00    +0.000 C 
ATOM     20  C   UNL     1       2.350   5.796  20.491  0.00  0.00    +0.000 C 
ENDBRANCH   2  11
BRANCH   1  21
ATOM     21  C   UNL     1       1.005  10.683  18.469  0.00  0.00    +0.000 C 
BRANCH  21  22
ATOM     22  N   UNL     1       0.014  10.160  17.525  0.00  0.00    +0.000 NA
ATOM     23  H   UNL     1       0.101  10.659  16.639  0.00  0.00    +0.000 HD
BRANCH  22  24
ATOM     24  C   UNL     1      -1.379  10.265  18.004  0.00  0.00    +0.000 C 
BRANCH  24  25
ATOM     25  C   UNL     1      -1.979  11.670  17.906  0.00  0.00    +0.000 C 
BRANCH  25  31
ATOM     26  C   UNL     1      -6.347  12.044  19.924  0.00  0.00    +0.000 C 
ATOM     27  C   UNL     1      -5.340  11.804  18.864  0.00  0.00    +0.000 A 
ATOM     28  C   UNL     1      -5.554  11.304  17.563  0.00  0.00    +0.000 A 
ATOM     29  C   UNL     1      -4.305  11.235  16.985  0.00  0.00    +0.000 A 
ATOM     30  C   UNL     1      -3.901  10.768  15.637  0.00  0.00    +0.000 C 
ATOM     31  N   UNL     1      -3.431  11.682  17.945  0.00  0.00    +0.000 N 
ATOM     32  N   UNL     1      -4.045  12.051  19.088  0.00  0.00    +0.000 NA
ENDBRANCH  25  31
ENDBRANCH  24  25
ENDBRANCH  22  24
ENDBRANCH  21  22
ENDBRANCH   1  21
TORSDOF 6
ENDMDL
MODEL 2
REMARK VINA RESULT:      -8.4      3.439      6.144
REMARK  Name = 
REMARK  10 active torsions:
REMARK  status: ('A' for Active; 'I' for Inactive)
REMARK    1  A    between atoms: C_1  and  C_2
REMARK    2  A    between atoms: C_4  and  C_5
REMARK    3  A    between atoms: N_6  and  C_7
REMARK    4  A    between atoms: C_7  and  C_8
REMARK    5  A    between atoms: C_8  and  N_9
REMARK    6  A    between atoms: N_9  and  C_10
REMARK    7  A    between atoms: C_10  and  C_11
REMARK    8  A    between atoms: C_12  and  C_13
REMARK    9  A    between atoms: C_17  and  C_18
REMARK   10  A    between atoms: C_20  and  C_21
REMARK                            x       y       z     vdW  Elec       q    Type
REMARK                         _______ _______ _______ _____ _____    ______ ____
ROOT
ATOM      1  C   UNL     1       5.078   5.980  17.490  0.00  0.00    +0.000 A 
ATOM      2  C   UNL     1       5.315   4.683  17.952  0.00  0.00    +0.000 A 
ATOM      3  N   UNL     1       6.597   4.598  18.469  0.00  0.00    +0.000 NA
ATOM      4  C   UNL     1       7.089   5.809  18.436  0.00  0.00    +0.000 A 
ATOM      5  C   UNL     1       8.299   6.321  18.971  0.00  0.00    +0.000 A 
ATOM      6  C   UNL     1       8.623   7.609  18.761  0.00  0.00    +0.000 A 
ATOM      7  C   UNL     1       7.763   8.478  17.968  0.00  0.00    +0.000 A 
ATOM      8 CL   UNL     1       8.267  10.093  17.674  0.00  0.00    +0.000 Cl
ATOM      9  C   UNL     1       6.595   8.009  17.506  0.00  0.00    +0.000 A 
ATOM     10  N   UNL     1       6.243   6.683  17.766  0.00  0.00    +0.000 N 
ENDROOT
BRANCH   2  11
ATOM     11  C   UNL     1       4.393   3.522  17.932  0.00  0.00    +0.000 C 
ATOM     12  O   UNL     1       4.449   2.693  17.022  0.00  0.00    +0.000 OA
ATOM     13  N   UNL     1       3.450   3.415  18.978  0.00  0.00    +0.000 N 
ATOM     14  C   UNL     1       2.807   2.125  19.204  0.00  0.00    +0.000 C 
ATOM     15  C   UNL     1       1.447   2.263  19.901  0.00  0.00    +0.000 C 
ATOM     16  C   UNL     1       0.351   2.766  18.967  0.00  0.00    +0.000 C 
ATOM     17  O   UNL     1       1.525   3.028  21.109  0.00  0.00    +0.000 OA
ATOM     18  C   UNL     1       2.210   4.279  21.032  0.00  0.00    +0.000 C 
ATOM     19  C   UNL     1       1.268   5.446  20.737  0.00  0.00    +0.000 C 
ATOM     20  C   UNL     1       3.460   4.301  20.140  0.00  0.00    +0.000 C 
ENDBRANCH   2  11
BRANCH   1  21
ATOM     21  C   UNL     1       3.877   6.602  16.867  0.00  0.00    +0.000 C 
BRANCH  21  22
ATOM     22  N   UNL     1       3.008   7.155  17.909  0.00  0.00    +0.000 NA
ATOM     23  H   UNL     1       2.118   6.656  17.901  0.00  0.00    +0.000 HD
BRANCH  22  24
ATOM     24  C   UNL     1       2.752   8.602  17.765  0.00  0.00    +0.000 C 
BRANCH  24  25
ATOM     25  C   UNL     1       1.270   8.983  17.721  0.00  0.00    +0.000 C 
BRANCH  25  31
ATOM     26  C   UNL     1       0.841   9.210  22.522  0.00  0.00    +0.000 C 
ATOM     27  C   UNL     1       0.555   9.521  21.101  0.00  0.00    +0.000 A 
ATOM     28  C   UNL     1      -0.498  10.298  20.579  0.00  0.00    +0.000 A 
ATOM     29  C   UNL     1      -0.345  10.255  19.210  0.00  0.00    +0.000 A 
ATOM     30  C   UNL     1      -1.165  10.869  18.137  0.00  0.00    +0.000 C 
ATOM     31  N   UNL     1       0.761   9.472  18.990  0.00  0.00    +0.000 N 
ATOM     32  N   UNL     1       1.334   9.033  20.129  0.00  0.00    +0.000 NA
ENDBRANCH  25  31
ENDBRANCH  24  25
ENDBRANCH  22  24
ENDBRANCH  21  22
ENDBRANCH   1  21
TORSDOF 6
ENDMDL
MODEL 3
REMARK VINA RESULT:      -8.2      7.106     10.171
REMARK  Name = 
REMARK  10 active torsions:
REMARK  status: ('A' for Active; 'I' for Inactive)
REMARK    1  A    between atoms: C_1  and  C_2
REMARK    2  A    between atoms: C_4  and  C_5
REMARK    3  A    between atoms: N_6  and  C_7
REMARK    4  A    between atoms: C_7  and  C_8
REMARK    5  A    between atoms: C_8  and  N_9
REMARK    6  A    between atoms: N_9  and  C_10
REMARK    7  A    between atoms: C_10  and  C_11
REMARK    8  A    between atoms: C_12  and  C_13
REMARK    9  A    between atoms: C_17  and  C_18
REMARK   10  A    between atoms: C_20  and  C_21
REMARK                            x       y       z     vdW  Elec       q    Type
REMARK                         _______ _______ _______ _____ _____    ______ ____
ROOT
ATOM      1  C   UNL     1       6.419   5.583  17.136  0.00  0.00    +0.000 A 
ATOM      2  C   UNL     1       5.339   4.912  17.712  0.00  0.00    +0.000 A 
ATOM      3  N   UNL     1       4.700   4.145  16.752  0.00  0.00    +0.000 NA
ATOM      4  C   UNL     1       5.417   4.245  15.664  0.00  0.00    +0.000 A 
ATOM      5  C   UNL     1       5.306   3.555  14.428  0.00  0.00    +0.000 A 
ATOM      6  C   UNL     1       6.136   3.871  13.418  0.00  0.00    +0.000 A 
ATOM      7  C   UNL     1       7.127   4.930  13.565  0.00  0.00    +0.000 A 
ATOM      8 CL   UNL     1       8.108   5.335  12.216  0.00  0.00    +0.000 Cl
ATOM      9  C   UNL     1       7.266   5.545  14.748  0.00  0.00    +0.000 A 
ATOM     10  N   UNL     1       6.431   5.182  15.807  0.00  0.00    +0.000 N 
ENDROOT
BRANCH   2  11
ATOM     11  C   UNL     1       4.881   4.955  19.122  0.00  0.00    +0.000 C 
ATOM     12  O   UNL     1       5.661   5.266  20.024  0.00  0.00    +0.000 OA
ATOM     13  N   UNL     1       3.536   4.615  19.386  0.00  0.00    +0.000 N 
ATOM     14  C   UNL     1       2.959   5.011  20.666  0.00  0.00    +0.000 C 
ATOM     15  C   UNL     1       1.781   4.118  21.077  0.00  0.00    +0.000 C 
ATOM     16  C   UNL     1       2.223   2.747  21.578  0.00  0.00    +0.000 C 
ATOM     17  O   UNL     1       0.780   4.026  20.057  0.00  0.00    +0.000 OA
ATOM     18  C   UNL     1       1.236   3.726  18.737  0.00  0.00    +0.000 C 
ATOM     19  C   UNL     1       1.218   2.228  18.435  0.00  0.00    +0.000 C 
ATOM     20  C   UNL     1       2.560   4.387  18.323  0.00  0.00    +0.000 C 
ENDBRANCH   2  11
BRANCH   1  21
ATOM     21  C   UNL     1       7.429   6.511  17.718  0.00  0.00    +0.000 C 
BRANCH  21  22
ATOM     22  N   UNL     1       7.054   7.897  17.426  0.00  0.00    +0.000 NA
ATOM     23  H   UNL     1       6.599   7.935  16.513  0.00  0.00    +0.000 HD
BRANCH  22  24
ATOM     24  C   UNL     1       8.192   8.838  17.439  0.00  0.00    +0.000 C 
BRANCH  24  25
ATOM     25  C   UNL     1       8.652   9.258  18.837  0.00  0.00    +0.000 C 
BRANCH  25  31
ATOM     26  C   UNL     1      11.299  12.912  17.125  0.00  0.00    +0.000 C 
ATOM     27  C   UNL     1      10.514  12.127  18.107  0.00  0.00    +0.000 A 
ATOM     28  C   UNL     1      10.351  12.377  19.484  0.00  0.00    +0.000 A 
ATOM     29  C   UNL     1       9.566  11.347  19.955  0.00  0.00    +0.000 A 
ATOM     30  C   UNL     1       9.079  11.067  21.328  0.00  0.00    +0.000 C 
ATOM     31  N   UNL     1       9.309  10.553  18.865  0.00  0.00    +0.000 N 
ATOM     32  N   UNL     1       9.861  11.023  17.727  0.00  0.00    +0.000 NA
ENDBRANCH  25  31
ENDBRANCH  24  25
ENDBRANCH  22  24
ENDBRANCH  21  22
ENDBRANCH   1  21
TORSDOF 6
ENDMDL
MODEL 4
REMARK VINA RESULT:      -8.2      0.762      1.252
REMARK  Name = 
REMARK  10 active torsions:
REMARK  status: ('A' for Active; 'I' for Inactive)
REMARK    1  A    between atoms: C_1  and  C_2
REMARK    2  A    between atoms: C_4  and  C_5
REMARK    3  A    between atoms: N_6  and  C_7
REMARK    4  A    between atoms: C_7  and  C_8
REMARK    5  A    between atoms: C_8  and  N_9
REMARK    6  A    between atoms: N_9  and  C_10
REMARK    7  A    between atoms: C_10  and  C_11
REMARK    8  A    between atoms: C_12  and  C_13
REMARK    9  A    between atoms: C_17  and  C_18
REMARK   10  A    between atoms: C_20  and  C_21
REMARK                            x       y       z     vdW  Elec       q    Type
REMARK                         _______ _______ _______ _____ _____    ______ ____
ROOT
ATOM      1  C   UNL     1       0.974   9.787  19.684  0.00  0.00    +0.000 A 
ATOM      2  C   UNL     1       1.551   8.523  19.829  0.00  0.00    +0.000 A 
ATOM      3  N   UNL     1       1.382   8.079  21.131  0.00  0.00    +0.000 NA
ATOM      4  C   UNL     1       0.638   8.971  21.730  0.00  0.00    +0.000 A 
ATOM      5  C   UNL     1       0.041   8.949  23.017  0.00  0.00    +0.000 A 
ATOM      6  C   UNL     1      -0.647  10.022  23.445  0.00  0.00    +0.000 A 
ATOM      7  C   UNL     1      -0.765  11.217  22.618  0.00  0.00    +0.000 A 
ATOM      8 CL   UNL     1      -1.594  12.580  23.250  0.00  0.00    +0.000 Cl
ATOM      9  C   UNL     1      -0.245  11.217  21.382  0.00  0.00    +0.000 A 
ATOM     10  N   UNL     1       0.430  10.084  20.926  0.00  0.00    +0.000 N 
ENDROOT
BRANCH   2  11
ATOM     11  C   UNL     1       2.250   7.713  18.803  0.00  0.00    +0.000 C 
ATOM     12  O   UNL     1       2.545   8.204  17.712  0.00  0.00    +0.000 OA
ATOM     13  N   UNL     1       2.548   6.369  19.118  0.00  0.00    +0.000 N 
ATOM     14  C   UNL     1       3.549   5.673  18.317  0.00  0.00    +0.000 C 
ATOM     15  C   UNL     1       3.359   4.151  18.338  0.00  0.00    +0.000 C 
ATOM     16  C   UNL     1       2.191   3.687  17.474  0.00  0.00    +0.000 C 
ATOM     17  O   UNL     1       3.294   3.624  19.668  0.00  0.00    +0.000 OA
ATOM     18  C   UNL     1       2.405   4.280  20.574  0.00  0.00    +0.000 C 
ATOM     19  C   UNL     1       1.018   3.642  20.601  0.00  0.00    +0.000 C 
ATOM     20  C   UNL     1       2.340   5.810  20.452  0.00  0.00    +0.000 C 
ENDBRANCH   2  11
BRANCH   1  21
ATOM     21  C   UNL     1       0.864  10.692  18.506  0.00  0.00    +0.000 C 
BRANCH  21  22
ATOM     22  N   UNL     1      -0.047  10.109  17.518  0.00  0.00    +0.000 NA
ATOM     23  H   UNL     1       0.041  10.622  16.639  0.00  0.00    +0.000 HD
BRANCH  22  24
ATOM     24  C   UNL     1      -1.462  10.111  17.937  0.00  0.00    +0.000 C 
BRANCH  24  25
ATOM     25  C   UNL     1      -2.206  11.419  17.657  0.00  0.00    +0.000 C 
BRANCH  25  31
ATOM     26  C   UNL     1      -6.916  10.829  18.531  0.00  0.00    +0.000 C 
ATOM     27  C   UNL     1      -5.531  11.315  18.737  0.00  0.00    +0.000 A 
ATOM     28  C   UNL     1      -5.074  12.256  19.683  0.00  0.00    +0.000 A 
ATOM     29  C   UNL     1      -3.723  12.390  19.447  0.00  0.00    +0.000 A 
ATOM     30  C   UNL     1      -2.717  13.251  20.115  0.00  0.00    +0.000 C 
ATOM     31  N   UNL     1      -3.449  11.548  18.398  0.00  0.00    +0.000 N 
ATOM     32  N   UNL     1      -4.532  10.871  17.966  0.00  0.00    +0.000 NA
ENDBRANCH  25  31
ENDBRANCH  24  25
ENDBRANCH  22  24
ENDBRANCH  21  22
ENDBRANCH   1  21
TORSDOF 6
ENDMDL
MODEL 5
REMARK VINA RESULT:      -8.2      7.026      9.988
REMARK  Name = 
REMARK  10 active torsions:
REMARK  status: ('A' for Active; 'I' for Inactive)
REMARK    1  A    between atoms: C_1  and  C_2
REMARK    2  A    between atoms: C_4  and  C_5
REMARK    3  A    between atoms: N_6  and  C_7
REMARK    4  A    between atoms: C_7  and  C_8
REMARK    5  A    between atoms: C_8  and  N_9
REMARK    6  A    between atoms: N_9  and  C_10
REMARK    7  A    between atoms: C_10  and  C_11
REMARK    8  A    between atoms: C_12  and  C_13
REMARK    9  A    between atoms: C_17  and  C_18
REMARK   10  A    between atoms: C_20  and  C_21
REMARK                            x       y       z     vdW  Elec       q    Type
REMARK                         _______ _______ _______ _____ _____    ______ ____
ROOT
ATOM      1  C   UNL     1       6.109   5.933  16.887  0.00  0.00    +0.000 A 
ATOM      2  C   UNL     1       5.315   5.034  17.603  0.00  0.00    +0.000 A 
ATOM      3  N   UNL     1       4.987   3.957  16.796  0.00  0.00    +0.000 NA
ATOM      4  C   UNL     1       5.641   4.122  15.676  0.00  0.00    +0.000 A 
ATOM      5  C   UNL     1       5.787   3.253  14.564  0.00  0.00    +0.000 A 
ATOM      6  C   UNL     1       6.473   3.669  13.485  0.00  0.00    +0.000 A 
ATOM      7  C   UNL     1       7.042   5.010  13.430  0.00  0.00    +0.000 A 
ATOM      8 CL   UNL     1       7.844   5.508  11.996  0.00  0.00    +0.000 Cl
ATOM      9  C   UNL     1       6.949   5.812  14.500  0.00  0.00    +0.000 A 
ATOM     10  N   UNL     1       6.274   5.357  15.635  0.00  0.00    +0.000 N 
ENDROOT
BRANCH   2  11
ATOM     11  C   UNL     1       4.852   5.139  19.007  0.00  0.00    +0.000 C 
ATOM     12  O   UNL     1       5.616   5.532  19.890  0.00  0.00    +0.000 OA
ATOM     13  N   UNL     1       3.521   4.761  19.290  0.00  0.00    +0.000 N 
ATOM     14  C   UNL     1       2.924   5.205  20.545  0.00  0.00    +0.000 C 
ATOM     15  C   UNL     1       1.782   4.290  21.005  0.00  0.00    +0.000 C 
ATOM     16  C   UNL     1       2.278   2.969  21.584  0.00  0.00    +0.000 C 
ATOM     17  O   UNL     1       0.789   4.101  19.992  0.00  0.00    +0.000 OA
ATOM     18  C   UNL     1       1.260   3.745  18.691  0.00  0.00    +0.000 C 
ATOM     19  C   UNL     1       1.302   2.233  18.475  0.00  0.00    +0.000 C 
ATOM     20  C   UNL     1       2.557   4.434  18.241  0.00  0.00    +0.000 C 
ENDBRANCH   2  11
BRANCH   1  21
ATOM     21  C   UNL     1       6.735   7.226  17.281  0.00  0.00    +0.000 C 
BRANCH  21  22
ATOM     22  N   UNL     1       7.834   6.980  18.217  0.00  0.00    +0.000 NA
ATOM     23  H   UNL     1       7.476   6.473  19.028  0.00  0.00    +0.000 HD
BRANCH  22  24
ATOM     24  C   UNL     1       8.514   8.207  18.676  0.00  0.00    +0.000 C 
BRANCH  24  25
ATOM     25  C   UNL     1       8.160   9.465  17.877  0.00  0.00    +0.000 C 
BRANCH  25  31
ATOM     26  C   UNL     1      11.679  11.876  20.135  0.00  0.00    +0.000 C 
ATOM     27  C   UNL     1      10.506  11.663  19.253  0.00  0.00    +0.000 A 
ATOM     28  C   UNL     1       9.716  12.638  18.611  0.00  0.00    +0.000 A 
ATOM     29  C   UNL     1       8.737  11.937  17.942  0.00  0.00    +0.000 A 
ATOM     30  C   UNL     1       7.611  12.426  17.110  0.00  0.00    +0.000 C 
ATOM     31  N   UNL     1       8.983  10.614  18.214  0.00  0.00    +0.000 N 
ATOM     32  N   UNL     1      10.067  10.426  18.994  0.00  0.00    +0.000 NA
ENDBRANCH  25  31
ENDBRANCH  24  25
ENDBRANCH  22  24
ENDBRANCH  21  22
ENDBRANCH   1  21
TORSDOF 6
ENDMDL
MODEL 6
REMARK VINA RESULT:      -8.2      3.014      4.453
REMARK  Name = 
REMARK  10 active torsions:
REMARK  status: ('A' for Active; 'I' for Inactive)
REMARK    1  A    between atoms: C_1  and  C_2
REMARK    2  A    between atoms: C_4  and  C_5
REMARK    3  A    between atoms: N_6  and  C_7
REMARK    4  A    between atoms: C_7  and  C_8
REMARK    5  A    between atoms: C_8  and  N_9
REMARK    6  A    between atoms: N_9  and  C_10
REMARK    7  A    between atoms: C_10  and  C_11
REMARK    8  A    between atoms: C_12  and  C_13
REMARK    9  A    between atoms: C_17  and  C_18
REMARK   10  A    between atoms: C_20  and  C_21
REMARK                            x       y       z     vdW  Elec       q    Type
REMARK                         _______ _______ _______ _____ _____    ______ ____
ROOT
ATOM      1  C   UNL     1       0.920   9.632  19.501  0.00  0.00    +0.000 A 
ATOM      2  C   UNL     1       1.644   8.472  19.782  0.00  0.00    +0.000 A 
ATOM      3  N   UNL     1       1.525   8.162  21.127  0.00  0.00    +0.000 NA
ATOM      4  C   UNL     1       0.676   9.020  21.629  0.00  0.00    +0.000 A 
ATOM      5  C   UNL     1       0.081   9.073  22.916  0.00  0.00    +0.000 A 
ATOM      6  C   UNL     1      -0.733  10.097  23.227  0.00  0.00    +0.000 A 
ATOM      7  C   UNL     1      -0.990  11.167  22.271  0.00  0.00    +0.000 A 
ATOM      8 CL   UNL     1      -1.981  12.484  22.752  0.00  0.00    +0.000 Cl
ATOM      9  C   UNL     1      -0.470  11.090  21.038  0.00  0.00    +0.000 A 
ATOM     10  N   UNL     1       0.339  10.001  20.707  0.00  0.00    +0.000 N 
ENDROOT
BRANCH   2  11
ATOM     11  C   UNL     1       2.440   7.640  18.848  0.00  0.00    +0.000 C 
ATOM     12  O   UNL     1       2.905   8.129  17.817  0.00  0.00    +0.000 OA
ATOM     13  N   UNL     1       2.629   6.280  19.177  0.00  0.00    +0.000 N 
ATOM     14  C   UNL     1       3.697   5.545  18.509  0.00  0.00    +0.000 C 
ATOM     15  C   UNL     1       3.436   4.034  18.477  0.00  0.00    +0.000 C 
ATOM     16  C   UNL     1       2.378   3.637  17.453  0.00  0.00    +0.000 C 
ATOM     17  O   UNL     1       3.163   3.496  19.775  0.00  0.00    +0.000 OA
ATOM     18  C   UNL     1       2.190   4.184  20.562  0.00  0.00    +0.000 C 
ATOM     19  C   UNL     1       0.783   3.614  20.387  0.00  0.00    +0.000 C 
ATOM     20  C   UNL     1       2.213   5.717  20.460  0.00  0.00    +0.000 C 
ENDBRANCH   2  11
BRANCH   1  21
ATOM     21  C   UNL     1       0.706  10.377  18.229  0.00  0.00    +0.000 C 
BRANCH  21  22
ATOM     22  N   UNL     1       1.845  11.261  17.975  0.00  0.00    +0.000 NA
ATOM     23  H   UNL     1       2.617  10.997  18.589  0.00  0.00    +0.000 HD
BRANCH  22  24
ATOM     24  C   UNL     1       1.544  12.694  18.168  0.00  0.00    +0.000 C 
BRANCH  24  25
ATOM     25  C   UNL     1       2.579  13.454  19.001  0.00  0.00    +0.000 C 
BRANCH  25  31
ATOM     26  C   UNL     1       1.171  17.933  17.886  0.00  0.00    +0.000 C 
ATOM     27  C   UNL     1       2.095  16.788  18.064  0.00  0.00    +0.000 A 
ATOM     28  C   UNL     1       3.447  16.697  17.676  0.00  0.00    +0.000 A 
ATOM     29  C   UNL     1       3.848  15.427  18.031  0.00  0.00    +0.000 A 
ATOM     30  C   UNL     1       5.158  14.755  17.855  0.00  0.00    +0.000 C 
ATOM     31  N   UNL     1       2.744  14.839  18.595  0.00  0.00    +0.000 N 
ATOM     32  N   UNL     1       1.674  15.658  18.642  0.00  0.00    +0.000 NA
ENDBRANCH  25  31
ENDBRANCH  24  25
ENDBRANCH  22  24
ENDBRANCH  21  22
ENDBRANCH   1  21
TORSDOF 6
ENDMDL
MODEL 7
REMARK VINA RESULT:      -8.1      3.031      4.899
REMARK  Name = 
REMARK  10 active torsions:
REMARK  status: ('A' for Active; 'I' for Inactive)
REMARK    1  A    between atoms: C_1  and  C_2
REMARK    2  A    between atoms: C_4  and  C_5
REMARK    3  A    between atoms: N_6  and  C_7
REMARK    4  A    between atoms: C_7  and  C_8
REMARK    5  A    between atoms: C_8  and  N_9
REMARK    6  A    between atoms: N_9  and  C_10
REMARK    7  A    between atoms: C_10  and  C_11
REMARK    8  A    between atoms: C_12  and  C_13
REMARK    9  A    between atoms: C_17  and  C_18
REMARK   10  A    between atoms: C_20  and  C_21
REMARK                            x       y       z     vdW  Elec       q    Type
REMARK                         _______ _______ _______ _____ _____    ______ ____
ROOT
ATOM      1  C   UNL     1       0.777   9.847  19.513  0.00  0.00    +0.000 A 
ATOM      2  C   UNL     1       1.506   8.680  19.750  0.00  0.00    +0.000 A 
ATOM      3  N   UNL     1       1.397   8.325  21.085  0.00  0.00    +0.000 NA
ATOM      4  C   UNL     1       0.550   9.164  21.622  0.00  0.00    +0.000 A 
ATOM      5  C   UNL     1      -0.035   9.172  22.914  0.00  0.00    +0.000 A 
ATOM      6  C   UNL     1      -0.849  10.184  23.265  0.00  0.00    +0.000 A 
ATOM      7  C   UNL     1      -1.115  11.284  22.347  0.00  0.00    +0.000 A 
ATOM      8 CL   UNL     1      -2.105  12.582  22.880  0.00  0.00    +0.000 Cl
ATOM      9  C   UNL     1      -0.604  11.249  21.108  0.00  0.00    +0.000 A 
ATOM     10  N   UNL     1       0.204  10.174  20.735  0.00  0.00    +0.000 N 
ENDROOT
BRANCH   2  11
ATOM     11  C   UNL     1       2.296   7.882  18.782  0.00  0.00    +0.000 C 
ATOM     12  O   UNL     1       2.707   8.391  17.739  0.00  0.00    +0.000 OA
ATOM     13  N   UNL     1       2.542   6.526  19.095  0.00  0.00    +0.000 N 
ATOM     14  C   UNL     1       3.611   5.833  18.385  0.00  0.00    +0.000 C 
ATOM     15  C   UNL     1       3.401   4.314  18.351  0.00  0.00    +0.000 C 
ATOM     16  C   UNL     1       2.322   3.887  17.362  0.00  0.00    +0.000 C 
ATOM     17  O   UNL     1       3.193   3.759  19.655  0.00  0.00    +0.000 OA
ATOM     18  C   UNL     1       2.225   4.409  20.480  0.00  0.00    +0.000 C 
ATOM     19  C   UNL     1       0.833   3.791  20.351  0.00  0.00    +0.000 C 
ATOM     20  C   UNL     1       2.192   5.942  20.388  0.00  0.00    +0.000 C 
ENDBRANCH   2  11
BRANCH   1  21
ATOM     21  C   UNL     1       0.552  10.634  18.268  0.00  0.00    +0.000 C 
BRANCH  21  22
ATOM     22  N   UNL     1       1.743  11.428  17.962  0.00  0.00    +0.000 NA
ATOM     23  H   UNL     1       2.557  10.812  17.929  0.00  0.00    +0.000 HD
BRANCH  22  24
ATOM     24  C   UNL     1       2.001  12.514  18.929  0.00  0.00    +0.000 C 
BRANCH  24  25
ATOM     25  C   UNL     1       1.706  13.920  18.398  0.00  0.00    +0.000 C 
BRANCH  25  31
ATOM     26  C   UNL     1       6.413  14.824  17.833  0.00  0.00    +0.000 C 
ATOM     27  C   UNL     1       4.974  15.112  18.041  0.00  0.00    +0.000 A 
ATOM     28  C   UNL     1       4.375  16.350  18.351  0.00  0.00    +0.000 A 
ATOM     29  C   UNL     1       3.028  16.086  18.475  0.00  0.00    +0.000 A 
ATOM     30  C   UNL     1       1.904  16.994  18.810  0.00  0.00    +0.000 C 
ATOM     31  N   UNL     1       2.895  14.740  18.243  0.00  0.00    +0.000 N 
ATOM     32  N   UNL     1       4.066  14.134  17.957  0.00  0.00    +0.000 NA
ENDBRANCH  25  31
ENDBRANCH  24  25
ENDBRANCH  22  24
ENDBRANCH  21  22
ENDBRANCH   1  21
TORSDOF 6
ENDMDL
MODEL 8
REMARK VINA RESULT:      -8.1      2.697      3.990
REMARK  Name = 
REMARK  10 active torsions:
REMARK  status: ('A' for Active; 'I' for Inactive)
REMARK    1  A    between atoms: C_1  and  C_2
REMARK    2  A    between atoms: C_4  and  C_5
REMARK    3  A    between atoms: N_6  and  C_7
REMARK    4  A    between atoms: C_7  and  C_8
REMARK    5  A    between atoms: C_8  and  N_9
REMARK    6  A    between atoms: N_9  and  C_10
REMARK    7  A    between atoms: C_10  and  C_11
REMARK    8  A    between atoms: C_12  and  C_13
REMARK    9  A    between atoms: C_17  and  C_18
REMARK   10  A    between atoms: C_20  and  C_21
REMARK                            x       y       z     vdW  Elec       q    Type
REMARK                         _______ _______ _______ _____ _____    ______ ____
ROOT
ATOM      1  C   UNL     1       0.930   9.469  19.427  0.00  0.00    +0.000 A 
ATOM      2  C   UNL     1       1.716   8.369  19.777  0.00  0.00    +0.000 A 
ATOM      3  N   UNL     1       1.632   8.150  21.142  0.00  0.00    +0.000 NA
ATOM      4  C   UNL     1       0.748   8.999  21.597  0.00  0.00    +0.000 A 
ATOM      5  C   UNL     1       0.169   9.114  22.888  0.00  0.00    +0.000 A 
ATOM      6  C   UNL     1      -0.692  10.116  23.140  0.00  0.00    +0.000 A 
ATOM      7  C   UNL     1      -1.016  11.101  22.115  0.00  0.00    +0.000 A 
ATOM      8 CL   UNL     1      -2.065  12.398  22.520  0.00  0.00    +0.000 Cl
ATOM      9  C   UNL     1      -0.510  10.961  20.881  0.00  0.00    +0.000 A 
ATOM     10  N   UNL     1       0.348   9.893  20.614  0.00  0.00    +0.000 N 
ENDROOT
BRANCH   2  11
ATOM     11  C   UNL     1       2.540   7.513  18.890  0.00  0.00    +0.000 C 
ATOM     12  O   UNL     1       3.078   7.986  17.887  0.00  0.00    +0.000 OA
ATOM     13  N   UNL     1       2.669   6.148  19.228  0.00  0.00    +0.000 N 
ATOM     14  C   UNL     1       3.752   5.382  18.623  0.00  0.00    +0.000 C 
ATOM     15  C   UNL     1       3.449   3.879  18.574  0.00  0.00    +0.000 C 
ATOM     16  C   UNL     1       2.441   3.512  17.491  0.00  0.00    +0.000 C 
ATOM     17  O   UNL     1       3.086   3.350  19.855  0.00  0.00    +0.000 OA
ATOM     18  C   UNL     1       2.089   4.068  20.584  0.00  0.00    +0.000 C 
ATOM     19  C   UNL     1       0.679   3.539  20.328  0.00  0.00    +0.000 C 
ATOM     20  C   UNL     1       2.163   5.599  20.485  0.00  0.00    +0.000 C 
ENDBRANCH   2  11
BRANCH   1  21
ATOM     21  C   UNL     1       0.661  10.110  18.110  0.00  0.00    +0.000 C 
BRANCH  21  22
ATOM     22  N   UNL     1       1.888  10.725  17.598  0.00  0.00    +0.000 NA
ATOM     23  H   UNL     1       2.629  10.024  17.576  0.00  0.00    +0.000 HD
BRANCH  22  24
ATOM     24  C   UNL     1       2.345  11.887  18.386  0.00  0.00    +0.000 C 
BRANCH  24  25
ATOM     25  C   UNL     1       1.414  13.101  18.326  0.00  0.00    +0.000 C 
BRANCH  25  31
ATOM     26  C   UNL     1       1.248  15.874  22.273  0.00  0.00    +0.000 C 
ATOM     27  C   UNL     1       1.690  15.413  20.935  0.00  0.00    +0.000 A 
ATOM     28  C   UNL     1       2.551  16.071  20.033  0.00  0.00    +0.000 A 
ATOM     29  C   UNL     1       2.619  15.254  18.926  0.00  0.00    +0.000 A 
ATOM     30  C   UNL     1       3.355  15.432  17.650  0.00  0.00    +0.000 C 
ATOM     31  N   UNL     1       1.814  14.180  19.212  0.00  0.00    +0.000 N 
ATOM     32  N   UNL     1       1.256  14.250  20.438  0.00  0.00    +0.000 NA
ENDBRANCH  25  31
ENDBRANCH  24  25
ENDBRANCH  22  24
ENDBRANCH  21  22
ENDBRANCH   1  21
TORSDOF 6
ENDMDL
MODEL 9
REMARK VINA RESULT:      -8.0      4.267      7.668
REMARK  Name = 
REMARK  10 active torsions:
REMARK  status: ('A' for Active; 'I' for Inactive)
REMARK    1  A    between atoms: C_1  and  C_2
REMARK    2  A    between atoms: C_4  and  C_5
REMARK    3  A    between atoms: N_6  and  C_7
REMARK    4  A    between atoms: C_7  and  C_8
REMARK    5  A    between atoms: C_8  and  N_9
REMARK    6  A    between atoms: N_9  and  C_10
REMARK    7  A    between atoms: C_10  and  C_11
REMARK    8  A    between atoms: C_12  and  C_13
REMARK    9  A    between atoms: C_17  and  C_18
REMARK   10  A    between atoms: C_20  and  C_21
REMARK                            x       y       z     vdW  Elec       q    Type
REMARK                         _______ _______ _______ _____ _____    ______ ____
ROOT
ATOM      1  C   UNL     1      -1.693  11.896  21.218  0.00  0.00    +0.000 A 
ATOM      2  C   UNL     1      -2.103  11.878  22.553  0.00  0.00    +0.000 A 
ATOM      3  N   UNL     1      -1.454  10.855  23.226  0.00  0.00    +0.000 NA
ATOM      4  C   UNL     1      -0.600  10.341  22.381  0.00  0.00    +0.000 A 
ATOM      5  C   UNL     1       0.416   9.372  22.582  0.00  0.00    +0.000 A 
ATOM      6  C   UNL     1       1.146   8.951  21.534  0.00  0.00    +0.000 A 
ATOM      7  C   UNL     1       0.888   9.454  20.191  0.00  0.00    +0.000 A 
ATOM      8 CL   UNL     1       1.804   8.825  18.883  0.00  0.00    +0.000 Cl
ATOM      9  C   UNL     1      -0.037  10.408  20.009  0.00  0.00    +0.000 A 
ATOM     10  N   UNL     1      -0.761  10.873  21.109  0.00  0.00    +0.000 N 
ENDROOT
BRANCH   2  11
ATOM     11  C   UNL     1      -3.071  12.777  23.225  0.00  0.00    +0.000 C 
ATOM     12  O   UNL     1      -4.255  12.451  23.336  0.00  0.00    +0.000 OA
ATOM     13  N   UNL     1      -2.592  14.011  23.715  0.00  0.00    +0.000 N 
ATOM     14  C   UNL     1      -3.397  14.729  24.697  0.00  0.00    +0.000 C 
ATOM     15  C   UNL     1      -3.114  16.237  24.694  0.00  0.00    +0.000 C 
ATOM     16  C   UNL     1      -3.736  16.955  23.501  0.00  0.00    +0.000 C 
ATOM     17  O   UNL     1      -1.721  16.535  24.841  0.00  0.00    +0.000 OA
ATOM     18  C   UNL     1      -0.821  15.827  23.987  0.00  0.00    +0.000 C 
ATOM     19  C   UNL     1      -0.515  16.586  22.697  0.00  0.00    +0.000 C 
ATOM     20  C   UNL     1      -1.171  14.354  23.726  0.00  0.00    +0.000 C 
ENDBRANCH   2  11
BRANCH   1  21
ATOM     21  C   UNL     1      -2.065  12.787  20.084  0.00  0.00    +0.000 C 
BRANCH  21  22
ATOM     22  N   UNL     1      -3.266  12.272  19.422  0.00  0.00    +0.000 NA
ATOM     23  H   UNL     1      -3.818  11.741  20.098  0.00  0.00    +0.000 HD
BRANCH  22  24
ATOM     24  C   UNL     1      -2.982  11.416  18.253  0.00  0.00    +0.000 C 
BRANCH  24  25
ATOM     25  C   UNL     1      -4.178  10.598  17.760  0.00  0.00    +0.000 C 
BRANCH  25  31
ATOM     26  C   UNL     1      -6.999  14.359  16.674  0.00  0.00    +0.000 C 
ATOM     27  C   UNL     1      -6.622  13.046  17.247  0.00  0.00    +0.000 A 
ATOM     28  C   UNL     1      -7.383  12.223  18.103  0.00  0.00    +0.000 A 
ATOM     29  C   UNL     1      -6.581  11.136  18.378  0.00  0.00    +0.000 A 
ATOM     30  C   UNL     1      -6.836   9.953  19.234  0.00  0.00    +0.000 C 
ATOM     31  N   UNL     1      -5.412  11.360  17.693  0.00  0.00    +0.000 N 
ATOM     32  N   UNL     1      -5.426  12.507  16.984  0.00  0.00    +0.000 NA
ENDBRANCH  25  31
ENDBRANCH  24  25
ENDBRANCH  22  24
ENDBRANCH  21  22
ENDBRANCH   1  21
TORSDOF 6
ENDMDL
