MODEL 1
REMARK VINA RESULT:      -6.6      0.000      0.000
REMARK  Name = 
REMARK  9 active torsions:
REMARK  status: ('A' for Active; 'I' for Inactive)
REMARK    1  A    between atoms: C_1  and  C_2
REMARK    2  A    between atoms: N_4  and  C_5
REMARK    3  A    between atoms: C_5  and  C_6
REMARK    4  A    between atoms: C_10  and  C_11
REMARK    5  A    between atoms: C_11  and  N_12
REMARK    6  A    between atoms: C_13  and  C_15
REMARK    7  A    between atoms: C_15  and  N_16
REMARK    8  A    between atoms: C_15  and  C_17
REMARK    9  A    between atoms: C_17  and  S_18
REMARK                            x       y       z     vdW  Elec       q    Type
REMARK                         _______ _______ _______ _____ _____    ______ ____
ROOT
ATOM      1  C   UNL     1       2.208   5.816  19.679  0.00  0.00    +0.000 A 
ATOM      2  C   UNL     1       1.452   5.064  20.588  0.00  0.00    +0.000 A 
ATOM      3  C   UNL     1       1.448   3.671  20.520  0.00  0.00    +0.000 A 
ATOM      4  C   UNL     1       2.198   3.015  19.544  0.00  0.00    +0.000 A 
ATOM      5  C   UNL     1       2.960   3.746  18.622  0.00  0.00    +0.000 A 
ATOM      6  C   UNL     1       2.934   5.148  18.680  0.00  0.00    +0.000 A 
ENDROOT
BRANCH   1   7
ATOM      7  C   UNL     1       2.243   7.324  19.777  0.00  0.00    +0.000 C 
BRANCH   7  11
ATOM      8  C   UNL     1       0.449   9.183  22.593  0.00  0.00    +0.000 C 
ATOM      9  C   UNL     1       0.960   8.866  21.208  0.00  0.00    +0.000 C 
ATOM     10  N   UNL     1       0.671   9.636  20.210  0.00  0.00    +0.000 NA
ATOM     11  N   UNL     1       1.732   7.752  21.058  0.00  0.00    +0.000 N 
ATOM     12  H   UNL     1       0.085  10.420  20.511  0.00  0.00    +0.000 HD
ATOM     13  H   UNL     1       1.850   7.112  21.834  0.00  0.00    +0.000 HD
ENDBRANCH   7  11
ENDBRANCH   1   7
BRANCH   5  14
ATOM     14  C   UNL     1       3.806   3.034  17.602  0.00  0.00    +0.000 C 
BRANCH  14  15
ATOM     15  N   UNL     1       5.166   3.518  17.589  0.00  0.00    +0.000 N 
ATOM     16  C   UNL     1       5.669   4.110  16.443  0.00  0.00    +0.000 C 
ATOM     17  O   UNL     1       5.023   4.204  15.406  0.00  0.00    +0.000 OA
ATOM     18  H   UNL     1       5.637   3.669  18.471  0.00  0.00    +0.000 HD
BRANCH  16  19
ATOM     19  C   UNL     1       7.124   4.606  16.590  0.00  0.00    +0.000 C 
BRANCH  19  20
ATOM     20  N   UNL     1       7.494   5.357  15.368  0.00  0.00    +0.000 NA
ATOM     21  H   UNL     1       7.912   6.247  15.648  0.00  0.00    +0.000 HD
ATOM     22  H   UNL     1       6.651   5.602  14.849  0.00  0.00    +0.000 HD
ENDBRANCH  19  20
BRANCH  19  23
ATOM     23  C   UNL     1       7.259   5.444  17.879  0.00  0.00    +0.000 C 
BRANCH  23  24
ATOM     24  S   UNL     1       7.459   7.235  17.579  0.00  0.00    +0.000 S 
ATOM     25  H   UNL     1       8.731   7.325  17.990  0.00  0.00    +0.000 HD
ENDBRANCH  23  24
ENDBRANCH  19  23
ENDBRANCH  16  19
ENDBRANCH  14  15
ENDBRANCH   5  14
TORSDOF 8
ENDMDL
MODEL 2
REMARK VINA RESULT:      -6.6      3.284      7.254
REMARK  Name = 
REMARK  9 active torsions:
REMARK  status: ('A' for Active; 'I' for Inactive)
REMARK    1  A    between atoms: C_1  and  C_2
REMARK    2  A    between atoms: N_4  and  C_5
REMARK    3  A    between atoms: C_5  and  C_6
REMARK    4  A    between atoms: C_10  and  C_11
REMARK    5  A    between atoms: C_11  and  N_12
REMARK    6  A    between atoms: C_13  and  C_15
REMARK    7  A    between atoms: C_15  and  N_16
REMARK    8  A    between atoms: C_15  and  C_17
REMARK    9  A    between atoms: C_17  and  S_18
REMARK                            x       y       z     vdW  Elec       q    Type
REMARK                         _______ _______ _______ _____ _____    ______ ____
ROOT
ATOM      1  C   UNL     1       6.369   4.738  15.908  0.00  0.00    +0.000 A 
ATOM      2  C   UNL     1       7.230   4.589  17.004  0.00  0.00    +0.000 A 
ATOM      3  C   UNL     1       6.806   4.941  18.286  0.00  0.00    +0.000 A 
ATOM      4  C   UNL     1       5.522   5.446  18.486  0.00  0.00    +0.000 A 
ATOM      5  C   UNL     1       4.645   5.607  17.404  0.00  0.00    +0.000 A 
ATOM      6  C   UNL     1       5.090   5.276  16.114  0.00  0.00    +0.000 A 
ENDROOT
BRANCH   1   7
ATOM      7  C   UNL     1       6.814   4.320  14.525  0.00  0.00    +0.000 C 
BRANCH   7  11
ATOM      8  C   UNL     1       4.457   3.272  11.706  0.00  0.00    +0.000 C 
ATOM      9  C   UNL     1       5.736   3.447  12.488  0.00  0.00    +0.000 C 
ATOM     10  N   UNL     1       6.851   2.971  12.038  0.00  0.00    +0.000 NA
ATOM     11  N   UNL     1       5.666   4.125  13.670  0.00  0.00    +0.000 N 
ATOM     12  H   UNL     1       6.710   2.497  11.141  0.00  0.00    +0.000 HD
ATOM     13  H   UNL     1       4.765   4.390  14.047  0.00  0.00    +0.000 HD
ENDBRANCH   7  11
ENDBRANCH   1   7
BRANCH   5  14
ATOM     14  C   UNL     1       3.243   6.105  17.629  0.00  0.00    +0.000 C 
BRANCH  14  15
ATOM     15  N   UNL     1       2.608   5.457  18.753  0.00  0.00    +0.000 N 
ATOM     16  C   UNL     1       1.763   4.384  18.532  0.00  0.00    +0.000 C 
ATOM     17  O   UNL     1       1.485   3.976  17.410  0.00  0.00    +0.000 OA
ATOM     18  H   UNL     1       2.987   5.607  19.678  0.00  0.00    +0.000 HD
BRANCH  16  19
ATOM     19  C   UNL     1       1.184   3.774  19.828  0.00  0.00    +0.000 C 
BRANCH  19  20
ATOM     20  N   UNL     1       0.298   2.646  19.466  0.00  0.00    +0.000 NA
ATOM     21  H   UNL     1      -0.626   3.019  19.236  0.00  0.00    +0.000 HD
ATOM     22  H   UNL     1       0.156   2.046  20.278  0.00  0.00    +0.000 HD
ENDBRANCH  19  20
BRANCH  19  23
ATOM     23  C   UNL     1       2.337   3.360  20.767  0.00  0.00    +0.000 C 
BRANCH  23  24
ATOM     24  S   UNL     1       3.658   2.406  19.941  0.00  0.00    +0.000 S 
ATOM     25  H   UNL     1       4.072   3.382  19.122  0.00  0.00    +0.000 HD
ENDBRANCH  23  24
ENDBRANCH  19  23
ENDBRANCH  16  19
ENDBRANCH  14  15
ENDBRANCH   5  14
TORSDOF 8
ENDMDL
MODEL 3
REMARK VINA RESULT:      -6.6      3.986      5.559
REMARK  Name = 
REMARK  9 active torsions:
REMARK  status: ('A' for Active; 'I' for Inactive)
REMARK    1  A    between atoms: C_1  and  C_2
REMARK    2  A    between atoms: N_4  and  C_5
REMARK    3  A    between atoms: C_5  and  C_6
REMARK    4  A    between atoms: C_10  and  C_11
REMARK    5  A    between atoms: C_11  and  N_12
REMARK    6  A    between atoms: C_13  and  C_15
REMARK    7  A    between atoms: C_15  and  N_16
REMARK    8  A    between atoms: C_15  and  C_17
REMARK    9  A    between atoms: C_17  and  S_18
REMARK                            x       y       z     vdW  Elec       q    Type
REMARK                         _______ _______ _______ _____ _____    ______ ____
ROOT
ATOM      1  C   UNL     1       4.307   4.140  17.361  0.00  0.00    +0.000 A 
ATOM      2  C   UNL     1       5.065   4.510  18.480  0.00  0.00    +0.000 A 
ATOM      3  C   UNL     1       6.414   4.835  18.342  0.00  0.00    +0.000 A 
ATOM      4  C   UNL     1       7.021   4.795  17.087  0.00  0.00    +0.000 A 
ATOM      5  C   UNL     1       6.284   4.425  15.953  0.00  0.00    +0.000 A 
ATOM      6  C   UNL     1       4.934   4.071  16.107  0.00  0.00    +0.000 A 
ENDROOT
BRANCH   1   7
ATOM      7  C   UNL     1       2.836   3.825  17.504  0.00  0.00    +0.000 C 
BRANCH   7  11
ATOM      8  C   UNL     1       1.394   2.837  20.903  0.00  0.00    +0.000 C 
ATOM      9  C   UNL     1       1.666   2.804  19.418  0.00  0.00    +0.000 C 
ATOM     10  N   UNL     1       1.142   1.884  18.676  0.00  0.00    +0.000 NA
ATOM     11  N   UNL     1       2.471   3.777  18.901  0.00  0.00    +0.000 N 
ATOM     12  H   UNL     1       0.570   1.245  19.234  0.00  0.00    +0.000 HD
ATOM     13  H   UNL     1       2.952   4.415  19.521  0.00  0.00    +0.000 HD
ENDBRANCH   7  11
ENDBRANCH   1   7
BRANCH   5  14
ATOM     14  C   UNL     1       6.927   4.430  14.593  0.00  0.00    +0.000 C 
BRANCH  14  15
ATOM     15  N   UNL     1       6.172   3.663  13.630  0.00  0.00    +0.000 N 
ATOM     16  C   UNL     1       6.525   3.710  12.293  0.00  0.00    +0.000 C 
ATOM     17  O   UNL     1       7.432   4.417  11.870  0.00  0.00    +0.000 OA
ATOM     18  H   UNL     1       5.588   2.906  13.962  0.00  0.00    +0.000 HD
BRANCH  16  19
ATOM     19  C   UNL     1       5.649   2.814  11.389  0.00  0.00    +0.000 C 
BRANCH  19  20
ATOM     20  N   UNL     1       5.958   1.397  11.685  0.00  0.00    +0.000 NA
ATOM     21  H   UNL     1       6.582   1.362  12.494  0.00  0.00    +0.000 HD
ATOM     22  H   UNL     1       6.488   0.994  10.913  0.00  0.00    +0.000 HD
ENDBRANCH  19  20
BRANCH  19  23
ATOM     23  C   UNL     1       4.161   3.165  11.598  0.00  0.00    +0.000 C 
BRANCH  23  24
ATOM     24  S   UNL     1       3.330   3.789  10.096  0.00  0.00    +0.000 S 
ATOM     25  H   UNL     1       4.439   4.154   9.439  0.00  0.00    +0.000 HD
ENDBRANCH  23  24
ENDBRANCH  19  23
ENDBRANCH  16  19
ENDBRANCH  14  15
ENDBRANCH   5  14
TORSDOF 8
ENDMDL
MODEL 4
REMARK VINA RESULT:      -6.5      3.155      7.515
REMARK  Name = 
REMARK  9 active torsions:
REMARK  status: ('A' for Active; 'I' for Inactive)
REMARK    1  A    between atoms: C_1  and  C_2
REMARK    2  A    between atoms: N_4  and  C_5
REMARK    3  A    between atoms: C_5  and  C_6
REMARK    4  A    between atoms: C_10  and  C_11
REMARK    5  A    between atoms: C_11  and  N_12
REMARK    6  A    between atoms: C_13  and  C_15
REMARK    7  A    between atoms: C_15  and  N_16
REMARK    8  A    between atoms: C_15  and  C_17
REMARK    9  A    between atoms: C_17  and  S_18
REMARK                            x       y       z     vdW  Elec       q    Type
REMARK                         _______ _______ _______ _____ _____    ______ ____
ROOT
ATOM      1  C   UNL     1       6.668   4.840  15.581  0.00  0.00    +0.000 A 
ATOM      2  C   UNL     1       7.543   4.606  16.652  0.00  0.00    +0.000 A 
ATOM      3  C   UNL     1       7.241   5.085  17.927  0.00  0.00    +0.000 A 
ATOM      4  C   UNL     1       6.065   5.803  18.146  0.00  0.00    +0.000 A 
ATOM      5  C   UNL     1       5.177   6.052  17.090  0.00  0.00    +0.000 A 
ATOM      6  C   UNL     1       5.504   5.590  15.805  0.00  0.00    +0.000 A 
ENDROOT
BRANCH   1   7
ATOM      7  C   UNL     1       6.976   4.287  14.209  0.00  0.00    +0.000 C 
BRANCH   7  11
ATOM      8  C   UNL     1       4.320   3.288  11.649  0.00  0.00    +0.000 C 
ATOM      9  C   UNL     1       5.656   3.353  12.349  0.00  0.00    +0.000 C 
ATOM     10  N   UNL     1       6.657   2.656  11.919  0.00  0.00    +0.000 NA
ATOM     11  N   UNL     1       5.762   4.173  13.434  0.00  0.00    +0.000 N 
ATOM     12  H   UNL     1       6.392   2.104  11.098  0.00  0.00    +0.000 HD
ATOM     13  H   UNL     1       4.936   4.620  13.810  0.00  0.00    +0.000 HD
ENDBRANCH   7  11
ENDBRANCH   1   7
BRANCH   5  14
ATOM     14  C   UNL     1       3.887   6.783  17.339  0.00  0.00    +0.000 C 
BRANCH  14  15
ATOM     15  N   UNL     1       3.385   6.565  18.676  0.00  0.00    +0.000 N 
ATOM     16  C   UNL     1       2.513   5.518  18.914  0.00  0.00    +0.000 C 
ATOM     17  O   UNL     1       2.101   4.780  18.025  0.00  0.00    +0.000 OA
ATOM     18  H   UNL     1       3.872   6.990  19.453  0.00  0.00    +0.000 HD
BRANCH  16  19
ATOM     19  C   UNL     1       2.088   5.389  20.394  0.00  0.00    +0.000 C 
BRANCH  19  20
ATOM     20  N   UNL     1       1.649   6.717  20.877  0.00  0.00    +0.000 NA
ATOM     21  H   UNL     1       1.832   6.775  21.881  0.00  0.00    +0.000 HD
ATOM     22  H   UNL     1       0.637   6.801  20.778  0.00  0.00    +0.000 HD
ENDBRANCH  19  20
BRANCH  19  23
ATOM     23  C   UNL     1       0.998   4.305  20.528  0.00  0.00    +0.000 C 
BRANCH  23  24
ATOM     24  S   UNL     1       1.575   2.770  21.331  0.00  0.00    +0.000 S 
ATOM     25  H   UNL     1       1.246   1.935  20.336  0.00  0.00    +0.000 HD
ENDBRANCH  23  24
ENDBRANCH  19  23
ENDBRANCH  16  19
ENDBRANCH  14  15
ENDBRANCH   5  14
TORSDOF 8
ENDMDL
MODEL 5
REMARK VINA RESULT:      -6.4      3.906      7.410
REMARK  Name = 
REMARK  9 active torsions:
REMARK  status: ('A' for Active; 'I' for Inactive)
REMARK    1  A    between atoms: C_1  and  C_2
REMARK    2  A    between atoms: N_4  and  C_5
REMARK    3  A    between atoms: C_5  and  C_6
REMARK    4  A    between atoms: C_10  and  C_11
REMARK    5  A    between atoms: C_11  and  N_12
REMARK    6  A    between atoms: C_13  and  C_15
REMARK    7  A    between atoms: C_15  and  N_16
REMARK    8  A    between atoms: C_15  and  C_17
REMARK    9  A    between atoms: C_17  and  S_18
REMARK                            x       y       z     vdW  Elec       q    Type
REMARK                         _______ _______ _______ _____ _____    ______ ____
ROOT
ATOM      1  C   UNL     1       5.734   4.819  15.520  0.00  0.00    +0.000 A 
ATOM      2  C   UNL     1       5.227   6.118  15.370  0.00  0.00    +0.000 A 
ATOM      3  C   UNL     1       4.765   6.827  16.479  0.00  0.00    +0.000 A 
ATOM      4  C   UNL     1       4.803   6.248  17.747  0.00  0.00    +0.000 A 
ATOM      5  C   UNL     1       5.302   4.949  17.921  0.00  0.00    +0.000 A 
ATOM      6  C   UNL     1       5.738   4.233  16.795  0.00  0.00    +0.000 A 
ENDROOT
BRANCH   1   7
ATOM      7  C   UNL     1       6.270   4.066  14.324  0.00  0.00    +0.000 C 
BRANCH   7  11
ATOM      8  C   UNL     1       4.248   3.131  11.219  0.00  0.00    +0.000 C 
ATOM      9  C   UNL     1       5.398   3.182  12.195  0.00  0.00    +0.000 C 
ATOM     10  N   UNL     1       6.476   2.502  11.975  0.00  0.00    +0.000 NA
ATOM     11  N   UNL     1       5.256   3.969  13.300  0.00  0.00    +0.000 N 
ATOM     12  H   UNL     1       6.403   1.974  11.101  0.00  0.00    +0.000 HD
ATOM     13  H   UNL     1       4.363   4.401  13.499  0.00  0.00    +0.000 HD
ENDBRANCH   7  11
ENDBRANCH   1   7
BRANCH   5  14
ATOM     14  C   UNL     1       5.387   4.345  19.296  0.00  0.00    +0.000 C 
BRANCH  14  15
ATOM     15  N   UNL     1       4.336   3.384  19.535  0.00  0.00    +0.000 N 
ATOM     16  C   UNL     1       3.168   3.790  20.156  0.00  0.00    +0.000 C 
ATOM     17  O   UNL     1       2.995   4.934  20.561  0.00  0.00    +0.000 OA
ATOM     18  H   UNL     1       4.345   2.515  19.018  0.00  0.00    +0.000 HD
BRANCH  16  19
ATOM     19  C   UNL     1       2.126   2.662  20.314  0.00  0.00    +0.000 C 
BRANCH  19  20
ATOM     20  N   UNL     1       1.655   2.645  21.718  0.00  0.00    +0.000 NA
ATOM     21  H   UNL     1       1.967   1.776  22.155  0.00  0.00    +0.000 HD
ATOM     22  H   UNL     1       0.636   2.611  21.737  0.00  0.00    +0.000 HD
ENDBRANCH  19  20
BRANCH  19  23
ATOM     23  C   UNL     1       0.984   2.864  19.296  0.00  0.00    +0.000 C 
BRANCH  23  24
ATOM     24  S   UNL     1       1.458   3.861  17.841  0.00  0.00    +0.000 S 
ATOM     25  H   UNL     1       0.776   4.965  18.174  0.00  0.00    +0.000 HD
ENDBRANCH  23  24
ENDBRANCH  19  23
ENDBRANCH  16  19
ENDBRANCH  14  15
ENDBRANCH   5  14
TORSDOF 8
ENDMDL
MODEL 6
REMARK VINA RESULT:      -6.4      3.506      7.320
REMARK  Name = 
REMARK  9 active torsions:
REMARK  status: ('A' for Active; 'I' for Inactive)
REMARK    1  A    between atoms: C_1  and  C_2
REMARK    2  A    between atoms: N_4  and  C_5
REMARK    3  A    between atoms: C_5  and  C_6
REMARK    4  A    between atoms: C_10  and  C_11
REMARK    5  A    between atoms: C_11  and  N_12
REMARK    6  A    between atoms: C_13  and  C_15
REMARK    7  A    between atoms: C_15  and  N_16
REMARK    8  A    between atoms: C_15  and  C_17
REMARK    9  A    between atoms: C_17  and  S_18
REMARK                            x       y       z     vdW  Elec       q    Type
REMARK                         _______ _______ _______ _____ _____    ______ ____
ROOT
ATOM      1  C   UNL     1       6.241   4.942  15.454  0.00  0.00    +0.000 A 
ATOM      2  C   UNL     1       7.263   5.700  16.040  0.00  0.00    +0.000 A 
ATOM      3  C   UNL     1       6.993   6.522  17.134  0.00  0.00    +0.000 A 
ATOM      4  C   UNL     1       5.701   6.596  17.654  0.00  0.00    +0.000 A 
ATOM      5  C   UNL     1       4.661   5.849  17.082  0.00  0.00    +0.000 A 
ATOM      6  C   UNL     1       4.937   5.047  15.963  0.00  0.00    +0.000 A 
ENDROOT
BRANCH   1   7
ATOM      7  C   UNL     1       6.541   4.022  14.293  0.00  0.00    +0.000 C 
BRANCH   7  11
ATOM      8  C   UNL     1       4.191   3.290  11.370  0.00  0.00    +0.000 C 
ATOM      9  C   UNL     1       5.427   3.248  12.235  0.00  0.00    +0.000 C 
ATOM     10  N   UNL     1       6.438   2.514  11.901  0.00  0.00    +0.000 NA
ATOM     11  N   UNL     1       5.433   4.012  13.366  0.00  0.00    +0.000 N 
ATOM     12  H   UNL     1       6.254   2.015  11.026  0.00  0.00    +0.000 HD
ATOM     13  H   UNL     1       4.590   4.488  13.657  0.00  0.00    +0.000 HD
ENDBRANCH   7  11
ENDBRANCH   1   7
BRANCH   5  14
ATOM     14  C   UNL     1       3.279   5.892  17.674  0.00  0.00    +0.000 C 
BRANCH  14  15
ATOM     15  N   UNL     1       2.983   4.714  18.455  0.00  0.00    +0.000 N 
ATOM     16  C   UNL     1       1.874   3.948  18.141  0.00  0.00    +0.000 C 
ATOM     17  O   UNL     1       1.091   4.249  17.247  0.00  0.00    +0.000 OA
ATOM     18  H   UNL     1       3.714   4.315  19.028  0.00  0.00    +0.000 HD
BRANCH  16  19
ATOM     19  C   UNL     1       1.705   2.704  19.041  0.00  0.00    +0.000 C 
BRANCH  19  20
ATOM     20  N   UNL     1       2.197   1.518  18.305  0.00  0.00    +0.000 NA
ATOM     21  H   UNL     1       1.768   0.683  18.710  0.00  0.00    +0.000 HD
ATOM     22  H   UNL     1       3.199   1.411  18.457  0.00  0.00    +0.000 HD
ENDBRANCH  19  20
BRANCH  19  23
ATOM     23  C   UNL     1       2.435   2.931  20.381  0.00  0.00    +0.000 C 
BRANCH  23  24
ATOM     24  S   UNL     1       4.121   2.229  20.433  0.00  0.00    +0.000 S 
ATOM     25  H   UNL     1       4.146   1.780  19.171  0.00  0.00    +0.000 HD
ENDBRANCH  23  24
ENDBRANCH  19  23
ENDBRANCH  16  19
ENDBRANCH  14  15
ENDBRANCH   5  14
TORSDOF 8
ENDMDL
MODEL 7
REMARK VINA RESULT:      -6.4      3.098      7.292
REMARK  Name = 
REMARK  9 active torsions:
REMARK  status: ('A' for Active; 'I' for Inactive)
REMARK    1  A    between atoms: C_1  and  C_2
REMARK    2  A    between atoms: N_4  and  C_5
REMARK    3  A    between atoms: C_5  and  C_6
REMARK    4  A    between atoms: C_10  and  C_11
REMARK    5  A    between atoms: C_11  and  N_12
REMARK    6  A    between atoms: C_13  and  C_15
REMARK    7  A    between atoms: C_15  and  N_16
REMARK    8  A    between atoms: C_15  and  C_17
REMARK    9  A    between atoms: C_17  and  S_18
REMARK                            x       y       z     vdW  Elec       q    Type
REMARK                         _______ _______ _______ _____ _____    ______ ____
ROOT
ATOM      1  C   UNL     1       6.225   4.678  15.831  0.00  0.00    +0.000 A 
ATOM      2  C   UNL     1       6.920   5.373  16.830  0.00  0.00    +0.000 A 
ATOM      3  C   UNL     1       6.577   5.210  18.172  0.00  0.00    +0.000 A 
ATOM      4  C   UNL     1       5.537   4.352  18.530  0.00  0.00    +0.000 A 
ATOM      5  C   UNL     1       4.825   3.649  17.549  0.00  0.00    +0.000 A 
ATOM      6  C   UNL     1       5.159   3.842  16.198  0.00  0.00    +0.000 A 
ENDROOT
BRANCH   1   7
ATOM      7  C   UNL     1       6.622   4.826  14.380  0.00  0.00    +0.000 C 
BRANCH   7  11
ATOM      8  C   UNL     1       5.538   2.457  11.583  0.00  0.00    +0.000 C 
ATOM      9  C   UNL     1       6.324   3.521  12.310  0.00  0.00    +0.000 C 
ATOM     10  N   UNL     1       7.335   4.093  11.741  0.00  0.00    +0.000 NA
ATOM     11  N   UNL     1       5.924   3.853  13.571  0.00  0.00    +0.000 N 
ATOM     12  H   UNL     1       7.486   3.719  10.800  0.00  0.00    +0.000 HD
ATOM     13  H   UNL     1       5.200   3.313  14.028  0.00  0.00    +0.000 HD
ENDBRANCH   7  11
ENDBRANCH   1   7
BRANCH   5  14
ATOM     14  C   UNL     1       3.737   2.688  17.941  0.00  0.00    +0.000 C 
BRANCH  14  15
ATOM     15  N   UNL     1       2.955   3.174  19.053  0.00  0.00    +0.000 N 
ATOM     16  C   UNL     1       1.714   3.739  18.820  0.00  0.00    +0.000 C 
ATOM     17  O   UNL     1       1.255   3.893  17.693  0.00  0.00    +0.000 OA
ATOM     18  H   UNL     1       3.187   2.858  19.986  0.00  0.00    +0.000 HD
BRANCH  16  19
ATOM     19  C   UNL     1       0.982   4.183  20.106  0.00  0.00    +0.000 C 
BRANCH  19  20
ATOM     20  N   UNL     1       0.803   3.002  20.980  0.00  0.00    +0.000 NA
ATOM     21  H   UNL     1       0.747   3.320  21.949  0.00  0.00    +0.000 HD
ATOM     22  H   UNL     1       1.634   2.412  20.934  0.00  0.00    +0.000 HD
ENDBRANCH  19  20
BRANCH  19  23
ATOM     23  C   UNL     1       1.770   5.323  20.784  0.00  0.00    +0.000 C 
BRANCH  23  24
ATOM     24  S   UNL     1       2.392   6.587  19.620  0.00  0.00    +0.000 S 
ATOM     25  H   UNL     1       1.195   7.046  19.229  0.00  0.00    +0.000 HD
ENDBRANCH  23  24
ENDBRANCH  19  23
ENDBRANCH  16  19
ENDBRANCH  14  15
ENDBRANCH   5  14
TORSDOF 8
ENDMDL
MODEL 8
REMARK VINA RESULT:      -6.4      1.154      1.400
REMARK  Name = 
REMARK  9 active torsions:
REMARK  status: ('A' for Active; 'I' for Inactive)
REMARK    1  A    between atoms: C_1  and  C_2
REMARK    2  A    between atoms: N_4  and  C_5
REMARK    3  A    between atoms: C_5  and  C_6
REMARK    4  A    between atoms: C_10  and  C_11
REMARK    5  A    between atoms: C_11  and  N_12
REMARK    6  A    between atoms: C_13  and  C_15
REMARK    7  A    between atoms: C_15  and  N_16
REMARK    8  A    between atoms: C_15  and  C_17
REMARK    9  A    between atoms: C_17  and  S_18
REMARK                            x       y       z     vdW  Elec       q    Type
REMARK                         _______ _______ _______ _____ _____    ______ ____
ROOT
ATOM      1  C   UNL     1       2.082   5.379  19.945  0.00  0.00    +0.000 A 
ATOM      2  C   UNL     1       1.504   4.392  20.755  0.00  0.00    +0.000 A 
ATOM      3  C   UNL     1       1.585   3.047  20.395  0.00  0.00    +0.000 A 
ATOM      4  C   UNL     1       2.244   2.674  19.223  0.00  0.00    +0.000 A 
ATOM      5  C   UNL     1       2.827   3.644  18.396  0.00  0.00    +0.000 A 
ATOM      6  C   UNL     1       2.714   4.997  18.752  0.00  0.00    +0.000 A 
ENDROOT
BRANCH   1   7
ATOM      7  C   UNL     1       2.026   6.833  20.355  0.00  0.00    +0.000 C 
BRANCH   7  11
ATOM      8  C   UNL     1       1.923   9.717  17.849  0.00  0.00    +0.000 C 
ATOM      9  C   UNL     1       1.613   8.902  19.082  0.00  0.00    +0.000 C 
ATOM     10  N   UNL     1       0.800   9.355  19.980  0.00  0.00    +0.000 NA
ATOM     11  N   UNL     1       2.213   7.683  19.202  0.00  0.00    +0.000 N 
ATOM     12  H   UNL     1       0.447  10.281  19.720  0.00  0.00    +0.000 HD
ATOM     13  H   UNL     1       2.925   7.405  18.540  0.00  0.00    +0.000 HD
ENDBRANCH   7  11
ENDBRANCH   1   7
BRANCH   5  14
ATOM     14  C   UNL     1       3.579   3.235  17.159  0.00  0.00    +0.000 C 
BRANCH  14  15
ATOM     15  N   UNL     1       4.985   3.554  17.245  0.00  0.00    +0.000 N 
ATOM     16  C   UNL     1       5.626   4.111  16.153  0.00  0.00    +0.000 C 
ATOM     17  O   UNL     1       5.063   4.309  15.081  0.00  0.00    +0.000 OA
ATOM     18  H   UNL     1       5.412   3.625  18.159  0.00  0.00    +0.000 HD
BRANCH  16  19
ATOM     19  C   UNL     1       7.117   4.428  16.404  0.00  0.00    +0.000 C 
BRANCH  19  20
ATOM     20  N   UNL     1       7.576   5.389  15.375  0.00  0.00    +0.000 NA
ATOM     21  H   UNL     1       8.494   5.090  15.038  0.00  0.00    +0.000 HD
ATOM     22  H   UNL     1       7.726   6.302  15.802  0.00  0.00    +0.000 HD
ENDBRANCH  19  20
BRANCH  19  23
ATOM     23  C   UNL     1       7.301   4.950  17.844  0.00  0.00    +0.000 C 
BRANCH  23  24
ATOM     24  S   UNL     1       7.501   6.762  17.955  0.00  0.00    +0.000 S 
ATOM     25  H   UNL     1       8.819   6.763  18.199  0.00  0.00    +0.000 HD
ENDBRANCH  23  24
ENDBRANCH  19  23
ENDBRANCH  16  19
ENDBRANCH  14  15
ENDBRANCH   5  14
TORSDOF 8
ENDMDL
MODEL 9
REMARK VINA RESULT:      -6.3      4.464      6.231
REMARK  Name = 
REMARK  9 active torsions:
REMARK  status: ('A' for Active; 'I' for Inactive)
REMARK    1  A    between atoms: C_1  and  C_2
REMARK    2  A    between atoms: N_4  and  C_5
REMARK    3  A    between atoms: C_5  and  C_6
REMARK    4  A    between atoms: C_10  and  C_11
REMARK    5  A    between atoms: C_11  and  N_12
REMARK    6  A    between atoms: C_13  and  C_15
REMARK    7  A    between atoms: C_15  and  N_16
REMARK    8  A    between atoms: C_15  and  C_17
REMARK    9  A    between atoms: C_17  and  S_18
REMARK                            x       y       z     vdW  Elec       q    Type
REMARK                         _______ _______ _______ _____ _____    ______ ____
ROOT
ATOM      1  C   UNL     1       7.624   7.506  17.841  0.00  0.00    +0.000 A 
ATOM      2  C   UNL     1       8.234   6.798  18.886  0.00  0.00    +0.000 A 
ATOM      3  C   UNL     1       7.975   5.439  19.062  0.00  0.00    +0.000 A 
ATOM      4  C   UNL     1       7.106   4.772  18.199  0.00  0.00    +0.000 A 
ATOM      5  C   UNL     1       6.482   5.460  17.149  0.00  0.00    +0.000 A 
ATOM      6  C   UNL     1       6.726   6.834  16.997  0.00  0.00    +0.000 A 
ENDROOT
BRANCH   1   7
ATOM      7  C   UNL     1       7.933   8.969  17.627  0.00  0.00    +0.000 C 
BRANCH   7  11
ATOM      8  C   UNL     1      10.036  11.160  19.947  0.00  0.00    +0.000 C 
ATOM      9  C   UNL     1       9.187  10.760  18.765  0.00  0.00    +0.000 C 
ATOM     10  N   UNL     1       8.871  11.629  17.861  0.00  0.00    +0.000 NA
ATOM     11  N   UNL     1       8.781   9.460  18.688  0.00  0.00    +0.000 N 
ATOM     12  H   UNL     1       9.263  12.548  18.083  0.00  0.00    +0.000 HD
ATOM     13  H   UNL     1       8.953   8.832  19.463  0.00  0.00    +0.000 HD
ENDBRANCH   7  11
ENDBRANCH   1   7
BRANCH   5  14
ATOM     14  C   UNL     1       5.583   4.728  16.189  0.00  0.00    +0.000 C 
BRANCH  14  15
ATOM     15  N   UNL     1       5.022   3.532  16.772  0.00  0.00    +0.000 N 
ATOM     16  C   UNL     1       3.768   3.581  17.355  0.00  0.00    +0.000 C 
ATOM     17  O   UNL     1       3.117   4.616  17.444  0.00  0.00    +0.000 OA
ATOM     18  H   UNL     1       5.414   2.636  16.514  0.00  0.00    +0.000 HD
BRANCH  16  19
ATOM     19  C   UNL     1       3.287   2.220  17.905  0.00  0.00    +0.000 C 
BRANCH  19  20
ATOM     20  N   UNL     1       4.219   1.784  18.970  0.00  0.00    +0.000 NA
ATOM     21  H   UNL     1       3.831   0.952  19.420  0.00  0.00    +0.000 HD
ATOM     22  H   UNL     1       4.262   2.495  19.700  0.00  0.00    +0.000 HD
ENDBRANCH  19  20
BRANCH  19  23
ATOM     23  C   UNL     1       1.828   2.344  18.392  0.00  0.00    +0.000 C 
BRANCH  23  24
ATOM     24  S   UNL     1       1.668   2.618  20.191  0.00  0.00    +0.000 S 
ATOM     25  H   UNL     1       0.962   3.754  20.118  0.00  0.00    +0.000 HD
ENDBRANCH  23  24
ENDBRANCH  19  23
ENDBRANCH  16  19
ENDBRANCH  14  15
ENDBRANCH   5  14
TORSDOF 8
ENDMDL
