MODEL 1
REMARK VINA RESULT:      -7.7      0.000      0.000
REMARK  Name = 
REMARK  6 active torsions:
REMARK  status: ('A' for Active; 'I' for Inactive)
REMARK    1  A    between atoms: C_1  and  N_2
REMARK    2  A    between atoms: C_6  and  N_7
REMARK    3  A    between atoms: C_11  and  C_12
REMARK    4  A    between atoms: C_16  and  C_17
REMARK    5  A    between atoms: C_22  and  S_23
REMARK    6  A    between atoms: S_23  and  C_24
REMARK                            x       y       z     vdW  Elec       q    Type
REMARK                         _______ _______ _______ _____ _____    ______ ____
ROOT
ATOM      1  N   UNL     1       2.514   7.333  19.342  0.00  0.00    +0.000 N 
ATOM      2  C   UNL     1       1.687   8.213  20.036  0.00  0.00    +0.000 A 
ATOM      3  N   UNL     1       1.395   7.969  21.315  0.00  0.00    +0.000 NA
ATOM      4  C   UNL     1       0.659   8.885  21.964  0.00  0.00    +0.000 A 
ATOM      5  C   UNL     1       0.159  10.035  21.392  0.00  0.00    +0.000 A 
ATOM      6  C   UNL     1       0.457  10.194  20.054  0.00  0.00    +0.000 A 
ATOM      7  N   UNL     1       1.249   9.305  19.392  0.00  0.00    +0.000 NA
ATOM      8  H   UNL     1       3.456   7.712  19.411  0.00  0.00    +0.000 HD
ENDROOT
BRANCH   6   9
ATOM      9  C   UNL     1       0.020  11.342  19.236  0.00  0.00    +0.000 A 
ATOM     10  C   UNL     1      -0.977  11.310  18.276  0.00  0.00    +0.000 A 
ATOM     11  N   UNL     1      -1.199  12.582  17.819  0.00  0.00    +0.000 N 
ATOM     12  C   UNL     1      -0.283  13.445  18.364  0.00  0.00    +0.000 A 
ATOM     13  C   UNL     1      -0.128  14.822  18.166  0.00  0.00    +0.000 A 
ATOM     14  C   UNL     1       0.926  15.446  18.841  0.00  0.00    +0.000 A 
ATOM     15  C   UNL     1       1.779  14.734  19.683  0.00  0.00    +0.000 A 
ATOM     16  C   UNL     1       1.586  13.360  19.878  0.00  0.00    +0.000 A 
ATOM     17  C   UNL     1       0.529  12.692  19.219  0.00  0.00    +0.000 A 
ATOM     18  H   UNL     1      -1.921  12.849  17.162  0.00  0.00    +0.000 HD
BRANCH  14  19
ATOM     19  S   UNL     1       1.141  17.201  18.655  0.00  0.00    +0.000 S 
ATOM     20  C   UNL     1      -0.324  17.704  17.794  0.00  0.00    +0.000 C 
ATOM     21  O   UNL     1       1.114  17.792  19.978  0.00  0.00    +0.000 OA
ATOM     22  O   UNL     1       2.276  17.417  17.771  0.00  0.00    +0.000 OA
ENDBRANCH  14  19
ENDBRANCH   6   9
BRANCH   1  28
ATOM     23  C   UNL     1       5.644   4.350  18.329  0.00  0.00    +0.000 C 
ATOM     24  N   UNL     1       4.335   5.015  18.330  0.00  0.00    +0.000 NA
ATOM     25  C   UNL     1       3.361   4.195  17.594  0.00  0.00    +0.000 C 
ATOM     26  C   UNL     1       1.984   4.856  17.573  0.00  0.00    +0.000 C 
ATOM     27  C   UNL     1       1.475   5.153  18.983  0.00  0.00    +0.000 C 
ATOM     28  C   UNL     1       2.502   5.937  19.819  0.00  0.00    +0.000 C 
ATOM     29  C   UNL     1       3.883   5.235  19.722  0.00  0.00    +0.000 C 
ENDBRANCH   1  28
BRANCH   5  30
ATOM     30  C   UNL     1      -0.608  10.977  22.248  0.00  0.00    +0.000 C 
ATOM     31  F   UNL     1      -0.830  10.485  23.505  0.00  0.00    +0.000 F 
ATOM     32  F   UNL     1       0.004  12.174  22.450  0.00  0.00    +0.000 F 
ATOM     33  F   UNL     1      -1.854  11.249  21.769  0.00  0.00    +0.000 F 
ENDBRANCH   5  30
TORSDOF 4
ENDMDL
MODEL 2
REMARK VINA RESULT:      -7.6      0.643      1.077
REMARK  Name = 
REMARK  6 active torsions:
REMARK  status: ('A' for Active; 'I' for Inactive)
REMARK    1  A    between atoms: C_1  and  N_2
REMARK    2  A    between atoms: C_6  and  N_7
REMARK    3  A    between atoms: C_11  and  C_12
REMARK    4  A    between atoms: C_16  and  C_17
REMARK    5  A    between atoms: C_22  and  S_23
REMARK    6  A    between atoms: S_23  and  C_24
REMARK                            x       y       z     vdW  Elec       q    Type
REMARK                         _______ _______ _______ _____ _____    ______ ____
ROOT
ATOM      1  N   UNL     1       2.466   7.338  19.406  0.00  0.00    +0.000 N 
ATOM      2  C   UNL     1       1.633   8.221  20.089  0.00  0.00    +0.000 A 
ATOM      3  N   UNL     1       1.316   7.973  21.361  0.00  0.00    +0.000 NA
ATOM      4  C   UNL     1       0.575   8.892  22.000  0.00  0.00    +0.000 A 
ATOM      5  C   UNL     1       0.093  10.047  21.425  0.00  0.00    +0.000 A 
ATOM      6  C   UNL     1       0.417  10.211  20.093  0.00  0.00    +0.000 A 
ATOM      7  N   UNL     1       1.215   9.319  19.442  0.00  0.00    +0.000 NA
ATOM      8  H   UNL     1       3.410   7.710  19.494  0.00  0.00    +0.000 HD
ENDROOT
BRANCH   6   9
ATOM      9  C   UNL     1       0.004  11.366  19.273  0.00  0.00    +0.000 A 
ATOM     10  C   UNL     1      -1.001  11.355  18.322  0.00  0.00    +0.000 A 
ATOM     11  N   UNL     1      -1.194  12.630  17.860  0.00  0.00    +0.000 N 
ATOM     12  C   UNL     1      -0.251  13.471  18.392  0.00  0.00    +0.000 A 
ATOM     13  C   UNL     1      -0.061  14.843  18.185  0.00  0.00    +0.000 A 
ATOM     14  C   UNL     1       1.015  15.442  18.848  0.00  0.00    +0.000 A 
ATOM     15  C   UNL     1       1.856  14.712  19.687  0.00  0.00    +0.000 A 
ATOM     16  C   UNL     1       1.628  13.345  19.891  0.00  0.00    +0.000 A 
ATOM     17  C   UNL     1       0.548  12.702  19.244  0.00  0.00    +0.000 A 
ATOM     18  H   UNL     1      -1.914  12.913  17.207  0.00  0.00    +0.000 HD
BRANCH  14  19
ATOM     19  S   UNL     1       1.275  17.189  18.651  0.00  0.00    +0.000 S 
ATOM     20  C   UNL     1       1.502  17.760  20.314  0.00  0.00    +0.000 C 
ATOM     21  O   UNL     1       2.523  17.373  17.935  0.00  0.00    +0.000 OA
ATOM     22  O   UNL     1       0.040  17.766  18.144  0.00  0.00    +0.000 OA
ENDBRANCH  14  19
ENDBRANCH   6   9
BRANCH   1  28
ATOM     23  C   UNL     1       5.597   4.339  18.444  0.00  0.00    +0.000 C 
ATOM     24  N   UNL     1       4.293   5.013  18.420  0.00  0.00    +0.000 NA
ATOM     25  C   UNL     1       3.329   4.203  17.661  0.00  0.00    +0.000 C 
ATOM     26  C   UNL     1       1.957   4.873  17.615  0.00  0.00    +0.000 C 
ATOM     27  C   UNL     1       1.421   5.166  19.016  0.00  0.00    +0.000 C 
ATOM     28  C   UNL     1       2.436   5.940  19.876  0.00  0.00    +0.000 C 
ATOM     29  C   UNL     1       3.814   5.230  19.804  0.00  0.00    +0.000 C 
ENDBRANCH   1  28
BRANCH   5  30
ATOM     30  C   UNL     1      -0.682  10.991  22.271  0.00  0.00    +0.000 C 
ATOM     31  F   UNL     1      -1.886  11.329  21.717  0.00  0.00    +0.000 F 
ATOM     32  F   UNL     1      -0.994  10.510  23.504  0.00  0.00    +0.000 F 
ATOM     33  F   UNL     1      -0.054  12.185  22.462  0.00  0.00    +0.000 F 
ENDBRANCH   5  30
TORSDOF 4
ENDMDL
MODEL 3
REMARK VINA RESULT:      -7.5      1.615      2.116
REMARK  Name = 
REMARK  6 active torsions:
REMARK  status: ('A' for Active; 'I' for Inactive)
REMARK    1  A    between atoms: C_1  and  N_2
REMARK    2  A    between atoms: C_6  and  N_7
REMARK    3  A    between atoms: C_11  and  C_12
REMARK    4  A    between atoms: C_16  and  C_17
REMARK    5  A    between atoms: C_22  and  S_23
REMARK    6  A    between atoms: S_23  and  C_24
REMARK                            x       y       z     vdW  Elec       q    Type
REMARK                         _______ _______ _______ _____ _____    ______ ____
ROOT
ATOM      1  N   UNL     1       3.661   7.049  17.913  0.00  0.00    +0.000 N 
ATOM      2  C   UNL     1       2.709   7.545  18.799  0.00  0.00    +0.000 A 
ATOM      3  N   UNL     1       2.563   6.971  19.994  0.00  0.00    +0.000 NA
ATOM      4  C   UNL     1       1.688   7.532  20.844  0.00  0.00    +0.000 A 
ATOM      5  C   UNL     1       0.911   8.632  20.554  0.00  0.00    +0.000 A 
ATOM      6  C   UNL     1       1.077   9.141  19.281  0.00  0.00    +0.000 A 
ATOM      7  N   UNL     1       2.000   8.621  18.425  0.00  0.00    +0.000 NA
ATOM      8  H   UNL     1       4.500   7.609  18.050  0.00  0.00    +0.000 HD
ENDROOT
BRANCH   6   9
ATOM      9  C   UNL     1       0.346  10.307  18.750  0.00  0.00    +0.000 A 
ATOM     10  C   UNL     1      -0.779  10.249  17.946  0.00  0.00    +0.000 A 
ATOM     11  N   UNL     1      -1.260  11.518  17.758  0.00  0.00    +0.000 N 
ATOM     12  C   UNL     1      -0.406  12.433  18.318  0.00  0.00    +0.000 A 
ATOM     13  C   UNL     1      -0.492  13.831  18.350  0.00  0.00    +0.000 A 
ATOM     14  C   UNL     1       0.554  14.517  18.975  0.00  0.00    +0.000 A 
ATOM     15  C   UNL     1       1.630  13.844  19.552  0.00  0.00    +0.000 A 
ATOM     16  C   UNL     1       1.678  12.444  19.522  0.00  0.00    +0.000 A 
ATOM     17  C   UNL     1       0.638  11.711  18.905  0.00  0.00    +0.000 A 
ATOM     18  H   UNL     1      -2.112  11.753  17.265  0.00  0.00    +0.000 HD
BRANCH  14  19
ATOM     19  S   UNL     1       0.472  16.290  19.078  0.00  0.00    +0.000 S 
ATOM     20  C   UNL     1       2.007  16.814  18.365  0.00  0.00    +0.000 C 
ATOM     21  O   UNL     1      -0.604  16.734  18.213  0.00  0.00    +0.000 OA
ATOM     22  O   UNL     1       0.486  16.652  20.487  0.00  0.00    +0.000 OA
ENDBRANCH  14  19
ENDBRANCH   6   9
BRANCH   1  28
ATOM     23  C   UNL     1       7.662   5.541  19.113  0.00  0.00    +0.000 C 
ATOM     24  N   UNL     1       6.508   5.825  18.252  0.00  0.00    +0.000 NA
ATOM     25  C   UNL     1       6.686   5.167  16.950  0.00  0.00    +0.000 C 
ATOM     26  C   UNL     1       5.502   5.440  16.024  0.00  0.00    +0.000 C 
ATOM     27  C   UNL     1       4.177   5.019  16.658  0.00  0.00    +0.000 C 
ATOM     28  C   UNL     1       3.988   5.618  18.063  0.00  0.00    +0.000 C 
ATOM     29  C   UNL     1       5.265   5.357  18.906  0.00  0.00    +0.000 C 
ENDBRANCH   1  28
BRANCH   5  30
ATOM     30  C   UNL     1       0.014   9.166  21.612  0.00  0.00    +0.000 C 
ATOM     31  F   UNL     1      -0.848   8.222  22.098  0.00  0.00    +0.000 F 
ATOM     32  F   UNL     1       0.663   9.638  22.709  0.00  0.00    +0.000 F 
ATOM     33  F   UNL     1      -0.798  10.169  21.174  0.00  0.00    +0.000 F 
ENDBRANCH   5  30
TORSDOF 4
ENDMDL
MODEL 4
REMARK VINA RESULT:      -7.5      1.704      2.328
REMARK  Name = 
REMARK  6 active torsions:
REMARK  status: ('A' for Active; 'I' for Inactive)
REMARK    1  A    between atoms: C_1  and  N_2
REMARK    2  A    between atoms: C_6  and  N_7
REMARK    3  A    between atoms: C_11  and  C_12
REMARK    4  A    between atoms: C_16  and  C_17
REMARK    5  A    between atoms: C_22  and  S_23
REMARK    6  A    between atoms: S_23  and  C_24
REMARK                            x       y       z     vdW  Elec       q    Type
REMARK                         _______ _______ _______ _____ _____    ______ ____
ROOT
ATOM      1  N   UNL     1       3.804   7.106  17.675  0.00  0.00    +0.000 N 
ATOM      2  C   UNL     1       2.848   7.528  18.595  0.00  0.00    +0.000 A 
ATOM      3  N   UNL     1       2.731   6.887  19.759  0.00  0.00    +0.000 NA
ATOM      4  C   UNL     1       1.849   7.378  20.646  0.00  0.00    +0.000 A 
ATOM      5  C   UNL     1       1.038   8.469  20.421  0.00  0.00    +0.000 A 
ATOM      6  C   UNL     1       1.177   9.048  19.176  0.00  0.00    +0.000 A 
ATOM      7  N   UNL     1       2.105   8.601  18.284  0.00  0.00    +0.000 NA
ATOM      8  H   UNL     1       4.628   7.682  17.834  0.00  0.00    +0.000 HD
ENDROOT
BRANCH   6   9
ATOM      9  C   UNL     1       0.408  10.219  18.714  0.00  0.00    +0.000 A 
ATOM     10  C   UNL     1      -0.802  10.170  18.042  0.00  0.00    +0.000 A 
ATOM     11  N   UNL     1      -1.283  11.444  17.892  0.00  0.00    +0.000 N 
ATOM     12  C   UNL     1      -0.357  12.352  18.338  0.00  0.00    +0.000 A 
ATOM     13  C   UNL     1      -0.418  13.751  18.359  0.00  0.00    +0.000 A 
ATOM     14  C   UNL     1       0.702  14.428  18.851  0.00  0.00    +0.000 A 
ATOM     15  C   UNL     1       1.827  13.745  19.312  0.00  0.00    +0.000 A 
ATOM     16  C   UNL     1       1.851  12.344  19.298  0.00  0.00    +0.000 A 
ATOM     17  C   UNL     1       0.737  11.621  18.814  0.00  0.00    +0.000 A 
ATOM     18  H   UNL     1      -2.181  11.686  17.495  0.00  0.00    +0.000 HD
BRANCH  14  19
ATOM     19  S   UNL     1       0.659  16.203  18.937  0.00  0.00    +0.000 S 
ATOM     20  C   UNL     1       0.832  16.534  20.670  0.00  0.00    +0.000 C 
ATOM     21  O   UNL     1       1.838  16.707  18.260  0.00  0.00    +0.000 OA
ATOM     22  O   UNL     1      -0.669  16.633  18.529  0.00  0.00    +0.000 OA
ENDBRANCH  14  19
ENDBRANCH   6   9
BRANCH   1  28
ATOM     23  C   UNL     1       7.683   5.632  19.257  0.00  0.00    +0.000 C 
ATOM     24  N   UNL     1       6.636   5.953  18.279  0.00  0.00    +0.000 NA
ATOM     25  C   UNL     1       7.008   5.419  16.961  0.00  0.00    +0.000 C 
ATOM     26  C   UNL     1       5.940   5.734  15.915  0.00  0.00    +0.000 C 
ATOM     27  C   UNL     1       4.565   5.214  16.333  0.00  0.00    +0.000 C 
ATOM     28  C   UNL     1       4.173   5.680  17.746  0.00  0.00    +0.000 C 
ATOM     29  C   UNL     1       5.343   5.388  18.724  0.00  0.00    +0.000 C 
ENDBRANCH   1  28
BRANCH   5  30
ATOM     30  C   UNL     1       0.138   8.920  21.513  0.00  0.00    +0.000 C 
ATOM     31  F   UNL     1       0.756   8.935  22.733  0.00  0.00    +0.000 F 
ATOM     32  F   UNL     1      -0.343  10.182  21.356  0.00  0.00    +0.000 F 
ATOM     33  F   UNL     1      -0.941   8.108  21.694  0.00  0.00    +0.000 F 
ENDBRANCH   5  30
TORSDOF 4
ENDMDL
MODEL 5
REMARK VINA RESULT:      -7.3      1.524      2.125
REMARK  Name = 
REMARK  6 active torsions:
REMARK  status: ('A' for Active; 'I' for Inactive)
REMARK    1  A    between atoms: C_1  and  N_2
REMARK    2  A    between atoms: C_6  and  N_7
REMARK    3  A    between atoms: C_11  and  C_12
REMARK    4  A    between atoms: C_16  and  C_17
REMARK    5  A    between atoms: C_22  and  S_23
REMARK    6  A    between atoms: S_23  and  C_24
REMARK                            x       y       z     vdW  Elec       q    Type
REMARK                         _______ _______ _______ _____ _____    ______ ____
ROOT
ATOM      1  N   UNL     1       3.698   7.237  17.750  0.00  0.00    +0.000 N 
ATOM      2  C   UNL     1       2.738   7.686  18.653  0.00  0.00    +0.000 A 
ATOM      3  N   UNL     1       2.569   7.037  19.806  0.00  0.00    +0.000 NA
ATOM      4  C   UNL     1       1.687   7.553  20.679  0.00  0.00    +0.000 A 
ATOM      5  C   UNL     1       0.926   8.678  20.449  0.00  0.00    +0.000 A 
ATOM      6  C   UNL     1       1.117   9.266  19.214  0.00  0.00    +0.000 A 
ATOM      7  N   UNL     1       2.046   8.791  18.339  0.00  0.00    +0.000 NA
ATOM      8  H   UNL     1       4.540   7.778  17.935  0.00  0.00    +0.000 HD
ENDROOT
BRANCH   6   9
ATOM      9  C   UNL     1       0.405  10.471  18.749  0.00  0.00    +0.000 A 
ATOM     10  C   UNL     1      -0.742  10.477  17.975  0.00  0.00    +0.000 A 
ATOM     11  N   UNL     1      -1.191  11.765  17.850  0.00  0.00    +0.000 N 
ATOM     12  C   UNL     1      -0.296  12.633  18.420  0.00  0.00    +0.000 A 
ATOM     13  C   UNL     1      -0.341  14.030  18.509  0.00  0.00    +0.000 A 
ATOM     14  C   UNL     1       0.741  14.662  19.130  0.00  0.00    +0.000 A 
ATOM     15  C   UNL     1       1.812  13.937  19.651  0.00  0.00    +0.000 A 
ATOM     16  C   UNL     1       1.819  12.539  19.566  0.00  0.00    +0.000 A 
ATOM     17  C   UNL     1       0.742  11.860  18.950  0.00  0.00    +0.000 A 
ATOM     18  H   UNL     1      -2.049  12.043  17.390  0.00  0.00    +0.000 HD
BRANCH  14  19
ATOM     19  S   UNL     1       0.713  16.431  19.305  0.00  0.00    +0.000 S 
ATOM     20  C   UNL     1      -0.560  16.934  18.178  0.00  0.00    +0.000 C 
ATOM     21  O   UNL     1       0.271  16.736  20.652  0.00  0.00    +0.000 OA
ATOM     22  O   UNL     1       1.979  16.945  18.808  0.00  0.00    +0.000 OA
ENDBRANCH  14  19
ENDBRANCH   6   9
BRANCH   1  28
ATOM     23  C   UNL     1       7.506   5.594  19.338  0.00  0.00    +0.000 C 
ATOM     24  N   UNL     1       6.478   5.964  18.358  0.00  0.00    +0.000 NA
ATOM     25  C   UNL     1       6.834   5.425  17.038  0.00  0.00    +0.000 C 
ATOM     26  C   UNL     1       5.785   5.791  15.989  0.00  0.00    +0.000 C 
ATOM     27  C   UNL     1       4.388   5.325  16.397  0.00  0.00    +0.000 C 
ATOM     28  C   UNL     1       4.008   5.796  17.812  0.00  0.00    +0.000 C 
ATOM     29  C   UNL     1       5.160   5.449  18.793  0.00  0.00    +0.000 C 
ENDBRANCH   1  28
BRANCH   5  30
ATOM     30  C   UNL     1       0.020   9.153  21.526  0.00  0.00    +0.000 C 
ATOM     31  F   UNL     1      -0.779  10.188  21.124  0.00  0.00    +0.000 F 
ATOM     32  F   UNL     1      -0.844   8.210  21.987  0.00  0.00    +0.000 F 
ATOM     33  F   UNL     1       0.682   9.642  22.612  0.00  0.00    +0.000 F 
ENDBRANCH   5  30
TORSDOF 4
ENDMDL
MODEL 6
REMARK VINA RESULT:      -7.2      4.745      8.835
REMARK  Name = 
REMARK  6 active torsions:
REMARK  status: ('A' for Active; 'I' for Inactive)
REMARK    1  A    between atoms: C_1  and  N_2
REMARK    2  A    between atoms: C_6  and  N_7
REMARK    3  A    between atoms: C_11  and  C_12
REMARK    4  A    between atoms: C_16  and  C_17
REMARK    5  A    between atoms: C_22  and  S_23
REMARK    6  A    between atoms: S_23  and  C_24
REMARK                            x       y       z     vdW  Elec       q    Type
REMARK                         _______ _______ _______ _____ _____    ______ ____
ROOT
ATOM      1  N   UNL     1       1.881  14.697  19.767  0.00  0.00    +0.000 N 
ATOM      2  C   UNL     1       1.014  13.665  19.417  0.00  0.00    +0.000 A 
ATOM      3  N   UNL     1      -0.040  13.927  18.643  0.00  0.00    +0.000 NA
ATOM      4  C   UNL     1      -0.802  12.887  18.268  0.00  0.00    +0.000 A 
ATOM      5  C   UNL     1      -0.590  11.582  18.655  0.00  0.00    +0.000 A 
ATOM      6  C   UNL     1       0.488  11.394  19.497  0.00  0.00    +0.000 A 
ATOM      7  N   UNL     1       1.306  12.427  19.844  0.00  0.00    +0.000 NA
ATOM      8  H   UNL     1       2.639  14.676  19.088  0.00  0.00    +0.000 HD
ENDROOT
BRANCH   6   9
ATOM      9  C   UNL     1       0.897  10.086  20.043  0.00  0.00    +0.000 A 
ATOM     10  C   UNL     1       0.713   9.670  21.351  0.00  0.00    +0.000 A 
ATOM     11  N   UNL     1       1.094   8.358  21.461  0.00  0.00    +0.000 N 
ATOM     12  C   UNL     1       1.648   7.929  20.283  0.00  0.00    +0.000 A 
ATOM     13  C   UNL     1       2.183   6.678  19.952  0.00  0.00    +0.000 A 
ATOM     14  C   UNL     1       2.711   6.533  18.666  0.00  0.00    +0.000 A 
ATOM     15  C   UNL     1       2.698   7.581  17.746  0.00  0.00    +0.000 A 
ATOM     16  C   UNL     1       2.137   8.815  18.098  0.00  0.00    +0.000 A 
ATOM     17  C   UNL     1       1.586   9.002  19.387  0.00  0.00    +0.000 A 
ATOM     18  H   UNL     1       0.999   7.790  22.293  0.00  0.00    +0.000 HD
BRANCH  14  19
ATOM     19  S   UNL     1       3.366   4.951  18.184  0.00  0.00    +0.000 S 
ATOM     20  C   UNL     1       1.923   4.040  17.704  0.00  0.00    +0.000 C 
ATOM     21  O   UNL     1       4.186   5.153  17.005  0.00  0.00    +0.000 OA
ATOM     22  O   UNL     1       3.919   4.321  19.371  0.00  0.00    +0.000 OA
ENDBRANCH  14  19
ENDBRANCH   6   9
BRANCH   1  28
ATOM     23  C   UNL     1       4.095  18.347  20.992  0.00  0.00    +0.000 C 
ATOM     24  N   UNL     1       3.132  17.241  21.063  0.00  0.00    +0.000 NA
ATOM     25  C   UNL     1       2.258  17.418  22.232  0.00  0.00    +0.000 C 
ATOM     26  C   UNL     1       1.241  16.284  22.339  0.00  0.00    +0.000 C 
ATOM     27  C   UNL     1       0.407  16.147  21.066  0.00  0.00    +0.000 C 
ATOM     28  C   UNL     1       1.284  16.045  19.805  0.00  0.00    +0.000 C 
ATOM     29  C   UNL     1       2.332  17.190  19.819  0.00  0.00    +0.000 C 
ENDBRANCH   1  28
BRANCH   5  30
ATOM     30  C   UNL     1      -1.496  10.529  18.127  0.00  0.00    +0.000 C 
ATOM     31  F   UNL     1      -0.910   9.770  17.151  0.00  0.00    +0.000 F 
ATOM     32  F   UNL     1      -1.913   9.631  19.058  0.00  0.00    +0.000 F 
ATOM     33  F   UNL     1      -2.617  11.030  17.535  0.00  0.00    +0.000 F 
ENDBRANCH   5  30
TORSDOF 4
ENDMDL
MODEL 7
REMARK VINA RESULT:      -7.2      1.009      1.308
REMARK  Name = 
REMARK  6 active torsions:
REMARK  status: ('A' for Active; 'I' for Inactive)
REMARK    1  A    between atoms: C_1  and  N_2
REMARK    2  A    between atoms: C_6  and  N_7
REMARK    3  A    between atoms: C_11  and  C_12
REMARK    4  A    between atoms: C_16  and  C_17
REMARK    5  A    between atoms: C_22  and  S_23
REMARK    6  A    between atoms: S_23  and  C_24
REMARK                            x       y       z     vdW  Elec       q    Type
REMARK                         _______ _______ _______ _____ _____    ______ ____
ROOT
ATOM      1  N   UNL     1       2.858   6.855  19.024  0.00  0.00    +0.000 N 
ATOM      2  C   UNL     1       2.032   7.673  19.791  0.00  0.00    +0.000 A 
ATOM      3  N   UNL     1       1.844   7.390  21.080  0.00  0.00    +0.000 NA
ATOM      4  C   UNL     1       1.103   8.250  21.798  0.00  0.00    +0.000 A 
ATOM      5  C   UNL     1       0.500   9.379  21.286  0.00  0.00    +0.000 A 
ATOM      6  C   UNL     1       0.696   9.579  19.934  0.00  0.00    +0.000 A 
ATOM      7  N   UNL     1       1.490   8.749  19.202  0.00  0.00    +0.000 NA
ATOM      8  H   UNL     1       3.780   7.287  19.036  0.00  0.00    +0.000 HD
ENDROOT
BRANCH   6   9
ATOM      9  C   UNL     1       0.139  10.714  19.174  0.00  0.00    +0.000 A 
ATOM     10  C   UNL     1      -0.888  10.633  18.250  0.00  0.00    +0.000 A 
ATOM     11  N   UNL     1      -1.227  11.897  17.845  0.00  0.00    +0.000 N 
ATOM     12  C   UNL     1      -0.361  12.812  18.385  0.00  0.00    +0.000 A 
ATOM     13  C   UNL     1      -0.321  14.203  18.230  0.00  0.00    +0.000 A 
ATOM     14  C   UNL     1       0.707  14.887  18.887  0.00  0.00    +0.000 A 
ATOM     15  C   UNL     1       1.645  14.219  19.673  0.00  0.00    +0.000 A 
ATOM     16  C   UNL     1       1.567  12.829  19.827  0.00  0.00    +0.000 A 
ATOM     17  C   UNL     1       0.540  12.100  19.184  0.00  0.00    +0.000 A 
ATOM     18  H   UNL     1      -1.993  12.127  17.224  0.00  0.00    +0.000 HD
BRANCH  14  19
ATOM     19  S   UNL     1       0.777  16.658  18.754  0.00  0.00    +0.000 S 
ATOM     20  C   UNL     1       2.311  16.946  17.914  0.00  0.00    +0.000 C 
ATOM     21  O   UNL     1      -0.302  17.079  17.881  0.00  0.00    +0.000 OA
ATOM     22  O   UNL     1       0.895  17.199  20.099  0.00  0.00    +0.000 OA
ENDBRANCH  14  19
ENDBRANCH   6   9
BRANCH   1  28
ATOM     23  C   UNL     1       5.183   3.740  16.876  0.00  0.00    +0.000 C 
ATOM     24  N   UNL     1       4.015   4.469  17.385  0.00  0.00    +0.000 NA
ATOM     25  C   UNL     1       2.790   3.713  17.089  0.00  0.00    +0.000 C 
ATOM     26  C   UNL     1       1.550   4.442  17.605  0.00  0.00    +0.000 C 
ATOM     27  C   UNL     1       1.647   4.736  19.102  0.00  0.00    +0.000 C 
ATOM     28  C   UNL     1       2.959   5.453  19.470  0.00  0.00    +0.000 C 
ATOM     29  C   UNL     1       4.153   4.685  18.843  0.00  0.00    +0.000 C 
ENDBRANCH   1  28
BRANCH   5  30
ATOM     30  C   UNL     1      -0.258  10.259  22.212  0.00  0.00    +0.000 C 
ATOM     31  F   UNL     1      -1.505  10.568  21.744  0.00  0.00    +0.000 F 
ATOM     32  F   UNL     1      -0.475   9.723  23.442  0.00  0.00    +0.000 F 
ATOM     33  F   UNL     1       0.335  11.470  22.411  0.00  0.00    +0.000 F 
ENDBRANCH   5  30
TORSDOF 4
ENDMDL
MODEL 8
REMARK VINA RESULT:      -7.2      4.697      8.783
REMARK  Name = 
REMARK  6 active torsions:
REMARK  status: ('A' for Active; 'I' for Inactive)
REMARK    1  A    between atoms: C_1  and  N_2
REMARK    2  A    between atoms: C_6  and  N_7
REMARK    3  A    between atoms: C_11  and  C_12
REMARK    4  A    between atoms: C_16  and  C_17
REMARK    5  A    between atoms: C_22  and  S_23
REMARK    6  A    between atoms: S_23  and  C_24
REMARK                            x       y       z     vdW  Elec       q    Type
REMARK                         _______ _______ _______ _____ _____    ______ ____
ROOT
ATOM      1  N   UNL     1       1.619  14.565  19.345  0.00  0.00    +0.000 N 
ATOM      2  C   UNL     1       0.776  13.497  19.051  0.00  0.00    +0.000 A 
ATOM      3  N   UNL     1      -0.327  13.710  18.332  0.00  0.00    +0.000 NA
ATOM      4  C   UNL     1      -1.068  12.638  18.008  0.00  0.00    +0.000 A 
ATOM      5  C   UNL     1      -0.786  11.346  18.396  0.00  0.00    +0.000 A 
ATOM      6  C   UNL     1       0.341  11.209  19.182  0.00  0.00    +0.000 A 
ATOM      7  N   UNL     1       1.136  12.276  19.474  0.00  0.00    +0.000 NA
ATOM      8  H   UNL     1       2.341  14.565  18.627  0.00  0.00    +0.000 HD
ENDROOT
BRANCH   6   9
ATOM      9  C   UNL     1       0.829   9.924  19.718  0.00  0.00    +0.000 A 
ATOM     10  C   UNL     1       0.587   9.445  20.994  0.00  0.00    +0.000 A 
ATOM     11  N   UNL     1       1.079   8.170  21.093  0.00  0.00    +0.000 N 
ATOM     12  C   UNL     1       1.756   7.836  19.949  0.00  0.00    +0.000 A 
ATOM     13  C   UNL     1       2.428   6.651  19.623  0.00  0.00    +0.000 A 
ATOM     14  C   UNL     1       3.062   6.603  18.378  0.00  0.00    +0.000 A 
ATOM     15  C   UNL     1       3.019   7.679  17.492  0.00  0.00    +0.000 A 
ATOM     16  C   UNL     1       2.322   8.843  17.837  0.00  0.00    +0.000 A 
ATOM     17  C   UNL     1       1.662   8.932  19.084  0.00  0.00    +0.000 A 
ATOM     18  H   UNL     1       0.976   7.565  21.898  0.00  0.00    +0.000 HD
BRANCH  14  19
ATOM     19  S   UNL     1       3.894   5.106  17.900  0.00  0.00    +0.000 S 
ATOM     20  C   UNL     1       5.058   4.847  19.211  0.00  0.00    +0.000 C 
ATOM     21  O   UNL     1       2.923   4.029  17.938  0.00  0.00    +0.000 OA
ATOM     22  O   UNL     1       4.642   5.384  16.685  0.00  0.00    +0.000 OA
ENDBRANCH  14  19
ENDBRANCH   6   9
BRANCH   1  28
ATOM     23  C   UNL     1       3.605  18.216  20.910  0.00  0.00    +0.000 C 
ATOM     24  N   UNL     1       2.679  17.079  20.854  0.00  0.00    +0.000 NA
ATOM     25  C   UNL     1       1.714  17.168  21.959  0.00  0.00    +0.000 C 
ATOM     26  C   UNL     1       0.732  15.999  21.934  0.00  0.00    +0.000 C 
ATOM     27  C   UNL     1       0.002  15.900  20.594  0.00  0.00    +0.000 C 
ATOM     28  C   UNL     1       0.974  15.891  19.402  0.00  0.00    +0.000 C 
ATOM     29  C   UNL     1       1.978  17.065  19.551  0.00  0.00    +0.000 C 
ENDBRANCH   1  28
BRANCH   5  30
ATOM     30  C   UNL     1      -1.678  10.254  17.927  0.00  0.00    +0.000 C 
ATOM     31  F   UNL     1      -2.107   9.450  18.947  0.00  0.00    +0.000 F 
ATOM     32  F   UNL     1      -2.817  10.683  17.323  0.00  0.00    +0.000 F 
ATOM     33  F   UNL     1      -1.071   9.399  17.058  0.00  0.00    +0.000 F 
ENDBRANCH   5  30
TORSDOF 4
ENDMDL
MODEL 9
REMARK VINA RESULT:      -7.1      5.075      8.784
REMARK  Name = 
REMARK  6 active torsions:
REMARK  status: ('A' for Active; 'I' for Inactive)
REMARK    1  A    between atoms: C_1  and  N_2
REMARK    2  A    between atoms: C_6  and  N_7
REMARK    3  A    between atoms: C_11  and  C_12
REMARK    4  A    between atoms: C_16  and  C_17
REMARK    5  A    between atoms: C_22  and  S_23
REMARK    6  A    between atoms: S_23  and  C_24
REMARK                            x       y       z     vdW  Elec       q    Type
REMARK                         _______ _______ _______ _____ _____    ______ ____
ROOT
ATOM      1  N   UNL     1      -3.712  11.607  19.509  0.00  0.00    +0.000 N 
ATOM      2  C   UNL     1      -2.349  11.773  19.274  0.00  0.00    +0.000 A 
ATOM      3  N   UNL     1      -1.919  12.876  18.659  0.00  0.00    +0.000 NA
ATOM      4  C   UNL     1      -0.592  13.028  18.525  0.00  0.00    +0.000 A 
ATOM      5  C   UNL     1       0.348  12.111  18.945  0.00  0.00    +0.000 A 
ATOM      6  C   UNL     1      -0.173  10.972  19.526  0.00  0.00    +0.000 A 
ATOM      7  N   UNL     1      -1.513  10.824  19.722  0.00  0.00    +0.000 NA
ATOM      8  H   UNL     1      -3.883  11.948  20.453  0.00  0.00    +0.000 HD
ENDROOT
BRANCH   6   9
ATOM      9  C   UNL     1       0.641   9.855  20.041  0.00  0.00    +0.000 A 
ATOM     10  C   UNL     1       0.865   9.576  21.378  0.00  0.00    +0.000 A 
ATOM     11  N   UNL     1       1.553   8.395  21.480  0.00  0.00    +0.000 N 
ATOM     12  C   UNL     1       1.903   7.946  20.233  0.00  0.00    +0.000 A 
ATOM     13  C   UNL     1       2.621   6.801  19.867  0.00  0.00    +0.000 A 
ATOM     14  C   UNL     1       2.857   6.609  18.502  0.00  0.00    +0.000 A 
ATOM     15  C   UNL     1       2.390   7.508  17.544  0.00  0.00    +0.000 A 
ATOM     16  C   UNL     1       1.657   8.634  17.940  0.00  0.00    +0.000 A 
ATOM     17  C   UNL     1       1.391   8.863  19.309  0.00  0.00    +0.000 A 
ATOM     18  H   UNL     1       1.787   7.928  22.347  0.00  0.00    +0.000 HD
BRANCH  14  19
ATOM     19  S   UNL     1       3.728   5.149  17.982  0.00  0.00    +0.000 S 
ATOM     20  C   UNL     1       2.426   4.006  17.607  0.00  0.00    +0.000 C 
ATOM     21  O   UNL     1       4.423   5.464  16.749  0.00  0.00    +0.000 OA
ATOM     22  O   UNL     1       4.457   4.636  19.131  0.00  0.00    +0.000 OA
ENDBRANCH  14  19
ENDBRANCH   6   9
BRANCH   1  28
ATOM     23  C   UNL     1      -7.521  13.560  20.690  0.00  0.00    +0.000 C 
ATOM     24  N   UNL     1      -6.619  12.574  20.083  0.00  0.00    +0.000 NA
ATOM     25  C   UNL     1      -7.395  11.620  19.278  0.00  0.00    +0.000 C 
ATOM     26  C   UNL     1      -6.488  10.576  18.629  0.00  0.00    +0.000 C 
ATOM     27  C   UNL     1      -5.393  11.224  17.781  0.00  0.00    +0.000 C 
ATOM     28  C   UNL     1      -4.610  12.294  18.562  0.00  0.00    +0.000 C 
ATOM     29  C   UNL     1      -5.612  13.263  19.246  0.00  0.00    +0.000 C 
ENDBRANCH   1  28
BRANCH   5  30
ATOM     30  C   UNL     1       1.786  12.435  18.764  0.00  0.00    +0.000 C 
ATOM     31  F   UNL     1       1.982  13.663  18.193  0.00  0.00    +0.000 F 
ATOM     32  F   UNL     1       2.500  12.476  19.920  0.00  0.00    +0.000 F 
ATOM     33  F   UNL     1       2.433  11.571  17.933  0.00  0.00    +0.000 F 
ENDBRANCH   5  30
TORSDOF 4
ENDMDL
