MODEL 1
REMARK VINA RESULT:      -8.6      0.000      0.000
REMARK  Name = 
REMARK  9 active torsions:
REMARK  status: ('A' for Active; 'I' for Inactive)
REMARK    1  A    between atoms: C_1  and  N_2
REMARK    2  A    between atoms: N_2  and  C_3
REMARK    3  A    between atoms: C_3  and  C_4
REMARK    4  A    between atoms: C_4  and  C_5
REMARK    5  A    between atoms: C_5  and  N_6
REMARK    6  A    between atoms: C_8  and  C_9
REMARK    7  A    between atoms: N_11  and  C_12
REMARK    8  A    between atoms: C_15  and  C_16
REMARK    9  A    between atoms: C_24  and  O_25
REMARK                            x       y       z     vdW  Elec       q    Type
REMARK                         _______ _______ _______ _____ _____    ______ ____
ROOT
ATOM      1  C   UNL     1       5.207   3.818  17.399  0.00  0.00    +0.000 C 
ATOM      2  O   UNL     1       5.321   4.586  18.349  0.00  0.00    +0.000 OA
ATOM      3  N   UNL     1       4.437   2.680  17.402  0.00  0.00    +0.000 N 
ATOM      4  H   UNL     1       4.286   2.184  16.536  0.00  0.00    +0.000 HD
ENDROOT
BRANCH   1   7
ATOM      5  N   UNL     1       6.524   4.036  13.938  0.00  0.00    +0.000 N 
ATOM      6  C   UNL     1       5.589   3.426  14.843  0.00  0.00    +0.000 C 
ATOM      7  C   UNL     1       5.914   4.088  16.130  0.00  0.00    +0.000 C 
ATOM      8  C   UNL     1       6.915   4.970  16.005  0.00  0.00    +0.000 C 
ATOM      9  C   UNL     1       7.327   4.972  14.572  0.00  0.00    +0.000 C 
ATOM     10  O   UNL     1       8.189   5.663  14.066  0.00  0.00    +0.000 OA
BRANCH   8  11
ATOM     11  O   UNL     1       7.482   5.762  16.964  0.00  0.00    +0.000 OA
ATOM     12  H   UNL     1       8.091   5.198  17.483  0.00  0.00    +0.000 HD
ENDBRANCH   8  11
BRANCH   5  13
ATOM     13  C   UNL     1       6.531   3.752  12.515  0.00  0.00    +0.000 C 
BRANCH  13  14
ATOM     14  C   UNL     1       5.177   3.299  11.962  0.00  0.00    +0.000 C 
BRANCH  14  15
ATOM     15  C   UNL     1       5.216   1.996  11.157  0.00  0.00    +0.000 C 
BRANCH  15  17
ATOM     16  C   UNL     1       6.176  -0.206  11.335  0.00  0.00    +0.000 C 
ATOM     17  N   UNL     1       6.431   1.224  11.434  0.00  0.00    +0.000 NA
ATOM     18  H   UNL     1       7.159   1.470  10.770  0.00  0.00    +0.000 HD
ENDBRANCH  15  17
ENDBRANCH  14  15
ENDBRANCH  13  14
ENDBRANCH   5  13
ENDBRANCH   1   7
BRANCH   3  19
ATOM     19  C   UNL     1       3.489   2.324  18.464  0.00  0.00    +0.000 C 
ATOM     20  C   UNL     1       3.978   2.937  19.787  0.00  0.00    +0.000 C 
ATOM     21  C   UNL     1       2.899   3.124  20.855  0.00  0.00    +0.000 C 
ATOM     22  C   UNL     1       1.637   3.833  20.317  0.00  0.00    +0.000 C 
ATOM     23  C   UNL     1       1.093   2.915  19.201  0.00  0.00    +0.000 C 
ATOM     24  C   UNL     1       2.082   2.784  18.043  0.00  0.00    +0.000 C 
BRANCH  22  25
ATOM     25  C   UNL     1       1.818   5.297  19.895  0.00  0.00    +0.000 A 
ATOM     26  C   UNL     1       1.649   6.344  20.822  0.00  0.00    +0.000 A 
ATOM     27  C   UNL     1       1.756   7.685  20.442  0.00  0.00    +0.000 A 
ATOM     28  C   UNL     1       2.079   8.014  19.132  0.00  0.00    +0.000 A 
ATOM     29  C   UNL     1       2.324   6.999  18.213  0.00  0.00    +0.000 A 
ATOM     30  C   UNL     1       2.206   5.656  18.594  0.00  0.00    +0.000 A 
ENDBRANCH  22  25
ENDBRANCH   3  19
TORSDOF 8
ENDMDL
MODEL 2
REMARK VINA RESULT:      -8.4      0.877      1.188
REMARK  Name = 
REMARK  9 active torsions:
REMARK  status: ('A' for Active; 'I' for Inactive)
REMARK    1  A    between atoms: C_1  and  N_2
REMARK    2  A    between atoms: N_2  and  C_3
REMARK    3  A    between atoms: C_3  and  C_4
REMARK    4  A    between atoms: C_4  and  C_5
REMARK    5  A    between atoms: C_5  and  N_6
REMARK    6  A    between atoms: C_8  and  C_9
REMARK    7  A    between atoms: N_11  and  C_12
REMARK    8  A    between atoms: C_15  and  C_16
REMARK    9  A    between atoms: C_24  and  O_25
REMARK                            x       y       z     vdW  Elec       q    Type
REMARK                         _______ _______ _______ _____ _____    ______ ____
ROOT
ATOM      1  C   UNL     1       5.149   3.935  17.192  0.00  0.00    +0.000 C 
ATOM      2  O   UNL     1       5.111   4.773  18.088  0.00  0.00    +0.000 OA
ATOM      3  N   UNL     1       4.521   2.714  17.240  0.00  0.00    +0.000 N 
ATOM      4  H   UNL     1       4.483   2.146  16.406  0.00  0.00    +0.000 HD
ENDROOT
BRANCH   1   7
ATOM      5  N   UNL     1       6.543   4.185  13.764  0.00  0.00    +0.000 N 
ATOM      6  C   UNL     1       5.559   3.600  14.632  0.00  0.00    +0.000 C 
ATOM      7  C   UNL     1       5.894   4.204  15.945  0.00  0.00    +0.000 C 
ATOM      8  C   UNL     1       6.943   5.034  15.867  0.00  0.00    +0.000 C 
ATOM      9  C   UNL     1       7.383   5.056  14.441  0.00  0.00    +0.000 C 
ATOM     10  O   UNL     1       8.291   5.714  13.974  0.00  0.00    +0.000 OA
BRANCH   8  11
ATOM     11  O   UNL     1       7.533   5.764  16.860  0.00  0.00    +0.000 OA
ATOM     12  H   UNL     1       6.847   6.354  17.233  0.00  0.00    +0.000 HD
ENDBRANCH   8  11
BRANCH   5  13
ATOM     13  C   UNL     1       6.563   3.944  12.334  0.00  0.00    +0.000 C 
BRANCH  13  14
ATOM     14  C   UNL     1       6.287   2.491  11.941  0.00  0.00    +0.000 C 
BRANCH  14  15
ATOM     15  C   UNL     1       4.969   2.268  11.192  0.00  0.00    +0.000 C 
BRANCH  15  17
ATOM     16  C   UNL     1       3.351   3.710  10.140  0.00  0.00    +0.000 C 
ATOM     17  N   UNL     1       4.042   3.387  11.381  0.00  0.00    +0.000 NA
ATOM     18  H   UNL     1       3.350   3.151  12.086  0.00  0.00    +0.000 HD
ENDBRANCH  15  17
ENDBRANCH  14  15
ENDBRANCH  13  14
ENDBRANCH   5  13
ENDBRANCH   1   7
BRANCH   3  19
ATOM     19  C   UNL     1       3.559   2.315  18.274  0.00  0.00    +0.000 C 
ATOM     20  C   UNL     1       4.021   2.891  19.623  0.00  0.00    +0.000 C 
ATOM     21  C   UNL     1       2.923   3.034  20.679  0.00  0.00    +0.000 C 
ATOM     22  C   UNL     1       1.662   3.748  20.143  0.00  0.00    +0.000 C 
ATOM     23  C   UNL     1       1.146   2.860  18.990  0.00  0.00    +0.000 C 
ATOM     24  C   UNL     1       2.155   2.775  17.844  0.00  0.00    +0.000 C 
BRANCH  22  25
ATOM     25  C   UNL     1       1.836   5.226  19.769  0.00  0.00    +0.000 A 
ATOM     26  C   UNL     1       1.761   6.233  20.750  0.00  0.00    +0.000 A 
ATOM     27  C   UNL     1       1.862   7.589  20.420  0.00  0.00    +0.000 A 
ATOM     28  C   UNL     1       2.085   7.970  19.103  0.00  0.00    +0.000 A 
ATOM     29  C   UNL     1       2.236   6.993  18.126  0.00  0.00    +0.000 A 
ATOM     30  C   UNL     1       2.125   5.636  18.458  0.00  0.00    +0.000 A 
ENDBRANCH  22  25
ENDBRANCH   3  19
TORSDOF 8
ENDMDL
MODEL 3
REMARK VINA RESULT:      -8.3      1.002      1.603
REMARK  Name = 
REMARK  9 active torsions:
REMARK  status: ('A' for Active; 'I' for Inactive)
REMARK    1  A    between atoms: C_1  and  N_2
REMARK    2  A    between atoms: N_2  and  C_3
REMARK    3  A    between atoms: C_3  and  C_4
REMARK    4  A    between atoms: C_4  and  C_5
REMARK    5  A    between atoms: C_5  and  N_6
REMARK    6  A    between atoms: C_8  and  C_9
REMARK    7  A    between atoms: N_11  and  C_12
REMARK    8  A    between atoms: C_15  and  C_16
REMARK    9  A    between atoms: C_24  and  O_25
REMARK                            x       y       z     vdW  Elec       q    Type
REMARK                         _______ _______ _______ _____ _____    ______ ____
ROOT
ATOM      1  C   UNL     1       5.062   3.850  17.395  0.00  0.00    +0.000 C 
ATOM      2  O   UNL     1       5.052   4.702  18.278  0.00  0.00    +0.000 OA
ATOM      3  N   UNL     1       4.413   2.642  17.469  0.00  0.00    +0.000 N 
ATOM      4  H   UNL     1       4.353   2.062  16.644  0.00  0.00    +0.000 HD
ENDROOT
BRANCH   1   7
ATOM      5  N   UNL     1       6.427   4.009  13.949  0.00  0.00    +0.000 N 
ATOM      6  C   UNL     1       5.451   3.447  14.841  0.00  0.00    +0.000 C 
ATOM      7  C   UNL     1       5.796   4.086  16.134  0.00  0.00    +0.000 C 
ATOM      8  C   UNL     1       6.844   4.914  16.025  0.00  0.00    +0.000 C 
ATOM      9  C   UNL     1       7.272   4.899  14.596  0.00  0.00    +0.000 C 
ATOM     10  O   UNL     1       8.175   5.544  14.103  0.00  0.00    +0.000 OA
BRANCH   8  11
ATOM     11  O   UNL     1       7.442   5.671  16.993  0.00  0.00    +0.000 OA
ATOM     12  H   UNL     1       7.799   6.471  16.557  0.00  0.00    +0.000 HD
ENDBRANCH   8  11
BRANCH   5  13
ATOM     13  C   UNL     1       6.435   3.730  12.526  0.00  0.00    +0.000 C 
BRANCH  13  14
ATOM     14  C   UNL     1       5.083   3.940  11.840  0.00  0.00    +0.000 C 
BRANCH  14  15
ATOM     15  C   UNL     1       4.469   2.677  11.229  0.00  0.00    +0.000 C 
BRANCH  15  17
ATOM     16  C   UNL     1       3.148   4.127   9.831  0.00  0.00    +0.000 C 
ATOM     17  N   UNL     1       3.140   2.936  10.669  0.00  0.00    +0.000 NA
ATOM     18  H   UNL     1       2.838   2.146  10.106  0.00  0.00    +0.000 HD
ENDBRANCH  15  17
ENDBRANCH  14  15
ENDBRANCH  13  14
ENDBRANCH   5  13
ENDBRANCH   1   7
BRANCH   3  19
ATOM     19  C   UNL     1       3.456   2.277  18.521  0.00  0.00    +0.000 C 
ATOM     20  C   UNL     1       3.928   2.894  19.849  0.00  0.00    +0.000 C 
ATOM     21  C   UNL     1       2.837   3.071  20.906  0.00  0.00    +0.000 C 
ATOM     22  C   UNL     1       1.574   3.770  20.356  0.00  0.00    +0.000 C 
ATOM     23  C   UNL     1       1.049   2.848  19.234  0.00  0.00    +0.000 C 
ATOM     24  C   UNL     1       2.050   2.726  18.086  0.00  0.00    +0.000 C 
BRANCH  22  25
ATOM     25  C   UNL     1       1.747   5.236  19.936  0.00  0.00    +0.000 A 
ATOM     26  C   UNL     1       2.021   5.577  18.597  0.00  0.00    +0.000 A 
ATOM     27  C   UNL     1       2.237   6.902  18.206  0.00  0.00    +0.000 A 
ATOM     28  C   UNL     1       2.141   7.927  19.138  0.00  0.00    +0.000 A 
ATOM     29  C   UNL     1       1.800   7.626  20.452  0.00  0.00    +0.000 A 
ATOM     30  C   UNL     1       1.594   6.297  20.843  0.00  0.00    +0.000 A 
ENDBRANCH  22  25
ENDBRANCH   3  19
TORSDOF 8
ENDMDL
MODEL 4
REMARK VINA RESULT:      -7.9      4.335      8.087
REMARK  Name = 
REMARK  9 active torsions:
REMARK  status: ('A' for Active; 'I' for Inactive)
REMARK    1  A    between atoms: C_1  and  N_2
REMARK    2  A    between atoms: N_2  and  C_3
REMARK    3  A    between atoms: C_3  and  C_4
REMARK    4  A    between atoms: C_4  and  C_5
REMARK    5  A    between atoms: C_5  and  N_6
REMARK    6  A    between atoms: C_8  and  C_9
REMARK    7  A    between atoms: N_11  and  C_12
REMARK    8  A    between atoms: C_15  and  C_16
REMARK    9  A    between atoms: C_24  and  O_25
REMARK                            x       y       z     vdW  Elec       q    Type
REMARK                         _______ _______ _______ _____ _____    ______ ____
ROOT
ATOM      1  C   UNL     1       2.422   7.276  19.349  0.00  0.00    +0.000 C 
ATOM      2  O   UNL     1       2.240   6.276  20.036  0.00  0.00    +0.000 OA
ATOM      3  N   UNL     1       3.347   7.370  18.338  0.00  0.00    +0.000 N 
ATOM      4  H   UNL     1       3.333   8.176  17.730  0.00  0.00    +0.000 HD
ENDROOT
BRANCH   1   7
ATOM      5  N   UNL     1       0.349  10.348  19.196  0.00  0.00    +0.000 N 
ATOM      6  C   UNL     1       1.052   9.323  18.474  0.00  0.00    +0.000 C 
ATOM      7  C   UNL     1       1.613   8.493  19.568  0.00  0.00    +0.000 C 
ATOM      8  C   UNL     1       1.290   8.967  20.779  0.00  0.00    +0.000 C 
ATOM      9  C   UNL     1       0.444  10.178  20.568  0.00  0.00    +0.000 C 
ATOM     10  O   UNL     1      -0.062  10.867  21.432  0.00  0.00    +0.000 OA
BRANCH   8  11
ATOM     11  O   UNL     1       1.624   8.472  22.008  0.00  0.00    +0.000 OA
ATOM     12  H   UNL     1       0.788   8.256  22.470  0.00  0.00    +0.000 HD
ENDBRANCH   8  11
BRANCH   5  13
ATOM     13  C   UNL     1      -0.440  11.368  18.531  0.00  0.00    +0.000 C 
BRANCH  13  14
ATOM     14  C   UNL     1      -1.938  11.300  18.839  0.00  0.00    +0.000 C 
BRANCH  14  15
ATOM     15  C   UNL     1      -2.810  10.808  17.680  0.00  0.00    +0.000 C 
BRANCH  15  17
ATOM     16  C   UNL     1      -2.869  10.608  15.280  0.00  0.00    +0.000 C 
ATOM     17  N   UNL     1      -2.022  10.587  16.465  0.00  0.00    +0.000 NA
ATOM     18  H   UNL     1      -1.315  11.310  16.370  0.00  0.00    +0.000 HD
ENDBRANCH  15  17
ENDBRANCH  14  15
ENDBRANCH  13  14
ENDBRANCH   5  13
ENDBRANCH   1   7
BRANCH   3  19
ATOM     19  C   UNL     1       4.109   6.235  17.803  0.00  0.00    +0.000 C 
ATOM     20  C   UNL     1       4.962   5.637  18.935  0.00  0.00    +0.000 C 
ATOM     21  C   UNL     1       5.396   4.186  18.723  0.00  0.00    +0.000 C 
ATOM     22  C   UNL     1       4.227   3.260  18.325  0.00  0.00    +0.000 C 
ATOM     23  C   UNL     1       3.687   3.827  16.994  0.00  0.00    +0.000 C 
ATOM     24  C   UNL     1       3.125   5.238  17.166  0.00  0.00    +0.000 C 
BRANCH  22  25
ATOM     25  C   UNL     1       3.151   3.039  19.396  0.00  0.00    +0.000 A 
ATOM     26  C   UNL     1       1.785   3.010  19.054  0.00  0.00    +0.000 A 
ATOM     27  C   UNL     1       0.788   2.865  20.024  0.00  0.00    +0.000 A 
ATOM     28  C   UNL     1       1.134   2.701  21.359  0.00  0.00    +0.000 A 
ATOM     29  C   UNL     1       2.477   2.652  21.715  0.00  0.00    +0.000 A 
ATOM     30  C   UNL     1       3.474   2.807  20.743  0.00  0.00    +0.000 A 
ENDBRANCH  22  25
ENDBRANCH   3  19
TORSDOF 8
ENDMDL
MODEL 5
REMARK VINA RESULT:      -7.9      4.244      8.078
REMARK  Name = 
REMARK  9 active torsions:
REMARK  status: ('A' for Active; 'I' for Inactive)
REMARK    1  A    between atoms: C_1  and  N_2
REMARK    2  A    between atoms: N_2  and  C_3
REMARK    3  A    between atoms: C_3  and  C_4
REMARK    4  A    between atoms: C_4  and  C_5
REMARK    5  A    between atoms: C_5  and  N_6
REMARK    6  A    between atoms: C_8  and  C_9
REMARK    7  A    between atoms: N_11  and  C_12
REMARK    8  A    between atoms: C_15  and  C_16
REMARK    9  A    between atoms: C_24  and  O_25
REMARK                            x       y       z     vdW  Elec       q    Type
REMARK                         _______ _______ _______ _____ _____    ______ ____
ROOT
ATOM      1  C   UNL     1       2.232   7.069  18.860  0.00  0.00    +0.000 C 
ATOM      2  O   UNL     1       3.191   6.953  18.104  0.00  0.00    +0.000 OA
ATOM      3  N   UNL     1       1.510   6.019  19.373  0.00  0.00    +0.000 N 
ATOM      4  H   UNL     1       0.830   6.195  20.098  0.00  0.00    +0.000 HD
ENDROOT
BRANCH   1   7
ATOM      5  N   UNL     1       1.105  10.579  19.273  0.00  0.00    +0.000 N 
ATOM      6  C   UNL     1       1.538   9.543  18.377  0.00  0.00    +0.000 C 
ATOM      7  C   UNL     1       1.781   8.407  19.298  0.00  0.00    +0.000 C 
ATOM      8  C   UNL     1       1.531   8.728  20.575  0.00  0.00    +0.000 C 
ATOM      9  C   UNL     1       1.069  10.147  20.590  0.00  0.00    +0.000 C 
ATOM     10  O   UNL     1       0.723  10.786  21.564  0.00  0.00    +0.000 OA
BRANCH   8  11
ATOM     11  O   UNL     1       1.641   7.948  21.691  0.00  0.00    +0.000 OA
ATOM     12  H   UNL     1       0.754   7.902  22.101  0.00  0.00    +0.000 HD
ENDBRANCH   8  11
BRANCH   5  13
ATOM     13  C   UNL     1       0.672  11.883  18.807  0.00  0.00    +0.000 C 
BRANCH  13  14
ATOM     14  C   UNL     1      -0.839  12.112  18.907  0.00  0.00    +0.000 C 
BRANCH  14  15
ATOM     15  C   UNL     1      -1.687  11.194  18.021  0.00  0.00    +0.000 C 
BRANCH  15  17
ATOM     16  C   UNL     1      -2.726  10.923  15.864  0.00  0.00    +0.000 C 
ATOM     17  N   UNL     1      -2.089  11.861  16.779  0.00  0.00    +0.000 NA
ATOM     18  H   UNL     1      -2.742  12.611  16.981  0.00  0.00    +0.000 HD
ENDBRANCH  15  17
ENDBRANCH  14  15
ENDBRANCH  13  14
ENDBRANCH   5  13
ENDBRANCH   1   7
BRANCH   3  19
ATOM     19  C   UNL     1       1.897   4.608  19.251  0.00  0.00    +0.000 C 
ATOM     20  C   UNL     1       1.979   4.248  17.758  0.00  0.00    +0.000 C 
ATOM     21  C   UNL     1       2.848   3.032  17.430  0.00  0.00    +0.000 C 
ATOM     22  C   UNL     1       4.242   3.093  18.091  0.00  0.00    +0.000 C 
ATOM     23  C   UNL     1       3.976   3.131  19.611  0.00  0.00    +0.000 C 
ATOM     24  C   UNL     1       3.211   4.390  20.021  0.00  0.00    +0.000 C 
BRANCH  22  25
ATOM     25  C   UNL     1       5.175   4.203  17.588  0.00  0.00    +0.000 A 
ATOM     26  C   UNL     1       6.177   4.739  18.421  0.00  0.00    +0.000 A 
ATOM     27  C   UNL     1       6.999   5.788  17.999  0.00  0.00    +0.000 A 
ATOM     28  C   UNL     1       6.871   6.299  16.714  0.00  0.00    +0.000 A 
ATOM     29  C   UNL     1       5.940   5.740  15.846  0.00  0.00    +0.000 A 
ATOM     30  C   UNL     1       5.111   4.696  16.275  0.00  0.00    +0.000 A 
ENDBRANCH  22  25
ENDBRANCH   3  19
TORSDOF 8
ENDMDL
MODEL 6
REMARK VINA RESULT:      -7.7      4.542      8.556
REMARK  Name = 
REMARK  9 active torsions:
REMARK  status: ('A' for Active; 'I' for Inactive)
REMARK    1  A    between atoms: C_1  and  N_2
REMARK    2  A    between atoms: N_2  and  C_3
REMARK    3  A    between atoms: C_3  and  C_4
REMARK    4  A    between atoms: C_4  and  C_5
REMARK    5  A    between atoms: C_5  and  N_6
REMARK    6  A    between atoms: C_8  and  C_9
REMARK    7  A    between atoms: N_11  and  C_12
REMARK    8  A    between atoms: C_15  and  C_16
REMARK    9  A    between atoms: C_24  and  O_25
REMARK                            x       y       z     vdW  Elec       q    Type
REMARK                         _______ _______ _______ _____ _____    ______ ____
ROOT
ATOM      1  C   UNL     1       2.485   7.245  19.257  0.00  0.00    +0.000 C 
ATOM      2  O   UNL     1       2.344   6.279  20.000  0.00  0.00    +0.000 OA
ATOM      3  N   UNL     1       3.408   7.320  18.242  0.00  0.00    +0.000 N 
ATOM      4  H   UNL     1       3.362   8.089  17.589  0.00  0.00    +0.000 HD
ENDROOT
BRANCH   1   7
ATOM      5  N   UNL     1       0.328  10.244  18.925  0.00  0.00    +0.000 N 
ATOM      6  C   UNL     1       1.111   9.236  18.265  0.00  0.00    +0.000 C 
ATOM      7  C   UNL     1       1.625   8.437  19.405  0.00  0.00    +0.000 C 
ATOM      8  C   UNL     1       1.206   8.913  20.585  0.00  0.00    +0.000 C 
ATOM      9  C   UNL     1       0.338  10.093  20.303  0.00  0.00    +0.000 C 
ATOM     10  O   UNL     1      -0.247  10.774  21.121  0.00  0.00    +0.000 OA
BRANCH   8  11
ATOM     11  O   UNL     1       1.473   8.444  21.841  0.00  0.00    +0.000 OA
ATOM     12  H   UNL     1       0.724   8.706  22.413  0.00  0.00    +0.000 HD
ENDBRANCH   8  11
BRANCH   5  13
ATOM     13  C   UNL     1      -0.446  11.230  18.196  0.00  0.00    +0.000 C 
BRANCH  13  14
ATOM     14  C   UNL     1      -1.892  10.810  17.920  0.00  0.00    +0.000 C 
BRANCH  14  15
ATOM     15  C   UNL     1      -2.955  11.751  18.494  0.00  0.00    +0.000 C 
BRANCH  15  17
ATOM     16  C   UNL     1      -3.299  12.770  20.650  0.00  0.00    +0.000 C 
ATOM     17  N   UNL     1      -2.396  12.643  19.514  0.00  0.00    +0.000 NA
ATOM     18  H   UNL     1      -1.507  12.279  19.846  0.00  0.00    +0.000 HD
ENDBRANCH  15  17
ENDBRANCH  14  15
ENDBRANCH  13  14
ENDBRANCH   5  13
ENDBRANCH   1   7
BRANCH   3  19
ATOM     19  C   UNL     1       4.219   6.190  17.773  0.00  0.00    +0.000 C 
ATOM     20  C   UNL     1       5.028   5.639  18.960  0.00  0.00    +0.000 C 
ATOM     21  C   UNL     1       5.503   4.193  18.806  0.00  0.00    +0.000 C 
ATOM     22  C   UNL     1       4.374   3.231  18.375  0.00  0.00    +0.000 C 
ATOM     23  C   UNL     1       3.889   3.754  17.005  0.00  0.00    +0.000 C 
ATOM     24  C   UNL     1       3.289   5.156  17.114  0.00  0.00    +0.000 C 
BRANCH  22  25
ATOM     25  C   UNL     1       3.251   3.012  19.397  0.00  0.00    +0.000 A 
ATOM     26  C   UNL     1       1.903   2.972  18.993  0.00  0.00    +0.000 A 
ATOM     27  C   UNL     1       0.863   2.829  19.918  0.00  0.00    +0.000 A 
ATOM     28  C   UNL     1       1.149   2.677  21.269  0.00  0.00    +0.000 A 
ATOM     29  C   UNL     1       2.474   2.640  21.686  0.00  0.00    +0.000 A 
ATOM     30  C   UNL     1       3.514   2.793  20.759  0.00  0.00    +0.000 A 
ENDBRANCH  22  25
ENDBRANCH   3  19
TORSDOF 8
ENDMDL
MODEL 7
REMARK VINA RESULT:      -7.7      4.572      8.252
REMARK  Name = 
REMARK  9 active torsions:
REMARK  status: ('A' for Active; 'I' for Inactive)
REMARK    1  A    between atoms: C_1  and  N_2
REMARK    2  A    between atoms: N_2  and  C_3
REMARK    3  A    between atoms: C_3  and  C_4
REMARK    4  A    between atoms: C_4  and  C_5
REMARK    5  A    between atoms: C_5  and  N_6
REMARK    6  A    between atoms: C_8  and  C_9
REMARK    7  A    between atoms: N_11  and  C_12
REMARK    8  A    between atoms: C_15  and  C_16
REMARK    9  A    between atoms: C_24  and  O_25
REMARK                            x       y       z     vdW  Elec       q    Type
REMARK                         _______ _______ _______ _____ _____    ______ ____
ROOT
ATOM      1  C   UNL     1       2.477   7.270  19.277  0.00  0.00    +0.000 C 
ATOM      2  O   UNL     1       2.405   6.338  20.072  0.00  0.00    +0.000 OA
ATOM      3  N   UNL     1       3.336   7.318  18.206  0.00  0.00    +0.000 N 
ATOM      4  H   UNL     1       3.231   8.053  17.522  0.00  0.00    +0.000 HD
ENDROOT
BRANCH   1   7
ATOM      5  N   UNL     1       0.269  10.231  18.933  0.00  0.00    +0.000 N 
ATOM      6  C   UNL     1       1.074   9.237  18.278  0.00  0.00    +0.000 C 
ATOM      7  C   UNL     1       1.594   8.446  19.420  0.00  0.00    +0.000 C 
ATOM      8  C   UNL     1       1.160   8.914  20.598  0.00  0.00    +0.000 C 
ATOM      9  C   UNL     1       0.272  10.078  20.311  0.00  0.00    +0.000 C 
ATOM     10  O   UNL     1      -0.330  10.749  21.126  0.00  0.00    +0.000 OA
BRANCH   8  11
ATOM     11  O   UNL     1       1.426   8.448  21.855  0.00  0.00    +0.000 OA
ATOM     12  H   UNL     1       0.580   8.443  22.347  0.00  0.00    +0.000 HD
ENDBRANCH   8  11
BRANCH   5  13
ATOM     13  C   UNL     1      -0.518  11.204  18.199  0.00  0.00    +0.000 C 
BRANCH  13  14
ATOM     14  C   UNL     1      -1.882  10.684  17.738  0.00  0.00    +0.000 C 
BRANCH  14  15
ATOM     15  C   UNL     1      -3.076  11.539  18.174  0.00  0.00    +0.000 C 
BRANCH  15  17
ATOM     16  C   UNL     1      -3.659  11.016  15.896  0.00  0.00    +0.000 C 
ATOM     17  N   UNL     1      -3.952  11.862  17.045  0.00  0.00    +0.000 NA
ATOM     18  H   UNL     1      -4.924  11.727  17.307  0.00  0.00    +0.000 HD
ENDBRANCH  15  17
ENDBRANCH  14  15
ENDBRANCH  13  14
ENDBRANCH   5  13
ENDBRANCH   1   7
BRANCH   3  19
ATOM     19  C   UNL     1       4.149   6.187  17.743  0.00  0.00    +0.000 C 
ATOM     20  C   UNL     1       4.970   5.653  18.929  0.00  0.00    +0.000 C 
ATOM     21  C   UNL     1       5.452   4.208  18.788  0.00  0.00    +0.000 C 
ATOM     22  C   UNL     1       4.324   3.236  18.378  0.00  0.00    +0.000 C 
ATOM     23  C   UNL     1       3.824   3.741  17.007  0.00  0.00    +0.000 C 
ATOM     24  C   UNL     1       3.218   5.141  17.105  0.00  0.00    +0.000 C 
BRANCH  22  25
ATOM     25  C   UNL     1       3.212   3.023  19.413  0.00  0.00    +0.000 A 
ATOM     26  C   UNL     1       3.517   2.833  20.775  0.00  0.00    +0.000 A 
ATOM     27  C   UNL     1       2.521   2.582  21.723  0.00  0.00    +0.000 A 
ATOM     28  C   UNL     1       1.186   2.561  21.341  0.00  0.00    +0.000 A 
ATOM     29  C   UNL     1       0.850   2.818  20.016  0.00  0.00    +0.000 A 
ATOM     30  C   UNL     1       1.851   3.059  19.066  0.00  0.00    +0.000 A 
ENDBRANCH  22  25
ENDBRANCH   3  19
TORSDOF 8
ENDMDL
MODEL 8
REMARK VINA RESULT:      -7.5      4.308      8.482
REMARK  Name = 
REMARK  9 active torsions:
REMARK  status: ('A' for Active; 'I' for Inactive)
REMARK    1  A    between atoms: C_1  and  N_2
REMARK    2  A    between atoms: N_2  and  C_3
REMARK    3  A    between atoms: C_3  and  C_4
REMARK    4  A    between atoms: C_4  and  C_5
REMARK    5  A    between atoms: C_5  and  N_6
REMARK    6  A    between atoms: C_8  and  C_9
REMARK    7  A    between atoms: N_11  and  C_12
REMARK    8  A    between atoms: C_15  and  C_16
REMARK    9  A    between atoms: C_24  and  O_25
REMARK                            x       y       z     vdW  Elec       q    Type
REMARK                         _______ _______ _______ _____ _____    ______ ____
ROOT
ATOM      1  C   UNL     1       2.274   7.029  18.931  0.00  0.00    +0.000 C 
ATOM      2  O   UNL     1       3.266   6.897  18.223  0.00  0.00    +0.000 OA
ATOM      3  N   UNL     1       1.511   5.990  19.409  0.00  0.00    +0.000 N 
ATOM      4  H   UNL     1       0.800   6.177  20.100  0.00  0.00    +0.000 HD
ENDROOT
BRANCH   1   7
ATOM      5  N   UNL     1       1.153  10.547  19.282  0.00  0.00    +0.000 N 
ATOM      6  C   UNL     1       1.594   9.498  18.406  0.00  0.00    +0.000 C 
ATOM      7  C   UNL     1       1.821   8.373  19.345  0.00  0.00    +0.000 C 
ATOM      8  C   UNL     1       1.556   8.713  20.614  0.00  0.00    +0.000 C 
ATOM      9  C   UNL     1       1.098  10.133  20.604  0.00  0.00    +0.000 C 
ATOM     10  O   UNL     1       0.742  10.786  21.565  0.00  0.00    +0.000 OA
BRANCH   8  11
ATOM     11  O   UNL     1       1.649   7.948  21.742  0.00  0.00    +0.000 OA
ATOM     12  H   UNL     1       1.764   8.559  22.498  0.00  0.00    +0.000 HD
ENDBRANCH   8  11
BRANCH   5  13
ATOM     13  C   UNL     1       0.730  11.846  18.793  0.00  0.00    +0.000 C 
BRANCH  13  14
ATOM     14  C   UNL     1       1.820  12.919  18.845  0.00  0.00    +0.000 C 
BRANCH  14  15
ATOM     15  C   UNL     1       1.746  13.852  20.057  0.00  0.00    +0.000 C 
BRANCH  15  17
ATOM     16  C   UNL     1       3.575  14.397  21.527  0.00  0.00    +0.000 C 
ATOM     17  N   UNL     1       2.597  13.384  21.155  0.00  0.00    +0.000 NA
ATOM     18  H   UNL     1       2.029  13.167  21.968  0.00  0.00    +0.000 HD
ENDBRANCH  15  17
ENDBRANCH  14  15
ENDBRANCH  13  14
ENDBRANCH   5  13
ENDBRANCH   1   7
BRANCH   3  19
ATOM     19  C   UNL     1       1.884   4.573  19.307  0.00  0.00    +0.000 C 
ATOM     20  C   UNL     1       1.898   4.173  17.822  0.00  0.00    +0.000 C 
ATOM     21  C   UNL     1       2.742   2.943  17.489  0.00  0.00    +0.000 C 
ATOM     22  C   UNL     1       4.165   3.010  18.086  0.00  0.00    +0.000 C 
ATOM     23  C   UNL     1       3.966   3.090  19.615  0.00  0.00    +0.000 C 
ATOM     24  C   UNL     1       3.229   4.365  20.025  0.00  0.00    +0.000 C 
BRANCH  22  25
ATOM     25  C   UNL     1       5.082   4.099  17.514  0.00  0.00    +0.000 A 
ATOM     26  C   UNL     1       6.130   4.640  18.283  0.00  0.00    +0.000 A 
ATOM     27  C   UNL     1       6.941   5.671  17.798  0.00  0.00    +0.000 A 
ATOM     28  C   UNL     1       6.752   6.158  16.511  0.00  0.00    +0.000 A 
ATOM     29  C   UNL     1       5.773   5.591  15.703  0.00  0.00    +0.000 A 
ATOM     30  C   UNL     1       4.956   4.565  16.195  0.00  0.00    +0.000 A 
ENDBRANCH  22  25
ENDBRANCH   3  19
TORSDOF 8
ENDMDL
MODEL 9
REMARK VINA RESULT:      -7.5      4.284      7.657
REMARK  Name = 
REMARK  9 active torsions:
REMARK  status: ('A' for Active; 'I' for Inactive)
REMARK    1  A    between atoms: C_1  and  N_2
REMARK    2  A    between atoms: N_2  and  C_3
REMARK    3  A    between atoms: C_3  and  C_4
REMARK    4  A    between atoms: C_4  and  C_5
REMARK    5  A    between atoms: C_5  and  N_6
REMARK    6  A    between atoms: C_8  and  C_9
REMARK    7  A    between atoms: N_11  and  C_12
REMARK    8  A    between atoms: C_15  and  C_16
REMARK    9  A    between atoms: C_24  and  O_25
REMARK                            x       y       z     vdW  Elec       q    Type
REMARK                         _______ _______ _______ _____ _____    ______ ____
ROOT
ATOM      1  C   UNL     1       2.041   8.385  18.198  0.00  0.00    +0.000 C 
ATOM      2  O   UNL     1       2.713   8.704  17.222  0.00  0.00    +0.000 OA
ATOM      3  N   UNL     1       1.114   9.197  18.806  0.00  0.00    +0.000 N 
ATOM      4  H   UNL     1       0.505   8.808  19.511  0.00  0.00    +0.000 HD
ENDROOT
BRANCH   1   7
ATOM      5  N   UNL     1       2.533   4.809  19.052  0.00  0.00    +0.000 N 
ATOM      6  C   UNL     1       2.472   5.812  18.025  0.00  0.00    +0.000 C 
ATOM      7  C   UNL     1       2.184   7.044  18.801  0.00  0.00    +0.000 C 
ATOM      8  C   UNL     1       2.082   6.801  20.115  0.00  0.00    +0.000 C 
ATOM      9  C   UNL     1       2.323   5.343  20.315  0.00  0.00    +0.000 C 
ATOM     10  O   UNL     1       2.339   4.750  21.375  0.00  0.00    +0.000 OA
BRANCH   8  11
ATOM     11  O   UNL     1       1.827   7.680  21.130  0.00  0.00    +0.000 OA
ATOM     12  H   UNL     1       1.812   8.577  20.739  0.00  0.00    +0.000 HD
ENDBRANCH   8  11
BRANCH   5  13
ATOM     13  C   UNL     1       2.875   3.427  18.773  0.00  0.00    +0.000 C 
BRANCH  13  14
ATOM     14  C   UNL     1       3.709   3.234  17.504  0.00  0.00    +0.000 C 
BRANCH  14  15
ATOM     15  C   UNL     1       5.026   4.016  17.477  0.00  0.00    +0.000 C 
BRANCH  15  17
ATOM     16  C   UNL     1       6.144   5.192  19.257  0.00  0.00    +0.000 C 
ATOM     17  N   UNL     1       5.760   3.886  18.739  0.00  0.00    +0.000 NA
ATOM     18  H   UNL     1       5.182   3.419  19.432  0.00  0.00    +0.000 HD
ENDBRANCH  15  17
ENDBRANCH  14  15
ENDBRANCH  13  14
ENDBRANCH   5  13
ENDBRANCH   1   7
BRANCH   3  19
ATOM     19  C   UNL     1       0.651  10.479  18.263  0.00  0.00    +0.000 C 
ATOM     20  C   UNL     1      -0.883  10.446  18.163  0.00  0.00    +0.000 C 
ATOM     21  C   UNL     1      -1.561  11.817  18.127  0.00  0.00    +0.000 C 
ATOM     22  C   UNL     1      -1.072  12.760  19.248  0.00  0.00    +0.000 C 
ATOM     23  C   UNL     1       0.443  12.937  19.004  0.00  0.00    +0.000 C 
ATOM     24  C   UNL     1       1.197  11.615  19.146  0.00  0.00    +0.000 C 
BRANCH  22  25
ATOM     25  C   UNL     1      -1.434  12.346  20.680  0.00  0.00    +0.000 A 
ATOM     26  C   UNL     1      -2.689  12.670  21.231  0.00  0.00    +0.000 A 
ATOM     27  C   UNL     1      -3.016  12.349  22.552  0.00  0.00    +0.000 A 
ATOM     28  C   UNL     1      -2.111  11.654  23.344  0.00  0.00    +0.000 A 
ATOM     29  C   UNL     1      -0.893  11.258  22.802  0.00  0.00    +0.000 A 
ATOM     30  C   UNL     1      -0.564  11.589  21.482  0.00  0.00    +0.000 A 
ENDBRANCH  22  25
ENDBRANCH   3  19
TORSDOF 8
ENDMDL
