MODEL 1
REMARK VINA RESULT:      -8.0      0.000      0.000
REMARK  Name = 
REMARK  6 active torsions:
REMARK  status: ('A' for Active; 'I' for Inactive)
REMARK    1  A    between atoms: C_1  and  S_2
REMARK    2  A    between atoms: S_2  and  C_5
REMARK    3  A    between atoms: C_9  and  S_10
REMARK    4  A    between atoms: S_10  and  N_13
REMARK    5  A    between atoms: C_14  and  C_16
REMARK    6  A    between atoms: C_16  and  C_17
REMARK                            x       y       z     vdW  Elec       q    Type
REMARK                         _______ _______ _______ _____ _____    ______ ____
ROOT
ATOM      1  S   UNL     1       7.031   6.133  16.922  0.00  0.00    +0.000 S 
ATOM      2  O   UNL     1       7.872   5.418  17.856  0.00  0.00    +0.000 OA
ATOM      3  O   UNL     1       7.102   5.858  15.502  0.00  0.00    +0.000 OA
ENDROOT
BRANCH   1   8
ATOM      4  C   UNL     1       3.465   4.559  18.056  0.00  0.00    +0.000 A 
ATOM      5  C   UNL     1       2.634   5.685  18.083  0.00  0.00    +0.000 A 
ATOM      6  C   UNL     1       3.160   6.940  17.777  0.00  0.00    +0.000 A 
ATOM      7  C   UNL     1       4.506   7.066  17.431  0.00  0.00    +0.000 A 
ATOM      8  C   UNL     1       5.329   5.937  17.395  0.00  0.00    +0.000 A 
ATOM      9  C   UNL     1       4.822   4.673  17.720  0.00  0.00    +0.000 A 
BRANCH   4  11
ATOM     10  C   UNL     1       2.696   2.755  20.066  0.00  0.00    +0.000 C 
ATOM     11  S   UNL     1       2.744   2.950  18.306  0.00  0.00    +0.000 S 
ATOM     12  O   UNL     1       3.679   1.979  17.770  0.00  0.00    +0.000 OA
ATOM     13  O   UNL     1       1.378   3.006  17.822  0.00  0.00    +0.000 OA
ENDBRANCH   4  11
ENDBRANCH   1   8
BRANCH   1  14
ATOM     14  N   UNL     1       7.341   7.756  17.088  0.00  0.00    +0.000 N 
ATOM     15  C   UNL     1       8.137   8.312  18.097  0.00  0.00    +0.000 C 
ATOM     16  O   UNL     1       8.644   7.632  18.981  0.00  0.00    +0.000 OA
ATOM     17  H   UNL     1       6.889   8.327  16.379  0.00  0.00    +0.000 HD
BRANCH  15  18
ATOM     18  C   UNL     1       8.352   9.808  18.028  0.00  0.00    +0.000 C 
BRANCH  18  19
ATOM     19  C   UNL     1       9.677  10.275  18.655  0.00  0.00    +0.000 C 
ATOM     20  C   UNL     1      10.446  11.276  17.772  0.00  0.00    +0.000 C 
ATOM     21  C   UNL     1       9.851  12.682  17.773  0.00  0.00    +0.000 C 
ATOM     22  C   UNL     1       9.655  13.214  19.189  0.00  0.00    +0.000 C 
ATOM     23  C   UNL     1       8.824  12.255  20.034  0.00  0.00    +0.000 C 
ATOM     24  C   UNL     1       9.448  10.861  20.060  0.00  0.00    +0.000 C 
ENDBRANCH  18  19
ENDBRANCH  15  18
ENDBRANCH   1  14
TORSDOF 5
ENDMDL
MODEL 2
REMARK VINA RESULT:      -7.8      4.451      6.998
REMARK  Name = 
REMARK  6 active torsions:
REMARK  status: ('A' for Active; 'I' for Inactive)
REMARK    1  A    between atoms: C_1  and  S_2
REMARK    2  A    between atoms: S_2  and  C_5
REMARK    3  A    between atoms: C_9  and  S_10
REMARK    4  A    between atoms: S_10  and  N_13
REMARK    5  A    between atoms: C_14  and  C_16
REMARK    6  A    between atoms: C_16  and  C_17
REMARK                            x       y       z     vdW  Elec       q    Type
REMARK                         _______ _______ _______ _____ _____    ______ ____
ROOT
ATOM      1  S   UNL     1       6.844   5.232  17.394  0.00  0.00    +0.000 S 
ATOM      2  O   UNL     1       7.207   6.494  16.791  0.00  0.00    +0.000 OA
ATOM      3  O   UNL     1       7.712   4.598  18.364  0.00  0.00    +0.000 OA
ENDROOT
BRANCH   1   8
ATOM      4  C   UNL     1       3.505   4.542  19.596  0.00  0.00    +0.000 A 
ATOM      5  C   UNL     1       2.710   5.654  19.296  0.00  0.00    +0.000 A 
ATOM      6  C   UNL     1       3.196   6.638  18.434  0.00  0.00    +0.000 A 
ATOM      7  C   UNL     1       4.463   6.502  17.865  0.00  0.00    +0.000 A 
ATOM      8  C   UNL     1       5.247   5.384  18.161  0.00  0.00    +0.000 A 
ATOM      9  C   UNL     1       4.784   4.398  19.039  0.00  0.00    +0.000 A 
BRANCH   4  11
ATOM     10  C   UNL     1       1.642   2.442  19.509  0.00  0.00    +0.000 C 
ATOM     11  S   UNL     1       2.811   3.230  20.580  0.00  0.00    +0.000 S 
ATOM     12  O   UNL     1       2.078   3.856  21.665  0.00  0.00    +0.000 OA
ATOM     13  O   UNL     1       3.876   2.285  20.857  0.00  0.00    +0.000 OA
ENDBRANCH   4  11
ENDBRANCH   1   8
BRANCH   1  14
ATOM     14  N   UNL     1       6.634   4.121  16.177  0.00  0.00    +0.000 N 
ATOM     15  C   UNL     1       5.966   4.381  14.974  0.00  0.00    +0.000 C 
ATOM     16  O   UNL     1       5.436   5.460  14.738  0.00  0.00    +0.000 OA
ATOM     17  H   UNL     1       7.039   3.213  16.386  0.00  0.00    +0.000 HD
BRANCH  15  18
ATOM     18  C   UNL     1       5.947   3.253  13.965  0.00  0.00    +0.000 C 
BRANCH  18  19
ATOM     19  C   UNL     1       5.867   3.727  12.503  0.00  0.00    +0.000 C 
ATOM     20  C   UNL     1       7.243   3.826  11.821  0.00  0.00    +0.000 C 
ATOM     21  C   UNL     1       7.839   2.473  11.439  0.00  0.00    +0.000 C 
ATOM     22  C   UNL     1       6.863   1.633  10.621  0.00  0.00    +0.000 C 
ATOM     23  C   UNL     1       5.529   1.473  11.340  0.00  0.00    +0.000 C 
ATOM     24  C   UNL     1       4.921   2.832  11.683  0.00  0.00    +0.000 C 
ENDBRANCH  18  19
ENDBRANCH  15  18
ENDBRANCH   1  14
TORSDOF 5
ENDMDL
MODEL 3
REMARK VINA RESULT:      -7.8      1.493      1.945
REMARK  Name = 
REMARK  6 active torsions:
REMARK  status: ('A' for Active; 'I' for Inactive)
REMARK    1  A    between atoms: C_1  and  S_2
REMARK    2  A    between atoms: S_2  and  C_5
REMARK    3  A    between atoms: C_9  and  S_10
REMARK    4  A    between atoms: S_10  and  N_13
REMARK    5  A    between atoms: C_14  and  C_16
REMARK    6  A    between atoms: C_16  and  C_17
REMARK                            x       y       z     vdW  Elec       q    Type
REMARK                         _______ _______ _______ _____ _____    ______ ____
ROOT
ATOM      1  S   UNL     1       7.320   5.821  17.598  0.00  0.00    +0.000 S 
ATOM      2  O   UNL     1       7.741   4.515  18.052  0.00  0.00    +0.000 OA
ATOM      3  O   UNL     1       7.499   6.217  16.217  0.00  0.00    +0.000 OA
ENDROOT
BRANCH   1   8
ATOM      4  C   UNL     1       3.567   5.356  19.072  0.00  0.00    +0.000 A 
ATOM      5  C   UNL     1       2.881   6.429  18.492  0.00  0.00    +0.000 A 
ATOM      6  C   UNL     1       3.563   7.319  17.663  0.00  0.00    +0.000 A 
ATOM      7  C   UNL     1       4.921   7.128  17.403  0.00  0.00    +0.000 A 
ATOM      8  C   UNL     1       5.598   6.049  17.976  0.00  0.00    +0.000 A 
ATOM      9  C   UNL     1       4.934   5.158  18.827  0.00  0.00    +0.000 A 
BRANCH   4  11
ATOM     10  C   UNL     1       3.755   2.779  20.173  0.00  0.00    +0.000 C 
ATOM     11  S   UNL     1       2.649   4.152  20.008  0.00  0.00    +0.000 S 
ATOM     12  O   UNL     1       1.532   3.734  19.180  0.00  0.00    +0.000 OA
ATOM     13  O   UNL     1       2.421   4.708  21.328  0.00  0.00    +0.000 OA
ENDBRANCH   4  11
ENDBRANCH   1   8
BRANCH   1  14
ATOM     14  N   UNL     1       8.116   6.962  18.506  0.00  0.00    +0.000 N 
ATOM     15  C   UNL     1       8.260   8.306  18.141  0.00  0.00    +0.000 C 
ATOM     16  O   UNL     1       7.837   8.745  17.078  0.00  0.00    +0.000 OA
ATOM     17  H   UNL     1       8.502   6.592  19.370  0.00  0.00    +0.000 HD
BRANCH  15  18
ATOM     18  C   UNL     1       8.958   9.198  19.144  0.00  0.00    +0.000 C 
BRANCH  18  19
ATOM     19  C   UNL     1       8.918  10.693  18.782  0.00  0.00    +0.000 C 
ATOM     20  C   UNL     1       8.815  11.613  20.012  0.00  0.00    +0.000 C 
ATOM     21  C   UNL     1      10.121  11.749  20.790  0.00  0.00    +0.000 C 
ATOM     22  C   UNL     1      11.282  12.147  19.884  0.00  0.00    +0.000 C 
ATOM     23  C   UNL     1      11.428  11.184  18.711  0.00  0.00    +0.000 C 
ATOM     24  C   UNL     1      10.128  11.084  17.915  0.00  0.00    +0.000 C 
ENDBRANCH  18  19
ENDBRANCH  15  18
ENDBRANCH   1  14
TORSDOF 5
ENDMDL
MODEL 4
REMARK VINA RESULT:      -7.8      0.842      1.045
REMARK  Name = 
REMARK  6 active torsions:
REMARK  status: ('A' for Active; 'I' for Inactive)
REMARK    1  A    between atoms: C_1  and  S_2
REMARK    2  A    between atoms: S_2  and  C_5
REMARK    3  A    between atoms: C_9  and  S_10
REMARK    4  A    between atoms: S_10  and  N_13
REMARK    5  A    between atoms: C_14  and  C_16
REMARK    6  A    between atoms: C_16  and  C_17
REMARK                            x       y       z     vdW  Elec       q    Type
REMARK                         _______ _______ _______ _____ _____    ______ ____
ROOT
ATOM      1  S   UNL     1       6.921   6.131  16.903  0.00  0.00    +0.000 S 
ATOM      2  O   UNL     1       7.823   5.385  17.751  0.00  0.00    +0.000 OA
ATOM      3  O   UNL     1       6.874   5.886  15.477  0.00  0.00    +0.000 OA
ENDROOT
BRANCH   1   8
ATOM      4  C   UNL     1       3.514   4.637  18.525  0.00  0.00    +0.000 A 
ATOM      5  C   UNL     1       2.622   5.708  18.394  0.00  0.00    +0.000 A 
ATOM      6  C   UNL     1       3.060   6.906  17.830  0.00  0.00    +0.000 A 
ATOM      7  C   UNL     1       4.377   7.027  17.385  0.00  0.00    +0.000 A 
ATOM      8  C   UNL     1       5.259   5.950  17.508  0.00  0.00    +0.000 A 
ATOM      9  C   UNL     1       4.843   4.747  18.091  0.00  0.00    +0.000 A 
BRANCH   4  11
ATOM     10  C   UNL     1       3.708   1.868  18.098  0.00  0.00    +0.000 C 
ATOM     11  S   UNL     1       2.898   3.073  19.112  0.00  0.00    +0.000 S 
ATOM     12  O   UNL     1       1.479   3.035  18.811  0.00  0.00    +0.000 OA
ATOM     13  O   UNL     1       3.368   2.905  20.474  0.00  0.00    +0.000 OA
ENDBRANCH   4  11
ENDBRANCH   1   8
BRANCH   1  14
ATOM     14  N   UNL     1       7.269   7.746  17.076  0.00  0.00    +0.000 N 
ATOM     15  C   UNL     1       8.086   8.277  18.082  0.00  0.00    +0.000 C 
ATOM     16  O   UNL     1       8.583   7.580  18.958  0.00  0.00    +0.000 OA
ATOM     17  H   UNL     1       6.826   8.332  16.374  0.00  0.00    +0.000 HD
BRANCH  15  18
ATOM     18  C   UNL     1       8.335   9.768  18.020  0.00  0.00    +0.000 C 
BRANCH  18  19
ATOM     19  C   UNL     1       9.679  10.201  18.633  0.00  0.00    +0.000 C 
ATOM     20  C   UNL     1      10.437  11.225  17.769  0.00  0.00    +0.000 C 
ATOM     21  C   UNL     1       9.856  12.636  17.835  0.00  0.00    +0.000 C 
ATOM     22  C   UNL     1       9.698  13.118  19.273  0.00  0.00    +0.000 C 
ATOM     23  C   UNL     1       8.877  12.136  20.102  0.00  0.00    +0.000 C 
ATOM     24  C   UNL     1       9.488  10.737  20.063  0.00  0.00    +0.000 C 
ENDBRANCH  18  19
ENDBRANCH  15  18
ENDBRANCH   1  14
TORSDOF 5
ENDMDL
MODEL 5
REMARK VINA RESULT:      -7.6      3.882      7.175
REMARK  Name = 
REMARK  6 active torsions:
REMARK  status: ('A' for Active; 'I' for Inactive)
REMARK    1  A    between atoms: C_1  and  S_2
REMARK    2  A    between atoms: S_2  and  C_5
REMARK    3  A    between atoms: C_9  and  S_10
REMARK    4  A    between atoms: S_10  and  N_13
REMARK    5  A    between atoms: C_14  and  C_16
REMARK    6  A    between atoms: C_16  and  C_17
REMARK                            x       y       z     vdW  Elec       q    Type
REMARK                         _______ _______ _______ _____ _____    ______ ____
ROOT
ATOM      1  S   UNL     1       2.483   3.667  20.414  0.00  0.00    +0.000 S 
ATOM      2  O   UNL     1       1.218   3.204  19.889  0.00  0.00    +0.000 OA
ATOM      3  O   UNL     1       3.165   2.932  21.459  0.00  0.00    +0.000 OA
ENDROOT
BRANCH   1   8
ATOM      4  C   UNL     1       5.833   4.409  18.246  0.00  0.00    +0.000 A 
ATOM      5  C   UNL     1       5.404   4.168  16.936  0.00  0.00    +0.000 A 
ATOM      6  C   UNL     1       4.093   3.754  16.703  0.00  0.00    +0.000 A 
ATOM      7  C   UNL     1       3.211   3.597  17.774  0.00  0.00    +0.000 A 
ATOM      8  C   UNL     1       3.642   3.850  19.079  0.00  0.00    +0.000 A 
ATOM      9  C   UNL     1       4.961   4.246  19.332  0.00  0.00    +0.000 A 
BRANCH   4  11
ATOM     10  C   UNL     1       7.455   6.623  17.646  0.00  0.00    +0.000 C 
ATOM     11  S   UNL     1       7.464   5.076  18.508  0.00  0.00    +0.000 S 
ATOM     12  O   UNL     1       8.396   4.191  17.835  0.00  0.00    +0.000 OA
ATOM     13  O   UNL     1       7.598   5.351  19.925  0.00  0.00    +0.000 OA
ENDBRANCH   4  11
ENDBRANCH   1   8
BRANCH   1  14
ATOM     14  N   UNL     1       2.263   5.203  21.007  0.00  0.00    +0.000 N 
ATOM     15  C   UNL     1       1.971   6.323  20.218  0.00  0.00    +0.000 C 
ATOM     16  O   UNL     1       1.897   6.263  18.997  0.00  0.00    +0.000 OA
ATOM     17  H   UNL     1       2.363   5.264  22.017  0.00  0.00    +0.000 HD
BRANCH  15  18
ATOM     18  C   UNL     1       1.736   7.619  20.963  0.00  0.00    +0.000 C 
BRANCH  18  19
ATOM     19  C   UNL     1       0.368   8.262  20.676  0.00  0.00    +0.000 C 
ATOM     20  C   UNL     1      -0.537   8.344  21.919  0.00  0.00    +0.000 C 
ATOM     21  C   UNL     1      -0.132   9.439  22.903  0.00  0.00    +0.000 C 
ATOM     22  C   UNL     1       0.007  10.795  22.217  0.00  0.00    +0.000 C 
ATOM     23  C   UNL     1       0.967  10.724  21.035  0.00  0.00    +0.000 C 
ATOM     24  C   UNL     1       0.533   9.652  20.036  0.00  0.00    +0.000 C 
ENDBRANCH  18  19
ENDBRANCH  15  18
ENDBRANCH   1  14
TORSDOF 5
ENDMDL
MODEL 6
REMARK VINA RESULT:      -7.5      4.352      6.734
REMARK  Name = 
REMARK  6 active torsions:
REMARK  status: ('A' for Active; 'I' for Inactive)
REMARK    1  A    between atoms: C_1  and  S_2
REMARK    2  A    between atoms: S_2  and  C_5
REMARK    3  A    between atoms: C_9  and  S_10
REMARK    4  A    between atoms: S_10  and  N_13
REMARK    5  A    between atoms: C_14  and  C_16
REMARK    6  A    between atoms: C_16  and  C_17
REMARK                            x       y       z     vdW  Elec       q    Type
REMARK                         _______ _______ _______ _____ _____    ______ ____
ROOT
ATOM      1  S   UNL     1       6.545   5.464  17.626  0.00  0.00    +0.000 S 
ATOM      2  O   UNL     1       6.976   6.760  17.154  0.00  0.00    +0.000 OA
ATOM      3  O   UNL     1       7.212   4.823  18.740  0.00  0.00    +0.000 OA
ENDROOT
BRANCH   1   8
ATOM      4  C   UNL     1       2.779   4.481  18.778  0.00  0.00    +0.000 A 
ATOM      5  C   UNL     1       2.090   5.689  18.619  0.00  0.00    +0.000 A 
ATOM      6  C   UNL     1       2.775   6.822  18.180  0.00  0.00    +0.000 A 
ATOM      7  C   UNL     1       4.137   6.744  17.887  0.00  0.00    +0.000 A 
ATOM      8  C   UNL     1       4.817   5.532  18.037  0.00  0.00    +0.000 A 
ATOM      9  C   UNL     1       4.150   4.390  18.496  0.00  0.00    +0.000 A 
BRANCH   4  11
ATOM     10  C   UNL     1       1.213   3.344  20.813  0.00  0.00    +0.000 C 
ATOM     11  S   UNL     1       1.859   3.015  19.198  0.00  0.00    +0.000 S 
ATOM     12  O   UNL     1       2.818   1.931  19.309  0.00  0.00    +0.000 OA
ATOM     13  O   UNL     1       0.744   2.923  18.276  0.00  0.00    +0.000 OA
ENDBRANCH   4  11
ENDBRANCH   1   8
BRANCH   1  14
ATOM     14  N   UNL     1       6.645   4.395  16.359  0.00  0.00    +0.000 N 
ATOM     15  C   UNL     1       6.147   4.641  15.073  0.00  0.00    +0.000 C 
ATOM     16  O   UNL     1       5.548   5.670  14.789  0.00  0.00    +0.000 OA
ATOM     17  H   UNL     1       7.108   3.523  16.602  0.00  0.00    +0.000 HD
BRANCH  15  18
ATOM     18  C   UNL     1       6.406   3.565  14.041  0.00  0.00    +0.000 C 
BRANCH  18  19
ATOM     19  C   UNL     1       6.172   4.024  12.592  0.00  0.00    +0.000 C 
ATOM     20  C   UNL     1       7.435   3.936  11.716  0.00  0.00    +0.000 C 
ATOM     21  C   UNL     1       7.796   2.512  11.298  0.00  0.00    +0.000 C 
ATOM     22  C   UNL     1       6.614   1.792  10.656  0.00  0.00    +0.000 C 
ATOM     23  C   UNL     1       5.389   1.814  11.564  0.00  0.00    +0.000 C 
ATOM     24  C   UNL     1       5.012   3.245  11.945  0.00  0.00    +0.000 C 
ENDBRANCH  18  19
ENDBRANCH  15  18
ENDBRANCH   1  14
TORSDOF 5
ENDMDL
MODEL 7
REMARK VINA RESULT:      -7.4      4.686      6.906
REMARK  Name = 
REMARK  6 active torsions:
REMARK  status: ('A' for Active; 'I' for Inactive)
REMARK    1  A    between atoms: C_1  and  S_2
REMARK    2  A    between atoms: S_2  and  C_5
REMARK    3  A    between atoms: C_9  and  S_10
REMARK    4  A    between atoms: S_10  and  N_13
REMARK    5  A    between atoms: C_14  and  C_16
REMARK    6  A    between atoms: C_16  and  C_17
REMARK                            x       y       z     vdW  Elec       q    Type
REMARK                         _______ _______ _______ _____ _____    ______ ____
ROOT
ATOM      1  S   UNL     1       2.117   4.540  20.033  0.00  0.00    +0.000 S 
ATOM      2  O   UNL     1       2.469   4.321  21.418  0.00  0.00    +0.000 OA
ATOM      3  O   UNL     1       0.942   3.917  19.461  0.00  0.00    +0.000 OA
ENDROOT
BRANCH   1   8
ATOM      4  C   UNL     1       1.480   8.523  20.483  0.00  0.00    +0.000 A 
ATOM      5  C   UNL     1       1.699   9.011  19.190  0.00  0.00    +0.000 A 
ATOM      6  C   UNL     1       2.065   8.131  18.172  0.00  0.00    +0.000 A 
ATOM      7  C   UNL     1       2.197   6.768  18.442  0.00  0.00    +0.000 A 
ATOM      8  C   UNL     1       1.967   6.285  19.733  0.00  0.00    +0.000 A 
ATOM      9  C   UNL     1       1.619   7.157  20.771  0.00  0.00    +0.000 A 
BRANCH   4  11
ATOM     10  C   UNL     1      -0.640   8.903  22.286  0.00  0.00    +0.000 C 
ATOM     11  S   UNL     1       0.874   9.637  21.732  0.00  0.00    +0.000 S 
ATOM     12  O   UNL     1       0.551  10.886  21.066  0.00  0.00    +0.000 OA
ATOM     13  O   UNL     1       1.817   9.610  22.834  0.00  0.00    +0.000 OA
ENDBRANCH   4  11
ENDBRANCH   1   8
BRANCH   1  14
ATOM     14  N   UNL     1       3.396   4.049  19.093  0.00  0.00    +0.000 N 
ATOM     15  C   UNL     1       3.290   3.656  17.753  0.00  0.00    +0.000 C 
ATOM     16  O   UNL     1       2.215   3.602  17.169  0.00  0.00    +0.000 OA
ATOM     17  H   UNL     1       4.284   4.055  19.587  0.00  0.00    +0.000 HD
BRANCH  15  18
ATOM     18  C   UNL     1       4.588   3.313  17.055  0.00  0.00    +0.000 C 
BRANCH  18  19
ATOM     19  C   UNL     1       5.030   4.358  16.015  0.00  0.00    +0.000 C 
ATOM     20  C   UNL     1       4.786   5.808  16.471  0.00  0.00    +0.000 C 
ATOM     21  C   UNL     1       5.784   6.301  17.516  0.00  0.00    +0.000 C 
ATOM     22  C   UNL     1       7.227   6.085  17.069  0.00  0.00    +0.000 C 
ATOM     23  C   UNL     1       7.482   4.629  16.696  0.00  0.00    +0.000 C 
ATOM     24  C   UNL     1       6.504   4.156  15.621  0.00  0.00    +0.000 C 
ENDBRANCH  18  19
ENDBRANCH  15  18
ENDBRANCH   1  14
TORSDOF 5
ENDMDL
MODEL 8
REMARK VINA RESULT:      -7.3      1.030      1.217
REMARK  Name = 
REMARK  6 active torsions:
REMARK  status: ('A' for Active; 'I' for Inactive)
REMARK    1  A    between atoms: C_1  and  S_2
REMARK    2  A    between atoms: S_2  and  C_5
REMARK    3  A    between atoms: C_9  and  S_10
REMARK    4  A    between atoms: S_10  and  N_13
REMARK    5  A    between atoms: C_14  and  C_16
REMARK    6  A    between atoms: C_16  and  C_17
REMARK                            x       y       z     vdW  Elec       q    Type
REMARK                         _______ _______ _______ _____ _____    ______ ____
ROOT
ATOM      1  S   UNL     1       7.160   6.504  17.353  0.00  0.00    +0.000 S 
ATOM      2  O   UNL     1       7.972   5.979  18.429  0.00  0.00    +0.000 OA
ATOM      3  O   UNL     1       7.304   5.998  16.004  0.00  0.00    +0.000 OA
ENDROOT
BRANCH   1   8
ATOM      4  C   UNL     1       3.622   5.124  18.785  0.00  0.00    +0.000 A 
ATOM      5  C   UNL     1       2.724   6.116  18.376  0.00  0.00    +0.000 A 
ATOM      6  C   UNL     1       3.194   7.229  17.678  0.00  0.00    +0.000 A 
ATOM      7  C   UNL     1       4.552   7.341  17.378  0.00  0.00    +0.000 A 
ATOM      8  C   UNL     1       5.442   6.341  17.779  0.00  0.00    +0.000 A 
ATOM      9  C   UNL     1       4.991   5.228  18.498  0.00  0.00    +0.000 A 
BRANCH   4  11
ATOM     10  C   UNL     1       2.039   4.227  20.925  0.00  0.00    +0.000 C 
ATOM     11  S   UNL     1       2.983   3.645  19.544  0.00  0.00    +0.000 S 
ATOM     12  O   UNL     1       4.122   2.906  20.056  0.00  0.00    +0.000 OA
ATOM     13  O   UNL     1       2.069   3.032  18.600  0.00  0.00    +0.000 OA
ENDBRANCH   4  11
ENDBRANCH   1   8
BRANCH   1  14
ATOM     14  N   UNL     1       7.428   8.140  17.258  0.00  0.00    +0.000 N 
ATOM     15  C   UNL     1       8.275   8.856  18.112  0.00  0.00    +0.000 C 
ATOM     16  O   UNL     1       8.865   8.325  19.045  0.00  0.00    +0.000 OA
ATOM     17  H   UNL     1       6.909   8.590  16.508  0.00  0.00    +0.000 HD
BRANCH  15  18
ATOM     18  C   UNL     1       8.436  10.330  17.810  0.00  0.00    +0.000 C 
BRANCH  18  19
ATOM     19  C   UNL     1       9.295  11.086  18.839  0.00  0.00    +0.000 C 
ATOM     20  C   UNL     1      10.777  11.190  18.433  0.00  0.00    +0.000 C 
ATOM     21  C   UNL     1      11.043  12.213  17.331  0.00  0.00    +0.000 C 
ATOM     22  C   UNL     1      10.454  13.579  17.671  0.00  0.00    +0.000 C 
ATOM     23  C   UNL     1       8.968  13.479  17.994  0.00  0.00    +0.000 C 
ATOM     24  C   UNL     1       8.714  12.483  19.124  0.00  0.00    +0.000 C 
ENDBRANCH  18  19
ENDBRANCH  15  18
ENDBRANCH   1  14
TORSDOF 5
ENDMDL
MODEL 9
REMARK VINA RESULT:      -7.3      4.729      6.832
REMARK  Name = 
REMARK  6 active torsions:
REMARK  status: ('A' for Active; 'I' for Inactive)
REMARK    1  A    between atoms: C_1  and  S_2
REMARK    2  A    between atoms: S_2  and  C_5
REMARK    3  A    between atoms: C_9  and  S_10
REMARK    4  A    between atoms: S_10  and  N_13
REMARK    5  A    between atoms: C_14  and  C_16
REMARK    6  A    between atoms: C_16  and  C_17
REMARK                            x       y       z     vdW  Elec       q    Type
REMARK                         _______ _______ _______ _____ _____    ______ ____
ROOT
ATOM      1  S   UNL     1       3.460   5.516  18.771  0.00  0.00    +0.000 S 
ATOM      2  O   UNL     1       4.621   5.545  19.632  0.00  0.00    +0.000 OA
ATOM      3  O   UNL     1       2.462   4.476  18.910  0.00  0.00    +0.000 OA
ENDROOT
BRANCH   1   8
ATOM      4  C   UNL     1       1.325   8.686  20.136  0.00  0.00    +0.000 A 
ATOM      5  C   UNL     1       1.223   9.494  18.998  0.00  0.00    +0.000 A 
ATOM      6  C   UNL     1       1.825   9.088  17.807  0.00  0.00    +0.000 A 
ATOM      7  C   UNL     1       2.513   7.875  17.751  0.00  0.00    +0.000 A 
ATOM      8  C   UNL     1       2.602   7.068  18.888  0.00  0.00    +0.000 A 
ATOM      9  C   UNL     1       2.021   7.469  20.097  0.00  0.00    +0.000 A 
BRANCH   4  11
ATOM     10  C   UNL     1      -0.307  10.709  21.200  0.00  0.00    +0.000 C 
ATOM     11  S   UNL     1       0.428   9.149  21.603  0.00  0.00    +0.000 S 
ATOM     12  O   UNL     1       1.411   9.372  22.648  0.00  0.00    +0.000 OA
ATOM     13  O   UNL     1      -0.637   8.182  21.785  0.00  0.00    +0.000 OA
ENDBRANCH   4  11
ENDBRANCH   1   8
BRANCH   1  14
ATOM     14  N   UNL     1       3.988   5.433  17.198  0.00  0.00    +0.000 N 
ATOM     15  C   UNL     1       5.141   6.063  16.715  0.00  0.00    +0.000 C 
ATOM     16  O   UNL     1       5.843   6.776  17.421  0.00  0.00    +0.000 OA
ATOM     17  H   UNL     1       3.386   4.873  16.600  0.00  0.00    +0.000 HD
BRANCH  15  18
ATOM     18  C   UNL     1       5.486   5.802  15.265  0.00  0.00    +0.000 C 
BRANCH  18  19
ATOM     19  C   UNL     1       6.416   4.595  15.054  0.00  0.00    +0.000 C 
ATOM     20  C   UNL     1       5.742   3.433  14.302  0.00  0.00    +0.000 C 
ATOM     21  C   UNL     1       5.581   3.680  12.804  0.00  0.00    +0.000 C 
ATOM     22  C   UNL     1       6.900   4.084  12.151  0.00  0.00    +0.000 C 
ATOM     23  C   UNL     1       7.522   5.286  12.852  0.00  0.00    +0.000 C 
ATOM     24  C   UNL     1       7.715   5.016  14.343  0.00  0.00    +0.000 C 
ENDBRANCH  18  19
ENDBRANCH  15  18
ENDBRANCH   1  14
TORSDOF 5
ENDMDL
