MODEL 1
REMARK VINA RESULT:      -5.8      0.000      0.000
REMARK  Name = 
REMARK  23 active torsions:
REMARK  status: ('A' for Active; 'I' for Inactive)
REMARK    1  A    between atoms: C_1  and  C_2
REMARK    2  A    between atoms: C_2  and  C_3
REMARK    3  A    between atoms: C_3  and  C_4
REMARK    4  A    between atoms: C_4  and  C_5
REMARK    5  A    between atoms: C_5  and  C_6
REMARK    6  A    between atoms: C_6  and  C_7
REMARK    7  A    between atoms: C_7  and  C_8
REMARK    8  A    between atoms: C_8  and  C_9
REMARK    9  A    between atoms: C_9  and  C_10
REMARK   10  A    between atoms: C_10  and  C_11
REMARK   11  A    between atoms: C_11  and  C_12
REMARK   12  A    between atoms: C_12  and  C_13
REMARK   13  A    between atoms: C_13  and  C_14
REMARK   14  A    between atoms: C_14  and  S_15
REMARK   15  A    between atoms: S_15  and  N_18
REMARK   16  A    between atoms: N_18  and  C_19
REMARK   17  A    between atoms: N_18  and  C_20
REMARK   18  A    between atoms: C_20  and  C_21
REMARK   19  A    between atoms: C_21  and  N_22
REMARK   20  A    between atoms: N_22  and  C_23
REMARK   21  A    between atoms: N_22  and  C_24
REMARK   22  A    between atoms: N_22  and  C_25
REMARK   23  A    between atoms: C_25  and  C_26
REMARK                            x       y       z     vdW  Elec       q    Type
REMARK                         _______ _______ _______ _____ _____    ______ ____
ROOT
ATOM      1  C   UNL     1       7.824   7.877  17.786  0.00  0.00    +0.000 C 
ENDROOT
BRANCH   1   2
ATOM      2  C   UNL     1       7.611   6.502  18.368  0.00  0.00    +0.000 C 
BRANCH   2   3
ATOM      3  S   UNL     1       7.272   5.383  17.041  0.00  0.00    +0.000 S 
ATOM      4  O   UNL     1       7.386   6.172  15.844  0.00  0.00    +0.000 OA
ATOM      5  O   UNL     1       8.054   4.169  17.211  0.00  0.00    +0.000 OA
BRANCH   3   6
ATOM      6  N   UNL     1       5.614   4.979  17.261  0.00  0.00    +0.000 NA
ATOM      7  C   UNL     1       5.084   3.867  16.389  0.00  0.00    +0.000 C 
BRANCH   6   8
ATOM      8  C   UNL     1       5.275   4.714  18.682  0.00  0.00    +0.000 C 
BRANCH   8   9
ATOM      9  C   UNL     1       3.898   5.282  19.134  0.00  0.00    +0.000 C 
BRANCH   9  10
ATOM     10  N   UNL     1       2.953   4.174  19.635  0.00  0.00    +0.000 N 
ATOM     11  C   UNL     1       3.726   2.864  19.704  0.00  0.00    +0.000 C 
ATOM     12  C   UNL     1       2.378   4.555  21.003  0.00  0.00    +0.000 C 
BRANCH  10  13
ATOM     13  C   UNL     1       1.796   4.044  18.607  0.00  0.00    +0.000 C 
ATOM     14  C   UNL     1       1.221   2.641  18.567  0.00  0.00    +0.000 C 
ENDBRANCH  10  13
ENDBRANCH   9  10
ENDBRANCH   8   9
ENDBRANCH   6   8
ENDBRANCH   3   6
ENDBRANCH   2   3
ENDBRANCH   1   2
BRANCH   1  15
ATOM     15  C   UNL     1       8.681   8.711  18.700  0.00  0.00    +0.000 C 
BRANCH  15  16
ATOM     16  C   UNL     1       8.807  10.107  18.121  0.00  0.00    +0.000 C 
BRANCH  16  17
ATOM     17  C   UNL     1       9.771  10.925  18.956  0.00  0.00    +0.000 C 
BRANCH  17  18
ATOM     18  C   UNL     1      10.812  11.567  18.059  0.00  0.00    +0.000 C 
BRANCH  18  19
ATOM     19  C   UNL     1      11.832  12.306  18.907  0.00  0.00    +0.000 C 
BRANCH  19  20
ATOM     20  C   UNL     1      11.809  13.785  18.570  0.00  0.00    +0.000 C 
BRANCH  20  21
ATOM     21  C   UNL     1      10.797  14.050  17.470  0.00  0.00    +0.000 C 
BRANCH  21  22
ATOM     22  C   UNL     1       9.745  15.028  17.960  0.00  0.00    +0.000 C 
BRANCH  22  23
ATOM     23  C   UNL     1      10.164  15.622  19.294  0.00  0.00    +0.000 C 
BRANCH  23  24
ATOM     24  C   UNL     1      10.205  17.138  19.200  0.00  0.00    +0.000 C 
BRANCH  24  26
ATOM     25  C   UNL     1      11.540  18.268  17.417  0.00  0.00    +0.000 C 
ATOM     26  C   UNL     1      10.229  17.579  17.742  0.00  0.00    +0.000 C 
ENDBRANCH  24  26
ENDBRANCH  23  24
ENDBRANCH  22  23
ENDBRANCH  21  22
ENDBRANCH  20  21
ENDBRANCH  19  20
ENDBRANCH  18  19
ENDBRANCH  17  18
ENDBRANCH  16  17
ENDBRANCH  15  16
ENDBRANCH   1  15
TORSDOF 18
ENDMDL
MODEL 2
REMARK VINA RESULT:      -5.8      1.459      2.414
REMARK  Name = 
REMARK  23 active torsions:
REMARK  status: ('A' for Active; 'I' for Inactive)
REMARK    1  A    between atoms: C_1  and  C_2
REMARK    2  A    between atoms: C_2  and  C_3
REMARK    3  A    between atoms: C_3  and  C_4
REMARK    4  A    between atoms: C_4  and  C_5
REMARK    5  A    between atoms: C_5  and  C_6
REMARK    6  A    between atoms: C_6  and  C_7
REMARK    7  A    between atoms: C_7  and  C_8
REMARK    8  A    between atoms: C_8  and  C_9
REMARK    9  A    between atoms: C_9  and  C_10
REMARK   10  A    between atoms: C_10  and  C_11
REMARK   11  A    between atoms: C_11  and  C_12
REMARK   12  A    between atoms: C_12  and  C_13
REMARK   13  A    between atoms: C_13  and  C_14
REMARK   14  A    between atoms: C_14  and  S_15
REMARK   15  A    between atoms: S_15  and  N_18
REMARK   16  A    between atoms: N_18  and  C_19
REMARK   17  A    between atoms: N_18  and  C_20
REMARK   18  A    between atoms: C_20  and  C_21
REMARK   19  A    between atoms: C_21  and  N_22
REMARK   20  A    between atoms: N_22  and  C_23
REMARK   21  A    between atoms: N_22  and  C_24
REMARK   22  A    between atoms: N_22  and  C_25
REMARK   23  A    between atoms: C_25  and  C_26
REMARK                            x       y       z     vdW  Elec       q    Type
REMARK                         _______ _______ _______ _____ _____    ______ ____
ROOT
ATOM      1  C   UNL     1       7.674   8.264  17.362  0.00  0.00    +0.000 C 
ENDROOT
BRANCH   1   2
ATOM      2  C   UNL     1       7.962   7.132  18.317  0.00  0.00    +0.000 C 
BRANCH   2   3
ATOM      3  S   UNL     1       7.287   5.646  17.636  0.00  0.00    +0.000 S 
ATOM      4  O   UNL     1       7.314   5.838  16.211  0.00  0.00    +0.000 OA
ATOM      5  O   UNL     1       7.927   4.492  18.245  0.00  0.00    +0.000 OA
BRANCH   3   6
ATOM      6  N   UNL     1       5.645   5.671  18.149  0.00  0.00    +0.000 NA
ATOM      7  C   UNL     1       4.646   6.183  17.139  0.00  0.00    +0.000 C 
BRANCH   6   8
ATOM      8  C   UNL     1       5.195   4.364  18.688  0.00  0.00    +0.000 C 
BRANCH   8   9
ATOM      9  C   UNL     1       3.813   4.400  19.403  0.00  0.00    +0.000 C 
BRANCH   9  10
ATOM     10  N   UNL     1       2.868   3.298  18.889  0.00  0.00    +0.000 N 
ATOM     11  C   UNL     1       1.792   3.938  18.025  0.00  0.00    +0.000 C 
ATOM     12  C   UNL     1       3.663   2.250  18.104  0.00  0.00    +0.000 C 
BRANCH  10  13
ATOM     13  C   UNL     1       2.212   2.627  20.127  0.00  0.00    +0.000 C 
ATOM     14  C   UNL     1       0.995   3.390  20.614  0.00  0.00    +0.000 C 
ENDBRANCH  10  13
ENDBRANCH   9  10
ENDBRANCH   8   9
ENDBRANCH   6   8
ENDBRANCH   3   6
ENDBRANCH   2   3
ENDBRANCH   1   2
BRANCH   1  15
ATOM     15  C   UNL     1       8.073   9.582  17.970  0.00  0.00    +0.000 C 
BRANCH  15  16
ATOM     16  C   UNL     1       9.013   9.325  19.132  0.00  0.00    +0.000 C 
BRANCH  16  17
ATOM     17  C   UNL     1       9.862  10.554  19.388  0.00  0.00    +0.000 C 
BRANCH  17  18
ATOM     18  C   UNL     1       9.397  11.246  20.656  0.00  0.00    +0.000 C 
BRANCH  18  19
ATOM     19  C   UNL     1       9.802  12.708  20.618  0.00  0.00    +0.000 C 
BRANCH  19  20
ATOM     20  C   UNL     1       8.680  13.570  21.166  0.00  0.00    +0.000 C 
BRANCH  20  21
ATOM     21  C   UNL     1       8.020  14.340  20.037  0.00  0.00    +0.000 C 
BRANCH  21  22
ATOM     22  C   UNL     1       8.716  14.031  18.724  0.00  0.00    +0.000 C 
BRANCH  22  23
ATOM     23  C   UNL     1       9.360  15.290  18.167  0.00  0.00    +0.000 C 
BRANCH  23  24
ATOM     24  C   UNL     1      10.825  15.032  17.854  0.00  0.00    +0.000 C 
BRANCH  24  26
ATOM     25  C   UNL     1      12.028  12.873  17.492  0.00  0.00    +0.000 C 
ATOM     26  C   UNL     1      10.969  13.813  16.952  0.00  0.00    +0.000 C 
ENDBRANCH  24  26
ENDBRANCH  23  24
ENDBRANCH  22  23
ENDBRANCH  21  22
ENDBRANCH  20  21
ENDBRANCH  19  20
ENDBRANCH  18  19
ENDBRANCH  17  18
ENDBRANCH  16  17
ENDBRANCH  15  16
ENDBRANCH   1  15
TORSDOF 18
ENDMDL
MODEL 3
REMARK VINA RESULT:      -5.7      1.132      1.927
REMARK  Name = 
REMARK  23 active torsions:
REMARK  status: ('A' for Active; 'I' for Inactive)
REMARK    1  A    between atoms: C_1  and  C_2
REMARK    2  A    between atoms: C_2  and  C_3
REMARK    3  A    between atoms: C_3  and  C_4
REMARK    4  A    between atoms: C_4  and  C_5
REMARK    5  A    between atoms: C_5  and  C_6
REMARK    6  A    between atoms: C_6  and  C_7
REMARK    7  A    between atoms: C_7  and  C_8
REMARK    8  A    between atoms: C_8  and  C_9
REMARK    9  A    between atoms: C_9  and  C_10
REMARK   10  A    between atoms: C_10  and  C_11
REMARK   11  A    between atoms: C_11  and  C_12
REMARK   12  A    between atoms: C_12  and  C_13
REMARK   13  A    between atoms: C_13  and  C_14
REMARK   14  A    between atoms: C_14  and  S_15
REMARK   15  A    between atoms: S_15  and  N_18
REMARK   16  A    between atoms: N_18  and  C_19
REMARK   17  A    between atoms: N_18  and  C_20
REMARK   18  A    between atoms: C_20  and  C_21
REMARK   19  A    between atoms: C_21  and  N_22
REMARK   20  A    between atoms: N_22  and  C_23
REMARK   21  A    between atoms: N_22  and  C_24
REMARK   22  A    between atoms: N_22  and  C_25
REMARK   23  A    between atoms: C_25  and  C_26
REMARK                            x       y       z     vdW  Elec       q    Type
REMARK                         _______ _______ _______ _____ _____    ______ ____
ROOT
ATOM      1  C   UNL     1       7.866   7.880  17.354  0.00  0.00    +0.000 C 
ENDROOT
BRANCH   1   2
ATOM      2  C   UNL     1       7.488   6.651  18.142  0.00  0.00    +0.000 C 
BRANCH   2   3
ATOM      3  S   UNL     1       7.258   5.313  17.009  0.00  0.00    +0.000 S 
ATOM      4  O   UNL     1       7.348   5.906  15.702  0.00  0.00    +0.000 OA
ATOM      5  O   UNL     1       8.115   4.200  17.383  0.00  0.00    +0.000 OA
BRANCH   3   6
ATOM      6  N   UNL     1       5.627   4.833  17.269  0.00  0.00    +0.000 NA
ATOM      7  C   UNL     1       5.052   3.870  16.259  0.00  0.00    +0.000 C 
BRANCH   6   8
ATOM      8  C   UNL     1       5.394   4.324  18.644  0.00  0.00    +0.000 C 
BRANCH   8   9
ATOM      9  C   UNL     1       4.396   5.170  19.486  0.00  0.00    +0.000 C 
BRANCH   9  10
ATOM     10  N   UNL     1       3.009   4.506  19.578  0.00  0.00    +0.000 N 
ATOM     11  C   UNL     1       3.163   3.012  19.332  0.00  0.00    +0.000 C 
ATOM     12  C   UNL     1       2.384   4.785  20.948  0.00  0.00    +0.000 C 
BRANCH  10  13
ATOM     13  C   UNL     1       2.117   5.128  18.468  0.00  0.00    +0.000 C 
ATOM     14  C   UNL     1       1.466   4.070  17.598  0.00  0.00    +0.000 C 
ENDBRANCH  10  13
ENDBRANCH   9  10
ENDBRANCH   8   9
ENDBRANCH   6   8
ENDBRANCH   3   6
ENDBRANCH   2   3
ENDBRANCH   1   2
BRANCH   1  15
ATOM     15  C   UNL     1       7.736   9.115  18.205  0.00  0.00    +0.000 C 
BRANCH  15  16
ATOM     16  C   UNL     1       8.993   9.951  18.056  0.00  0.00    +0.000 C 
BRANCH  16  17
ATOM     17  C   UNL     1       9.440  10.453  19.414  0.00  0.00    +0.000 C 
BRANCH  17  18
ATOM     18  C   UNL     1      10.256  11.722  19.251  0.00  0.00    +0.000 C 
BRANCH  18  19
ATOM     19  C   UNL     1      11.115  11.620  18.004  0.00  0.00    +0.000 C 
BRANCH  19  20
ATOM     20  C   UNL     1      11.089  12.936  17.249  0.00  0.00    +0.000 C 
BRANCH  20  21
ATOM     21  C   UNL     1      10.430  14.007  18.099  0.00  0.00    +0.000 C 
BRANCH  21  22
ATOM     22  C   UNL     1      11.457  15.045  18.512  0.00  0.00    +0.000 C 
BRANCH  22  23
ATOM     23  C   UNL     1      10.886  15.942  19.597  0.00  0.00    +0.000 C 
BRANCH  23  24
ATOM     24  C   UNL     1       9.736  15.241  20.301  0.00  0.00    +0.000 C 
BRANCH  24  26
ATOM     25  C   UNL     1       9.213  13.708  22.203  0.00  0.00    +0.000 C 
ATOM     26  C   UNL     1      10.170  14.761  21.681  0.00  0.00    +0.000 C 
ENDBRANCH  24  26
ENDBRANCH  23  24
ENDBRANCH  22  23
ENDBRANCH  21  22
ENDBRANCH  20  21
ENDBRANCH  19  20
ENDBRANCH  18  19
ENDBRANCH  17  18
ENDBRANCH  16  17
ENDBRANCH  15  16
ENDBRANCH   1  15
TORSDOF 18
ENDMDL
MODEL 4
REMARK VINA RESULT:      -5.7      3.108      4.156
REMARK  Name = 
REMARK  23 active torsions:
REMARK  status: ('A' for Active; 'I' for Inactive)
REMARK    1  A    between atoms: C_1  and  C_2
REMARK    2  A    between atoms: C_2  and  C_3
REMARK    3  A    between atoms: C_3  and  C_4
REMARK    4  A    between atoms: C_4  and  C_5
REMARK    5  A    between atoms: C_5  and  C_6
REMARK    6  A    between atoms: C_6  and  C_7
REMARK    7  A    between atoms: C_7  and  C_8
REMARK    8  A    between atoms: C_8  and  C_9
REMARK    9  A    between atoms: C_9  and  C_10
REMARK   10  A    between atoms: C_10  and  C_11
REMARK   11  A    between atoms: C_11  and  C_12
REMARK   12  A    between atoms: C_12  and  C_13
REMARK   13  A    between atoms: C_13  and  C_14
REMARK   14  A    between atoms: C_14  and  S_15
REMARK   15  A    between atoms: S_15  and  N_18
REMARK   16  A    between atoms: N_18  and  C_19
REMARK   17  A    between atoms: N_18  and  C_20
REMARK   18  A    between atoms: C_20  and  C_21
REMARK   19  A    between atoms: C_21  and  N_22
REMARK   20  A    between atoms: N_22  and  C_23
REMARK   21  A    between atoms: N_22  and  C_24
REMARK   22  A    between atoms: N_22  and  C_25
REMARK   23  A    between atoms: C_25  and  C_26
REMARK                            x       y       z     vdW  Elec       q    Type
REMARK                         _______ _______ _______ _____ _____    ______ ____
ROOT
ATOM      1  C   UNL     1       8.061   7.690  18.360  0.00  0.00    +0.000 C 
ENDROOT
BRANCH   1   2
ATOM      2  C   UNL     1       7.408   6.825  17.311  0.00  0.00    +0.000 C 
BRANCH   2   3
ATOM      3  S   UNL     1       7.294   5.177  17.943  0.00  0.00    +0.000 S 
ATOM      4  O   UNL     1       7.961   4.353  16.969  0.00  0.00    +0.000 OA
ATOM      5  O   UNL     1       7.699   5.156  19.339  0.00  0.00    +0.000 OA
BRANCH   3   6
ATOM      6  N   UNL     1       5.611   4.830  17.875  0.00  0.00    +0.000 NA
ATOM      7  C   UNL     1       5.168   3.920  16.756  0.00  0.00    +0.000 C 
BRANCH   6   8
ATOM      8  C   UNL     1       5.078   4.335  19.170  0.00  0.00    +0.000 C 
BRANCH   8   9
ATOM      9  C   UNL     1       3.936   3.286  19.040  0.00  0.00    +0.000 C 
BRANCH   9  10
ATOM     10  N   UNL     1       2.694   3.680  19.861  0.00  0.00    +0.000 N 
ATOM     11  C   UNL     1       2.584   2.751  21.062  0.00  0.00    +0.000 C 
ATOM     12  C   UNL     1       2.797   5.145  20.297  0.00  0.00    +0.000 C 
BRANCH  10  13
ATOM     13  C   UNL     1       1.451   3.500  18.947  0.00  0.00    +0.000 C 
ATOM     14  C   UNL     1       1.581   4.272  17.647  0.00  0.00    +0.000 C 
ENDBRANCH  10  13
ENDBRANCH   9  10
ENDBRANCH   8   9
ENDBRANCH   6   8
ENDBRANCH   3   6
ENDBRANCH   2   3
ENDBRANCH   1   2
BRANCH   1  15
ATOM     15  C   UNL     1       8.113   9.124  17.906  0.00  0.00    +0.000 C 
BRANCH  15  16
ATOM     16  C   UNL     1       9.000   9.911  18.852  0.00  0.00    +0.000 C 
BRANCH  16  17
ATOM     17  C   UNL     1       9.889  10.850  18.062  0.00  0.00    +0.000 C 
BRANCH  17  18
ATOM     18  C   UNL     1      10.153  12.108  18.868  0.00  0.00    +0.000 C 
BRANCH  18  19
ATOM     19  C   UNL     1       9.171  12.191  20.022  0.00  0.00    +0.000 C 
BRANCH  19  20
ATOM     20  C   UNL     1       9.923  12.366  21.328  0.00  0.00    +0.000 C 
BRANCH  20  21
ATOM     21  C   UNL     1       9.396  13.582  22.069  0.00  0.00    +0.000 C 
BRANCH  21  22
ATOM     22  C   UNL     1       8.162  13.207  22.869  0.00  0.00    +0.000 C 
BRANCH  22  23
ATOM     23  C   UNL     1       8.337  11.828  23.483  0.00  0.00    +0.000 C 
BRANCH  23  24
ATOM     24  C   UNL     1       7.194  11.534  24.440  0.00  0.00    +0.000 C 
BRANCH  24  26
ATOM     25  C   UNL     1       6.076  12.730  26.327  0.00  0.00    +0.000 C 
ATOM     26  C   UNL     1       7.404  12.269  25.759  0.00  0.00    +0.000 C 
ENDBRANCH  24  26
ENDBRANCH  23  24
ENDBRANCH  22  23
ENDBRANCH  21  22
ENDBRANCH  20  21
ENDBRANCH  19  20
ENDBRANCH  18  19
ENDBRANCH  17  18
ENDBRANCH  16  17
ENDBRANCH  15  16
ENDBRANCH   1  15
TORSDOF 18
ENDMDL
MODEL 5
REMARK VINA RESULT:      -5.7      6.923     11.466
REMARK  Name = 
REMARK  23 active torsions:
REMARK  status: ('A' for Active; 'I' for Inactive)
REMARK    1  A    between atoms: C_1  and  C_2
REMARK    2  A    between atoms: C_2  and  C_3
REMARK    3  A    between atoms: C_3  and  C_4
REMARK    4  A    between atoms: C_4  and  C_5
REMARK    5  A    between atoms: C_5  and  C_6
REMARK    6  A    between atoms: C_6  and  C_7
REMARK    7  A    between atoms: C_7  and  C_8
REMARK    8  A    between atoms: C_8  and  C_9
REMARK    9  A    between atoms: C_9  and  C_10
REMARK   10  A    between atoms: C_10  and  C_11
REMARK   11  A    between atoms: C_11  and  C_12
REMARK   12  A    between atoms: C_12  and  C_13
REMARK   13  A    between atoms: C_13  and  C_14
REMARK   14  A    between atoms: C_14  and  S_15
REMARK   15  A    between atoms: S_15  and  N_18
REMARK   16  A    between atoms: N_18  and  C_19
REMARK   17  A    between atoms: N_18  and  C_20
REMARK   18  A    between atoms: C_20  and  C_21
REMARK   19  A    between atoms: C_21  and  N_22
REMARK   20  A    between atoms: N_22  and  C_23
REMARK   21  A    between atoms: N_22  and  C_24
REMARK   22  A    between atoms: N_22  and  C_25
REMARK   23  A    between atoms: C_25  and  C_26
REMARK                            x       y       z     vdW  Elec       q    Type
REMARK                         _______ _______ _______ _____ _____    ______ ____
ROOT
ATOM      1  C   UNL     1       1.106   7.520  20.880  0.00  0.00    +0.000 C 
ENDROOT
BRANCH   1   2
ATOM      2  C   UNL     1       1.482   8.793  21.596  0.00  0.00    +0.000 C 
BRANCH   2   3
ATOM      3  S   UNL     1       0.059   9.380  22.468  0.00  0.00    +0.000 S 
ATOM      4  O   UNL     1      -0.978   8.424  22.185  0.00  0.00    +0.000 OA
ATOM      5  O   UNL     1       0.421   9.702  23.839  0.00  0.00    +0.000 OA
BRANCH   3   6
ATOM      6  N   UNL     1      -0.333  10.850  21.666  0.00  0.00    +0.000 NA
ATOM      7  C   UNL     1      -0.905  11.944  22.535  0.00  0.00    +0.000 C 
BRANCH   6   8
ATOM      8  C   UNL     1       0.796  11.380  20.861  0.00  0.00    +0.000 C 
BRANCH   8   9
ATOM      9  C   UNL     1       0.852  12.933  20.771  0.00  0.00    +0.000 C 
BRANCH   9  10
ATOM     10  N   UNL     1       0.814  13.428  19.314  0.00  0.00    +0.000 N 
ATOM     11  C   UNL     1      -0.453  12.908  18.651  0.00  0.00    +0.000 C 
ATOM     12  C   UNL     1       0.873  14.959  19.279  0.00  0.00    +0.000 C 
BRANCH  10  13
ATOM     13  C   UNL     1       2.059  12.848  18.588  0.00  0.00    +0.000 C 
ATOM     14  C   UNL     1       3.092  13.915  18.281  0.00  0.00    +0.000 C 
ENDBRANCH  10  13
ENDBRANCH   9  10
ENDBRANCH   8   9
ENDBRANCH   6   8
ENDBRANCH   3   6
ENDBRANCH   2   3
ENDBRANCH   1   2
BRANCH   1  15
ATOM     15  C   UNL     1       2.336   6.827  20.356  0.00  0.00    +0.000 C 
BRANCH  15  16
ATOM     16  C   UNL     1       2.495   7.151  18.882  0.00  0.00    +0.000 C 
BRANCH  16  17
ATOM     17  C   UNL     1       2.520   5.870  18.074  0.00  0.00    +0.000 C 
BRANCH  17  18
ATOM     18  C   UNL     1       3.880   5.697  17.426  0.00  0.00    +0.000 C 
BRANCH  18  19
ATOM     19  C   UNL     1       4.845   5.077  18.420  0.00  0.00    +0.000 C 
BRANCH  19  20
ATOM     20  C   UNL     1       4.383   3.679  18.786  0.00  0.00    +0.000 C 
BRANCH  20  21
ATOM     21  C   UNL     1       4.104   2.880  17.526  0.00  0.00    +0.000 C 
BRANCH  21  22
ATOM     22  C   UNL     1       2.797   2.121  17.672  0.00  0.00    +0.000 C 
BRANCH  22  23
ATOM     23  C   UNL     1       2.343   2.140  19.122  0.00  0.00    +0.000 C 
BRANCH  23  24
ATOM     24  C   UNL     1       0.943   2.723  19.223  0.00  0.00    +0.000 C 
BRANCH  24  26
ATOM     25  C   UNL     1       1.928   3.229  21.462  0.00  0.00    +0.000 C 
ATOM     26  C   UNL     1       0.802   3.546  20.497  0.00  0.00    +0.000 C 
ENDBRANCH  24  26
ENDBRANCH  23  24
ENDBRANCH  22  23
ENDBRANCH  21  22
ENDBRANCH  20  21
ENDBRANCH  19  20
ENDBRANCH  18  19
ENDBRANCH  17  18
ENDBRANCH  16  17
ENDBRANCH  15  16
ENDBRANCH   1  15
TORSDOF 18
ENDMDL
MODEL 6
REMARK VINA RESULT:      -5.6      2.803      3.467
REMARK  Name = 
REMARK  23 active torsions:
REMARK  status: ('A' for Active; 'I' for Inactive)
REMARK    1  A    between atoms: C_1  and  C_2
REMARK    2  A    between atoms: C_2  and  C_3
REMARK    3  A    between atoms: C_3  and  C_4
REMARK    4  A    between atoms: C_4  and  C_5
REMARK    5  A    between atoms: C_5  and  C_6
REMARK    6  A    between atoms: C_6  and  C_7
REMARK    7  A    between atoms: C_7  and  C_8
REMARK    8  A    between atoms: C_8  and  C_9
REMARK    9  A    between atoms: C_9  and  C_10
REMARK   10  A    between atoms: C_10  and  C_11
REMARK   11  A    between atoms: C_11  and  C_12
REMARK   12  A    between atoms: C_12  and  C_13
REMARK   13  A    between atoms: C_13  and  C_14
REMARK   14  A    between atoms: C_14  and  S_15
REMARK   15  A    between atoms: S_15  and  N_18
REMARK   16  A    between atoms: N_18  and  C_19
REMARK   17  A    between atoms: N_18  and  C_20
REMARK   18  A    between atoms: C_20  and  C_21
REMARK   19  A    between atoms: C_21  and  N_22
REMARK   20  A    between atoms: N_22  and  C_23
REMARK   21  A    between atoms: N_22  and  C_24
REMARK   22  A    between atoms: N_22  and  C_25
REMARK   23  A    between atoms: C_25  and  C_26
REMARK                            x       y       z     vdW  Elec       q    Type
REMARK                         _______ _______ _______ _____ _____    ______ ____
ROOT
ATOM      1  C   UNL     1       8.195   8.020  18.371  0.00  0.00    +0.000 C 
ENDROOT
BRANCH   1   2
ATOM      2  C   UNL     1       7.662   7.139  17.268  0.00  0.00    +0.000 C 
BRANCH   2   3
ATOM      3  S   UNL     1       7.298   5.550  17.954  0.00  0.00    +0.000 S 
ATOM      4  O   UNL     1       7.650   4.607  16.927  0.00  0.00    +0.000 OA
ATOM      5  O   UNL     1       7.867   5.449  19.287  0.00  0.00    +0.000 OA
BRANCH   3   6
ATOM      6  N   UNL     1       5.584   5.557  18.110  0.00  0.00    +0.000 NA
ATOM      7  C   UNL     1       4.846   6.549  17.244  0.00  0.00    +0.000 C 
BRANCH   6   8
ATOM      8  C   UNL     1       4.991   4.206  17.951  0.00  0.00    +0.000 C 
BRANCH   8   9
ATOM      9  C   UNL     1       4.645   3.490  19.289  0.00  0.00    +0.000 C 
BRANCH   9  10
ATOM     10  N   UNL     1       3.140   3.188  19.410  0.00  0.00    +0.000 N 
ATOM     11  C   UNL     1       2.357   4.430  19.009  0.00  0.00    +0.000 C 
ATOM     12  C   UNL     1       2.774   1.989  18.528  0.00  0.00    +0.000 C 
BRANCH  10  13
ATOM     13  C   UNL     1       2.848   2.843  20.896  0.00  0.00    +0.000 C 
ATOM     14  C   UNL     1       1.361   2.782  21.188  0.00  0.00    +0.000 C 
ENDBRANCH  10  13
ENDBRANCH   9  10
ENDBRANCH   8   9
ENDBRANCH   6   8
ENDBRANCH   3   6
ENDBRANCH   2   3
ENDBRANCH   1   2
BRANCH   1  15
ATOM     15  C   UNL     1       8.314   9.445  17.898  0.00  0.00    +0.000 C 
BRANCH  15  16
ATOM     16  C   UNL     1       9.083  10.245  18.932  0.00  0.00    +0.000 C 
BRANCH  16  17
ATOM     17  C   UNL     1      10.070  11.163  18.241  0.00  0.00    +0.000 C 
BRANCH  17  18
ATOM     18  C   UNL     1       9.375  12.444  17.819  0.00  0.00    +0.000 C 
BRANCH  18  19
ATOM     19  C   UNL     1       9.587  13.512  18.877  0.00  0.00    +0.000 C 
BRANCH  19  20
ATOM     20  C   UNL     1       8.265  14.180  19.209  0.00  0.00    +0.000 C 
BRANCH  20  21
ATOM     21  C   UNL     1       7.736  14.914  17.990  0.00  0.00    +0.000 C 
BRANCH  21  22
ATOM     22  C   UNL     1       6.367  14.377  17.616  0.00  0.00    +0.000 C 
BRANCH  22  23
ATOM     23  C   UNL     1       5.283  15.166  18.331  0.00  0.00    +0.000 C 
BRANCH  23  24
ATOM     24  C   UNL     1       4.005  14.347  18.406  0.00  0.00    +0.000 C 
BRANCH  24  26
ATOM     25  C   UNL     1       3.219  16.500  17.411  0.00  0.00    +0.000 C 
ATOM     26  C   UNL     1       2.794  15.226  18.115  0.00  0.00    +0.000 C 
ENDBRANCH  24  26
ENDBRANCH  23  24
ENDBRANCH  22  23
ENDBRANCH  21  22
ENDBRANCH  20  21
ENDBRANCH  19  20
ENDBRANCH  18  19
ENDBRANCH  17  18
ENDBRANCH  16  17
ENDBRANCH  15  16
ENDBRANCH   1  15
TORSDOF 18
ENDMDL
MODEL 7
REMARK VINA RESULT:      -5.6      6.627     10.195
REMARK  Name = 
REMARK  23 active torsions:
REMARK  status: ('A' for Active; 'I' for Inactive)
REMARK    1  A    between atoms: C_1  and  C_2
REMARK    2  A    between atoms: C_2  and  C_3
REMARK    3  A    between atoms: C_3  and  C_4
REMARK    4  A    between atoms: C_4  and  C_5
REMARK    5  A    between atoms: C_5  and  C_6
REMARK    6  A    between atoms: C_6  and  C_7
REMARK    7  A    between atoms: C_7  and  C_8
REMARK    8  A    between atoms: C_8  and  C_9
REMARK    9  A    between atoms: C_9  and  C_10
REMARK   10  A    between atoms: C_10  and  C_11
REMARK   11  A    between atoms: C_11  and  C_12
REMARK   12  A    between atoms: C_12  and  C_13
REMARK   13  A    between atoms: C_13  and  C_14
REMARK   14  A    between atoms: C_14  and  S_15
REMARK   15  A    between atoms: S_15  and  N_18
REMARK   16  A    between atoms: N_18  and  C_19
REMARK   17  A    between atoms: N_18  and  C_20
REMARK   18  A    between atoms: C_20  and  C_21
REMARK   19  A    between atoms: C_21  and  N_22
REMARK   20  A    between atoms: N_22  and  C_23
REMARK   21  A    between atoms: N_22  and  C_24
REMARK   22  A    between atoms: N_22  and  C_25
REMARK   23  A    between atoms: C_25  and  C_26
REMARK                            x       y       z     vdW  Elec       q    Type
REMARK                         _______ _______ _______ _____ _____    ______ ____
ROOT
ATOM      1  C   UNL     1       1.484   6.068  20.229  0.00  0.00    +0.000 C 
ENDROOT
BRANCH   1   2
ATOM      2  C   UNL     1       2.130   7.431  20.202  0.00  0.00    +0.000 C 
BRANCH   2   3
ATOM      3  S   UNL     1       1.058   8.569  21.030  0.00  0.00    +0.000 S 
ATOM      4  O   UNL     1      -0.213   7.901  21.109  0.00  0.00    +0.000 OA
ATOM      5  O   UNL     1       1.709   9.077  22.226  0.00  0.00    +0.000 OA
BRANCH   3   6
ATOM      6  N   UNL     1       0.909   9.872  19.916  0.00  0.00    +0.000 NA
ATOM      7  C   UNL     1       0.985   9.504  18.454  0.00  0.00    +0.000 C 
BRANCH   6   8
ATOM      8  C   UNL     1      -0.296  10.703  20.167  0.00  0.00    +0.000 C 
BRANCH   8   9
ATOM      9  C   UNL     1      -1.496  10.401  19.224  0.00  0.00    +0.000 C 
BRANCH   9  10
ATOM     10  N   UNL     1      -2.025  11.673  18.537  0.00  0.00    +0.000 N 
ATOM     11  C   UNL     1      -3.382  12.024  19.131  0.00  0.00    +0.000 C 
ATOM     12  C   UNL     1      -1.025  12.820  18.715  0.00  0.00    +0.000 C 
BRANCH  10  13
ATOM     13  C   UNL     1      -2.184  11.359  17.024  0.00  0.00    +0.000 C 
ATOM     14  C   UNL     1      -2.514   9.899  16.775  0.00  0.00    +0.000 C 
ENDBRANCH  10  13
ENDBRANCH   9  10
ENDBRANCH   8   9
ENDBRANCH   6   8
ENDBRANCH   3   6
ENDBRANCH   2   3
ENDBRANCH   1   2
BRANCH   1  15
ATOM     15  C   UNL     1       2.403   5.061  20.866  0.00  0.00    +0.000 C 
BRANCH  15  16
ATOM     16  C   UNL     1       1.619   3.796  21.164  0.00  0.00    +0.000 C 
BRANCH  16  17
ATOM     17  C   UNL     1       1.951   2.732  20.138  0.00  0.00    +0.000 C 
BRANCH  17  18
ATOM     18  C   UNL     1       0.885   2.710  19.058  0.00  0.00    +0.000 C 
BRANCH  18  19
ATOM     19  C   UNL     1       1.408   3.398  17.810  0.00  0.00    +0.000 C 
BRANCH  19  20
ATOM     20  C   UNL     1       2.834   2.957  17.535  0.00  0.00    +0.000 C 
BRANCH  20  21
ATOM     21  C   UNL     1       3.698   4.166  17.225  0.00  0.00    +0.000 C 
BRANCH  21  22
ATOM     22  C   UNL     1       4.982   4.105  18.033  0.00  0.00    +0.000 C 
BRANCH  22  23
ATOM     23  C   UNL     1       5.374   5.498  18.495  0.00  0.00    +0.000 C 
BRANCH  23  24
ATOM     24  C   UNL     1       6.632   5.431  19.345  0.00  0.00    +0.000 C 
BRANCH  24  26
ATOM     25  C   UNL     1       7.244   6.957  17.464  0.00  0.00    +0.000 C 
ATOM     26  C   UNL     1       7.748   6.251  18.707  0.00  0.00    +0.000 C 
ENDBRANCH  24  26
ENDBRANCH  23  24
ENDBRANCH  22  23
ENDBRANCH  21  22
ENDBRANCH  20  21
ENDBRANCH  19  20
ENDBRANCH  18  19
ENDBRANCH  17  18
ENDBRANCH  16  17
ENDBRANCH  15  16
ENDBRANCH   1  15
TORSDOF 18
ENDMDL
MODEL 8
REMARK VINA RESULT:      -5.5      6.221      8.098
REMARK  Name = 
REMARK  23 active torsions:
REMARK  status: ('A' for Active; 'I' for Inactive)
REMARK    1  A    between atoms: C_1  and  C_2
REMARK    2  A    between atoms: C_2  and  C_3
REMARK    3  A    between atoms: C_3  and  C_4
REMARK    4  A    between atoms: C_4  and  C_5
REMARK    5  A    between atoms: C_5  and  C_6
REMARK    6  A    between atoms: C_6  and  C_7
REMARK    7  A    between atoms: C_7  and  C_8
REMARK    8  A    between atoms: C_8  and  C_9
REMARK    9  A    between atoms: C_9  and  C_10
REMARK   10  A    between atoms: C_10  and  C_11
REMARK   11  A    between atoms: C_11  and  C_12
REMARK   12  A    between atoms: C_12  and  C_13
REMARK   13  A    between atoms: C_13  and  C_14
REMARK   14  A    between atoms: C_14  and  S_15
REMARK   15  A    between atoms: S_15  and  N_18
REMARK   16  A    between atoms: N_18  and  C_19
REMARK   17  A    between atoms: N_18  and  C_20
REMARK   18  A    between atoms: C_20  and  C_21
REMARK   19  A    between atoms: C_21  and  N_22
REMARK   20  A    between atoms: N_22  and  C_23
REMARK   21  A    between atoms: N_22  and  C_24
REMARK   22  A    between atoms: N_22  and  C_25
REMARK   23  A    between atoms: C_25  and  C_26
REMARK                            x       y       z     vdW  Elec       q    Type
REMARK                         _______ _______ _______ _____ _____    ______ ____
ROOT
ATOM      1  C   UNL     1       3.981   7.063  17.375  0.00  0.00    +0.000 C 
ENDROOT
BRANCH   1   2
ATOM      2  C   UNL     1       4.454   5.711  16.901  0.00  0.00    +0.000 C 
BRANCH   2   3
ATOM      3  S   UNL     1       6.219   5.668  17.018  0.00  0.00    +0.000 S 
ATOM      4  O   UNL     1       6.640   4.718  16.025  0.00  0.00    +0.000 OA
ATOM      5  O   UNL     1       6.744   7.024  17.023  0.00  0.00    +0.000 OA
BRANCH   3   6
ATOM      6  N   UNL     1       6.508   4.984  18.570  0.00  0.00    +0.000 NA
ATOM      7  C   UNL     1       7.559   5.669  19.409  0.00  0.00    +0.000 C 
BRANCH   6   8
ATOM      8  C   UNL     1       5.262   4.814  19.360  0.00  0.00    +0.000 C 
BRANCH   8   9
ATOM      9  C   UNL     1       4.765   3.344  19.473  0.00  0.00    +0.000 C 
BRANCH   9  10
ATOM     10  N   UNL     1       3.297   3.264  19.933  0.00  0.00    +0.000 N 
ATOM     11  C   UNL     1       3.211   2.347  21.144  0.00  0.00    +0.000 C 
ATOM     12  C   UNL     1       2.773   4.667  20.257  0.00  0.00    +0.000 C 
BRANCH  10  13
ATOM     13  C   UNL     1       2.471   2.663  18.763  0.00  0.00    +0.000 C 
ATOM     14  C   UNL     1       1.435   3.637  18.234  0.00  0.00    +0.000 C 
ENDBRANCH  10  13
ENDBRANCH   9  10
ENDBRANCH   8   9
ENDBRANCH   6   8
ENDBRANCH   3   6
ENDBRANCH   2   3
ENDBRANCH   1   2
BRANCH   1  15
ATOM     15  C   UNL     1       2.526   7.009  17.758  0.00  0.00    +0.000 C 
BRANCH  15  16
ATOM     16  C   UNL     1       2.203   8.202  18.638  0.00  0.00    +0.000 C 
BRANCH  16  17
ATOM     17  C   UNL     1       1.945   9.421  17.776  0.00  0.00    +0.000 C 
BRANCH  17  18
ATOM     18  C   UNL     1       1.140  10.443  18.558  0.00  0.00    +0.000 C 
BRANCH  18  19
ATOM     19  C   UNL     1      -0.342  10.185  18.359  0.00  0.00    +0.000 C 
BRANCH  19  20
ATOM     20  C   UNL     1      -1.142  11.393  18.811  0.00  0.00    +0.000 C 
BRANCH  20  21
ATOM     21  C   UNL     1      -0.508  11.998  20.051  0.00  0.00    +0.000 C 
BRANCH  21  22
ATOM     22  C   UNL     1      -1.485  11.943  21.211  0.00  0.00    +0.000 C 
BRANCH  22  23
ATOM     23  C   UNL     1      -0.731  11.780  22.520  0.00  0.00    +0.000 C 
BRANCH  23  24
ATOM     24  C   UNL     1      -1.066  10.438  23.151  0.00  0.00    +0.000 C 
BRANCH  24  26
ATOM     25  C   UNL     1       0.081   8.710  21.759  0.00  0.00    +0.000 C 
ATOM     26  C   UNL     1       0.127   9.495  23.055  0.00  0.00    +0.000 C 
ENDBRANCH  24  26
ENDBRANCH  23  24
ENDBRANCH  22  23
ENDBRANCH  21  22
ENDBRANCH  20  21
ENDBRANCH  19  20
ENDBRANCH  18  19
ENDBRANCH  17  18
ENDBRANCH  16  17
ENDBRANCH  15  16
ENDBRANCH   1  15
TORSDOF 18
ENDMDL
MODEL 9
REMARK VINA RESULT:      -5.5      8.081     11.339
REMARK  Name = 
REMARK  23 active torsions:
REMARK  status: ('A' for Active; 'I' for Inactive)
REMARK    1  A    between atoms: C_1  and  C_2
REMARK    2  A    between atoms: C_2  and  C_3
REMARK    3  A    between atoms: C_3  and  C_4
REMARK    4  A    between atoms: C_4  and  C_5
REMARK    5  A    between atoms: C_5  and  C_6
REMARK    6  A    between atoms: C_6  and  C_7
REMARK    7  A    between atoms: C_7  and  C_8
REMARK    8  A    between atoms: C_8  and  C_9
REMARK    9  A    between atoms: C_9  and  C_10
REMARK   10  A    between atoms: C_10  and  C_11
REMARK   11  A    between atoms: C_11  and  C_12
REMARK   12  A    between atoms: C_12  and  C_13
REMARK   13  A    between atoms: C_13  and  C_14
REMARK   14  A    between atoms: C_14  and  S_15
REMARK   15  A    between atoms: S_15  and  N_18
REMARK   16  A    between atoms: N_18  and  C_19
REMARK   17  A    between atoms: N_18  and  C_20
REMARK   18  A    between atoms: C_20  and  C_21
REMARK   19  A    between atoms: C_21  and  N_22
REMARK   20  A    between atoms: N_22  and  C_23
REMARK   21  A    between atoms: N_22  and  C_24
REMARK   22  A    between atoms: N_22  and  C_25
REMARK   23  A    between atoms: C_25  and  C_26
REMARK                            x       y       z     vdW  Elec       q    Type
REMARK                         _______ _______ _______ _____ _____    ______ ____
ROOT
ATOM      1  C   UNL     1       1.088   8.752  20.262  0.00  0.00    +0.000 C 
ENDROOT
BRANCH   1   2
ATOM      2  C   UNL     1       1.375   9.579  21.490  0.00  0.00    +0.000 C 
BRANCH   2   3
ATOM      3  S   UNL     1      -0.031   9.491  22.559  0.00  0.00    +0.000 S 
ATOM      4  O   UNL     1      -0.763   8.331  22.125  0.00  0.00    +0.000 OA
ATOM      5  O   UNL     1       0.394   9.630  23.943  0.00  0.00    +0.000 OA
BRANCH   3   6
ATOM      6  N   UNL     1      -0.947  10.887  22.145  0.00  0.00    +0.000 NA
ATOM      7  C   UNL     1      -1.843  11.435  23.229  0.00  0.00    +0.000 C 
BRANCH   6   8
ATOM      8  C   UNL     1      -0.106  11.975  21.585  0.00  0.00    +0.000 C 
BRANCH   8   9
ATOM      9  C   UNL     1      -0.719  13.399  21.720  0.00  0.00    +0.000 C 
BRANCH   9  10
ATOM     10  N   UNL     1      -1.381  13.869  20.410  0.00  0.00    +0.000 N 
ATOM     11  C   UNL     1      -1.260  15.383  20.315  0.00  0.00    +0.000 C 
ATOM     12  C   UNL     1      -0.719  13.180  19.212  0.00  0.00    +0.000 C 
BRANCH  10  13
ATOM     13  C   UNL     1      -2.880  13.468  20.472  0.00  0.00    +0.000 C 
ATOM     14  C   UNL     1      -3.197  12.299  19.559  0.00  0.00    +0.000 C 
ENDBRANCH  10  13
ENDBRANCH   9  10
ENDBRANCH   8   9
ENDBRANCH   6   8
ENDBRANCH   3   6
ENDBRANCH   2   3
ENDBRANCH   1   2
BRANCH   1  15
ATOM     15  C   UNL     1       1.228   9.588  19.018  0.00  0.00    +0.000 C 
BRANCH  15  16
ATOM     16  C   UNL     1       1.667   8.697  17.871  0.00  0.00    +0.000 C 
BRANCH  16  17
ATOM     17  C   UNL     1       2.404   7.489  18.412  0.00  0.00    +0.000 C 
BRANCH  17  18
ATOM     18  C   UNL     1       3.630   7.212  17.563  0.00  0.00    +0.000 C 
BRANCH  18  19
ATOM     19  C   UNL     1       4.353   5.987  18.094  0.00  0.00    +0.000 C 
BRANCH  19  20
ATOM     20  C   UNL     1       4.767   5.091  16.941  0.00  0.00    +0.000 C 
BRANCH  20  21
ATOM     21  C   UNL     1       4.427   3.646  17.262  0.00  0.00    +0.000 C 
BRANCH  21  22
ATOM     22  C   UNL     1       2.929   3.429  17.147  0.00  0.00    +0.000 C 
BRANCH  22  23
ATOM     23  C   UNL     1       2.363   2.978  18.482  0.00  0.00    +0.000 C 
BRANCH  23  24
ATOM     24  C   UNL     1       1.156   3.826  18.851  0.00  0.00    +0.000 C 
BRANCH  24  26
ATOM     25  C   UNL     1       2.228   4.775  20.898  0.00  0.00    +0.000 C 
ATOM     26  C   UNL     1       1.055   3.976  20.364  0.00  0.00    +0.000 C 
ENDBRANCH  24  26
ENDBRANCH  23  24
ENDBRANCH  22  23
ENDBRANCH  21  22
ENDBRANCH  20  21
ENDBRANCH  19  20
ENDBRANCH  18  19
ENDBRANCH  17  18
ENDBRANCH  16  17
ENDBRANCH  15  16
ENDBRANCH   1  15
TORSDOF 18
ENDMDL
