MODEL 1
REMARK VINA RESULT:      -7.3      0.000      0.000
REMARK  Name = 
REMARK  4 active torsions:
REMARK  status: ('A' for Active; 'I' for Inactive)
REMARK    1  A    between atoms: C_5  and  N_6
REMARK    2  A    between atoms: C_12  and  N_13
REMARK    3  A    between atoms: N_13  and  C_14
REMARK    4  A    between atoms: C_14  and  C_15
REMARK                            x       y       z     vdW  Elec       q    Type
REMARK                         _______ _______ _______ _____ _____    ______ ____
ROOT
ATOM      1  F   UNL     1       1.225   8.999  20.468  0.00  0.00    +0.000 F 
ATOM      2  C   UNL     1       1.757   7.865  19.992  0.00  0.00    +0.000 A 
ATOM      3  C   UNL     1       1.509   6.672  20.641  0.00  0.00    +0.000 A 
ATOM      4  C   UNL     1       2.057   5.494  20.129  0.00  0.00    +0.000 A 
ATOM      5  C   UNL     1       2.863   5.476  18.967  0.00  0.00    +0.000 A 
ATOM      6  C   UNL     1       3.121   6.732  18.327  0.00  0.00    +0.000 A 
ATOM      7  C   UNL     1       2.547   7.905  18.852  0.00  0.00    +0.000 A 
ENDROOT
BRANCH   5   8
ATOM      8  N   UNL     1       3.390   4.264  18.520  0.00  0.00    +0.000 N 
ATOM      9  C   UNL     1       2.778   3.491  17.437  0.00  0.00    +0.000 C 
ATOM     10  C   UNL     1       2.378   2.110  17.955  0.00  0.00    +0.000 C 
ATOM     11  C   UNL     1       3.578   1.392  18.570  0.00  0.00    +0.000 C 
ATOM     12  C   UNL     1       4.228   2.254  19.646  0.00  0.00    +0.000 C 
ATOM     13  C   UNL     1       4.572   3.652  19.138  0.00  0.00    +0.000 C 
ENDBRANCH   5   8
BRANCH   6  14
ATOM     14  N   UNL     1       3.866   6.772  17.143  0.00  0.00    +0.000 N 
ATOM     15  H   UNL     1       3.412   7.322  16.415  0.00  0.00    +0.000 HD
BRANCH  14  16
ATOM     16  C   UNL     1       5.317   6.908  17.141  0.00  0.00    +0.000 C 
BRANCH  16  17
ATOM     17  C   UNL     1       6.033   5.984  16.189  0.00  0.00    +0.000 A 
ATOM     18  C   UNL     1       5.476   4.944  15.407  0.00  0.00    +0.000 A 
ATOM     19  C   UNL     1       6.541   4.409  14.717  0.00  0.00    +0.000 A 
ATOM     20  N   UNL     1       7.632   5.134  15.090  0.00  0.00    +0.000 N 
ATOM     21  N   UNL     1       7.356   6.094  15.986  0.00  0.00    +0.000 NA
ATOM     22  H   UNL     1       8.592   5.027  14.781  0.00  0.00    +0.000 HD
ENDBRANCH  16  17
ENDBRANCH  14  16
ENDBRANCH   6  14
TORSDOF 4
ENDMDL
MODEL 2
REMARK VINA RESULT:      -7.1      2.328      5.292
REMARK  Name = 
REMARK  4 active torsions:
REMARK  status: ('A' for Active; 'I' for Inactive)
REMARK    1  A    between atoms: C_5  and  N_6
REMARK    2  A    between atoms: C_12  and  N_13
REMARK    3  A    between atoms: N_13  and  C_14
REMARK    4  A    between atoms: C_14  and  C_15
REMARK                            x       y       z     vdW  Elec       q    Type
REMARK                         _______ _______ _______ _____ _____    ______ ____
ROOT
ATOM      1  F   UNL     1       0.092   2.211  18.943  0.00  0.00    +0.000 F 
ATOM      2  C   UNL     1       1.276   2.716  18.569  0.00  0.00    +0.000 A 
ATOM      3  C   UNL     1       2.303   1.860  18.224  0.00  0.00    +0.000 A 
ATOM      4  C   UNL     1       3.527   2.396  17.822  0.00  0.00    +0.000 A 
ATOM      5  C   UNL     1       3.760   3.789  17.757  0.00  0.00    +0.000 A 
ATOM      6  C   UNL     1       2.683   4.653  18.141  0.00  0.00    +0.000 A 
ATOM      7  C   UNL     1       1.452   4.092  18.530  0.00  0.00    +0.000 A 
ENDROOT
BRANCH   5   8
ATOM      8  N   UNL     1       5.014   4.255  17.360  0.00  0.00    +0.000 N 
ATOM      9  C   UNL     1       6.091   4.525  18.315  0.00  0.00    +0.000 C 
ATOM     10  C   UNL     1       6.499   5.995  18.227  0.00  0.00    +0.000 C 
ATOM     11  C   UNL     1       6.889   6.365  16.797  0.00  0.00    +0.000 C 
ATOM     12  C   UNL     1       5.770   6.010  15.824  0.00  0.00    +0.000 C 
ATOM     13  C   UNL     1       5.327   4.555  15.959  0.00  0.00    +0.000 C 
ENDBRANCH   5   8
BRANCH   6  14
ATOM     14  N   UNL     1       2.833   6.042  18.047  0.00  0.00    +0.000 N 
ATOM     15  H   UNL     1       2.495   6.411  17.159  0.00  0.00    +0.000 HD
BRANCH  14  16
ATOM     16  C   UNL     1       2.576   6.931  19.172  0.00  0.00    +0.000 C 
BRANCH  16  17
ATOM     17  C   UNL     1       2.014   8.277  18.793  0.00  0.00    +0.000 A 
ATOM     18  C   UNL     1       1.239   9.149  19.594  0.00  0.00    +0.000 A 
ATOM     19  C   UNL     1       0.981  10.236  18.790  0.00  0.00    +0.000 A 
ATOM     20  N   UNL     1       1.601   9.982  17.605  0.00  0.00    +0.000 N 
ATOM     21  N   UNL     1       2.233   8.798  17.575  0.00  0.00    +0.000 NA
ATOM     22  H   UNL     1       1.631  10.563  16.775  0.00  0.00    +0.000 HD
ENDBRANCH  16  17
ENDBRANCH  14  16
ENDBRANCH   6  14
TORSDOF 4
ENDMDL
MODEL 3
REMARK VINA RESULT:      -7.1      2.517      5.194
REMARK  Name = 
REMARK  4 active torsions:
REMARK  status: ('A' for Active; 'I' for Inactive)
REMARK    1  A    between atoms: C_5  and  N_6
REMARK    2  A    between atoms: C_12  and  N_13
REMARK    3  A    between atoms: N_13  and  C_14
REMARK    4  A    between atoms: C_14  and  C_15
REMARK                            x       y       z     vdW  Elec       q    Type
REMARK                         _______ _______ _______ _____ _____    ______ ____
ROOT
ATOM      1  F   UNL     1       0.234   2.268  19.117  0.00  0.00    +0.000 F 
ATOM      2  C   UNL     1       1.333   2.978  18.833  0.00  0.00    +0.000 A 
ATOM      3  C   UNL     1       2.170   2.561  17.817  0.00  0.00    +0.000 A 
ATOM      4  C   UNL     1       3.305   3.317  17.520  0.00  0.00    +0.000 A 
ATOM      5  C   UNL     1       3.637   4.497  18.224  0.00  0.00    +0.000 A 
ATOM      6  C   UNL     1       2.762   4.893  19.288  0.00  0.00    +0.000 A 
ATOM      7  C   UNL     1       1.615   4.125  19.562  0.00  0.00    +0.000 A 
ENDROOT
BRANCH   5   8
ATOM      8  N   UNL     1       4.796   5.194  17.883  0.00  0.00    +0.000 N 
ATOM      9  C   UNL     1       4.823   6.206  16.825  0.00  0.00    +0.000 C 
ATOM     10  C   UNL     1       5.817   5.789  15.742  0.00  0.00    +0.000 C 
ATOM     11  C   UNL     1       7.201   5.543  16.340  0.00  0.00    +0.000 C 
ATOM     12  C   UNL     1       7.123   4.535  17.481  0.00  0.00    +0.000 C 
ATOM     13  C   UNL     1       6.085   4.927  18.530  0.00  0.00    +0.000 C 
ENDBRANCH   5   8
BRANCH   6  14
ATOM     14  N   UNL     1       3.007   6.081  19.988  0.00  0.00    +0.000 N 
ATOM     15  H   UNL     1       3.831   6.572  19.645  0.00  0.00    +0.000 HD
BRANCH  14  16
ATOM     16  C   UNL     1       1.934   6.978  20.397  0.00  0.00    +0.000 C 
BRANCH  16  17
ATOM     17  C   UNL     1       1.749   8.183  19.509  0.00  0.00    +0.000 A 
ATOM     18  C   UNL     1       2.209   8.361  18.183  0.00  0.00    +0.000 A 
ATOM     19  C   UNL     1       1.783   9.620  17.825  0.00  0.00    +0.000 A 
ATOM     20  N   UNL     1       1.104  10.107  18.900  0.00  0.00    +0.000 N 
ATOM     21  N   UNL     1       1.069   9.258  19.940  0.00  0.00    +0.000 NA
ATOM     22  H   UNL     1       0.645  11.005  18.999  0.00  0.00    +0.000 HD
ENDBRANCH  16  17
ENDBRANCH  14  16
ENDBRANCH   6  14
TORSDOF 4
ENDMDL
MODEL 4
REMARK VINA RESULT:      -7.1      2.483      5.121
REMARK  Name = 
REMARK  4 active torsions:
REMARK  status: ('A' for Active; 'I' for Inactive)
REMARK    1  A    between atoms: C_5  and  N_6
REMARK    2  A    between atoms: C_12  and  N_13
REMARK    3  A    between atoms: N_13  and  C_14
REMARK    4  A    between atoms: C_14  and  C_15
REMARK                            x       y       z     vdW  Elec       q    Type
REMARK                         _______ _______ _______ _____ _____    ______ ____
ROOT
ATOM      1  F   UNL     1       1.268   2.861  21.916  0.00  0.00    +0.000 F 
ATOM      2  C   UNL     1       2.137   3.386  21.042  0.00  0.00    +0.000 A 
ATOM      3  C   UNL     1       3.131   2.590  20.508  0.00  0.00    +0.000 A 
ATOM      4  C   UNL     1       4.022   3.142  19.587  0.00  0.00    +0.000 A 
ATOM      5  C   UNL     1       3.948   4.494  19.178  0.00  0.00    +0.000 A 
ATOM      6  C   UNL     1       2.920   5.301  19.764  0.00  0.00    +0.000 A 
ATOM      7  C   UNL     1       2.024   4.721  20.680  0.00  0.00    +0.000 A 
ENDROOT
BRANCH   5   8
ATOM      8  N   UNL     1       4.882   4.983  18.264  0.00  0.00    +0.000 N 
ATOM      9  C   UNL     1       4.653   4.962  16.817  0.00  0.00    +0.000 C 
ATOM     10  C   UNL     1       5.741   4.132  16.138  0.00  0.00    +0.000 C 
ATOM     11  C   UNL     1       7.130   4.661  16.495  0.00  0.00    +0.000 C 
ATOM     12  C   UNL     1       7.307   4.731  18.007  0.00  0.00    +0.000 C 
ATOM     13  C   UNL     1       6.183   5.512  18.686  0.00  0.00    +0.000 C 
ENDBRANCH   5   8
BRANCH   6  14
ATOM     14  N   UNL     1       2.761   6.633  19.360  0.00  0.00    +0.000 N 
ATOM     15  H   UNL     1       2.642   6.722  18.352  0.00  0.00    +0.000 HD
BRANCH  14  16
ATOM     16  C   UNL     1       1.963   7.586  20.118  0.00  0.00    +0.000 C 
BRANCH  16  17
ATOM     17  C   UNL     1       1.535   8.806  19.341  0.00  0.00    +0.000 A 
ATOM     18  C   UNL     1       0.666   9.840  19.762  0.00  0.00    +0.000 A 
ATOM     19  C   UNL     1       0.604  10.708  18.694  0.00  0.00    +0.000 A 
ATOM     20  N   UNL     1       1.415  10.182  17.735  0.00  0.00    +0.000 N 
ATOM     21  N   UNL     1       1.992   9.025  18.097  0.00  0.00    +0.000 NA
ATOM     22  H   UNL     1       1.618  10.552  16.814  0.00  0.00    +0.000 HD
ENDBRANCH  16  17
ENDBRANCH  14  16
ENDBRANCH   6  14
TORSDOF 4
ENDMDL
MODEL 5
REMARK VINA RESULT:      -7.1      1.972      4.632
REMARK  Name = 
REMARK  4 active torsions:
REMARK  status: ('A' for Active; 'I' for Inactive)
REMARK    1  A    between atoms: C_5  and  N_6
REMARK    2  A    between atoms: C_12  and  N_13
REMARK    3  A    between atoms: N_13  and  C_14
REMARK    4  A    between atoms: C_14  and  C_15
REMARK                            x       y       z     vdW  Elec       q    Type
REMARK                         _______ _______ _______ _____ _____    ______ ____
ROOT
ATOM      1  F   UNL     1       0.933   9.227  19.107  0.00  0.00    +0.000 F 
ATOM      2  C   UNL     1       1.866   8.306  18.830  0.00  0.00    +0.000 A 
ATOM      3  C   UNL     1       2.565   8.381  17.642  0.00  0.00    +0.000 A 
ATOM      4  C   UNL     1       3.546   7.425  17.370  0.00  0.00    +0.000 A 
ATOM      5  C   UNL     1       3.850   6.376  18.267  0.00  0.00    +0.000 A 
ATOM      6  C   UNL     1       3.093   6.311  19.482  0.00  0.00    +0.000 A 
ATOM      7  C   UNL     1       2.119   7.292  19.743  0.00  0.00    +0.000 A 
ENDROOT
BRANCH   5   8
ATOM      8  N   UNL     1       4.832   5.446  17.923  0.00  0.00    +0.000 N 
ATOM      9  C   UNL     1       6.232   5.593  18.329  0.00  0.00    +0.000 C 
ATOM     10  C   UNL     1       7.120   5.667  17.088  0.00  0.00    +0.000 C 
ATOM     11  C   UNL     1       6.904   4.448  16.193  0.00  0.00    +0.000 C 
ATOM     12  C   UNL     1       5.429   4.290  15.846  0.00  0.00    +0.000 C 
ATOM     13  C   UNL     1       4.540   4.276  17.088  0.00  0.00    +0.000 C 
ENDBRANCH   5   8
BRANCH   6  14
ATOM     14  N   UNL     1       3.384   5.327  20.435  0.00  0.00    +0.000 N 
ATOM     15  H   UNL     1       4.051   5.647  21.134  0.00  0.00    +0.000 HD
BRANCH  14  16
ATOM     16  C   UNL     1       2.361   4.445  20.981  0.00  0.00    +0.000 C 
BRANCH  16  17
ATOM     17  C   UNL     1       1.893   3.366  20.038  0.00  0.00    +0.000 A 
ATOM     18  C   UNL     1       0.614   3.224  19.450  0.00  0.00    +0.000 A 
ATOM     19  C   UNL     1       0.702   2.087  18.677  0.00  0.00    +0.000 A 
ATOM     20  N   UNL     1       1.977   1.634  18.821  0.00  0.00    +0.000 N 
ATOM     21  N   UNL     1       2.724   2.387  19.644  0.00  0.00    +0.000 NA
ATOM     22  H   UNL     1       2.405   0.819  18.395  0.00  0.00    +0.000 HD
ENDBRANCH  16  17
ENDBRANCH  14  16
ENDBRANCH   6  14
TORSDOF 4
ENDMDL
MODEL 6
REMARK VINA RESULT:      -7.0      2.804      4.939
REMARK  Name = 
REMARK  4 active torsions:
REMARK  status: ('A' for Active; 'I' for Inactive)
REMARK    1  A    between atoms: C_5  and  N_6
REMARK    2  A    between atoms: C_12  and  N_13
REMARK    3  A    between atoms: N_13  and  C_14
REMARK    4  A    between atoms: C_14  and  C_15
REMARK                            x       y       z     vdW  Elec       q    Type
REMARK                         _______ _______ _______ _____ _____    ______ ____
ROOT
ATOM      1  F   UNL     1       7.524   7.127  17.014  0.00  0.00    +0.000 F 
ATOM      2  C   UNL     1       6.548   6.329  17.466  0.00  0.00    +0.000 A 
ATOM      3  C   UNL     1       6.860   5.065  17.926  0.00  0.00    +0.000 A 
ATOM      4  C   UNL     1       5.838   4.246  18.409  0.00  0.00    +0.000 A 
ATOM      5  C   UNL     1       4.487   4.662  18.442  0.00  0.00    +0.000 A 
ATOM      6  C   UNL     1       4.190   5.970  17.938  0.00  0.00    +0.000 A 
ATOM      7  C   UNL     1       5.237   6.784  17.469  0.00  0.00    +0.000 A 
ENDROOT
BRANCH   5   8
ATOM      8  N   UNL     1       3.514   3.785  18.924  0.00  0.00    +0.000 N 
ATOM      9  C   UNL     1       2.684   2.965  18.037  0.00  0.00    +0.000 C 
ATOM     10  C   UNL     1       1.211   3.312  18.248  0.00  0.00    +0.000 C 
ATOM     11  C   UNL     1       0.820   3.151  19.716  0.00  0.00    +0.000 C 
ATOM     12  C   UNL     1       1.746   3.965  20.612  0.00  0.00    +0.000 C 
ATOM     13  C   UNL     1       3.219   3.657  20.355  0.00  0.00    +0.000 C 
ENDBRANCH   5   8
BRANCH   6  14
ATOM     14  N   UNL     1       2.879   6.459  17.994  0.00  0.00    +0.000 N 
ATOM     15  H   UNL     1       2.198   5.789  17.641  0.00  0.00    +0.000 HD
BRANCH  14  16
ATOM     16  C   UNL     1       2.385   7.235  19.124  0.00  0.00    +0.000 C 
BRANCH  16  17
ATOM     17  C   UNL     1       1.868   8.606  18.767  0.00  0.00    +0.000 A 
ATOM     18  C   UNL     1       1.014   9.435  19.531  0.00  0.00    +0.000 A 
ATOM     19  C   UNL     1       0.845  10.570  18.769  0.00  0.00    +0.000 A 
ATOM     20  N   UNL     1       1.587  10.379  17.643  0.00  0.00    +0.000 N 
ATOM     21  N   UNL     1       2.217   9.194  17.611  0.00  0.00    +0.000 NA
ATOM     22  H   UNL     1       1.706  11.007  16.856  0.00  0.00    +0.000 HD
ENDBRANCH  16  17
ENDBRANCH  14  16
ENDBRANCH   6  14
TORSDOF 4
ENDMDL
MODEL 7
REMARK VINA RESULT:      -7.0      2.708      3.686
REMARK  Name = 
REMARK  4 active torsions:
REMARK  status: ('A' for Active; 'I' for Inactive)
REMARK    1  A    between atoms: C_5  and  N_6
REMARK    2  A    between atoms: C_12  and  N_13
REMARK    3  A    between atoms: N_13  and  C_14
REMARK    4  A    between atoms: C_14  and  C_15
REMARK                            x       y       z     vdW  Elec       q    Type
REMARK                         _______ _______ _______ _____ _____    ______ ____
ROOT
ATOM      1  F   UNL     1       8.371   6.348  18.767  0.00  0.00    +0.000 F 
ATOM      2  C   UNL     1       7.203   5.730  18.545  0.00  0.00    +0.000 A 
ATOM      3  C   UNL     1       6.388   5.411  19.613  0.00  0.00    +0.000 A 
ATOM      4  C   UNL     1       5.166   4.781  19.370  0.00  0.00    +0.000 A 
ATOM      5  C   UNL     1       4.730   4.451  18.066  0.00  0.00    +0.000 A 
ATOM      6  C   UNL     1       5.606   4.775  16.980  0.00  0.00    +0.000 A 
ATOM      7  C   UNL     1       6.826   5.422  17.246  0.00  0.00    +0.000 A 
ENDROOT
BRANCH   5   8
ATOM      8  N   UNL     1       3.504   3.807  17.899  0.00  0.00    +0.000 N 
ATOM      9  C   UNL     1       2.233   4.534  17.850  0.00  0.00    +0.000 C 
ATOM     10  C   UNL     1       1.325   4.056  18.983  0.00  0.00    +0.000 C 
ATOM     11  C   UNL     1       1.127   2.543  18.918  0.00  0.00    +0.000 C 
ATOM     12  C   UNL     1       2.471   1.824  18.903  0.00  0.00    +0.000 C 
ATOM     13  C   UNL     1       3.396   2.347  17.806  0.00  0.00    +0.000 C 
ENDBRANCH   5   8
BRANCH   6  14
ATOM     14  N   UNL     1       5.207   4.522  15.662  0.00  0.00    +0.000 N 
ATOM     15  H   UNL     1       4.893   5.364  15.182  0.00  0.00    +0.000 HD
BRANCH  14  16
ATOM     16  C   UNL     1       5.929   3.603  14.792  0.00  0.00    +0.000 C 
BRANCH  16  17
ATOM     17  C   UNL     1       6.693   4.264  13.674  0.00  0.00    +0.000 A 
ATOM     18  C   UNL     1       6.644   3.961  12.293  0.00  0.00    +0.000 A 
ATOM     19  C   UNL     1       7.521   4.844  11.703  0.00  0.00    +0.000 A 
ATOM     20  N   UNL     1       8.017   5.611  12.713  0.00  0.00    +0.000 N 
ATOM     21  N   UNL     1       7.536   5.281  13.922  0.00  0.00    +0.000 NA
ATOM     22  H   UNL     1       8.686   6.370  12.654  0.00  0.00    +0.000 HD
ENDBRANCH  16  17
ENDBRANCH  14  16
ENDBRANCH   6  14
TORSDOF 4
ENDMDL
MODEL 8
REMARK VINA RESULT:      -7.0      1.629      1.883
REMARK  Name = 
REMARK  4 active torsions:
REMARK  status: ('A' for Active; 'I' for Inactive)
REMARK    1  A    between atoms: C_5  and  N_6
REMARK    2  A    between atoms: C_12  and  N_13
REMARK    3  A    between atoms: N_13  and  C_14
REMARK    4  A    between atoms: C_14  and  C_15
REMARK                            x       y       z     vdW  Elec       q    Type
REMARK                         _______ _______ _______ _____ _____    ______ ____
ROOT
ATOM      1  F   UNL     1       2.505   9.943  17.826  0.00  0.00    +0.000 F 
ATOM      2  C   UNL     1       2.515   8.664  18.225  0.00  0.00    +0.000 A 
ATOM      3  C   UNL     1       1.785   8.292  19.336  0.00  0.00    +0.000 A 
ATOM      4  C   UNL     1       1.790   6.954  19.735  0.00  0.00    +0.000 A 
ATOM      5  C   UNL     1       2.521   5.960  19.044  0.00  0.00    +0.000 A 
ATOM      6  C   UNL     1       3.287   6.380  17.908  0.00  0.00    +0.000 A 
ATOM      7  C   UNL     1       3.256   7.730  17.515  0.00  0.00    +0.000 A 
ENDROOT
BRANCH   5   8
ATOM      8  N   UNL     1       2.493   4.645  19.509  0.00  0.00    +0.000 N 
ATOM      9  C   UNL     1       1.695   3.600  18.865  0.00  0.00    +0.000 C 
ATOM     10  C   UNL     1       0.684   3.038  19.864  0.00  0.00    +0.000 C 
ATOM     11  C   UNL     1       1.388   2.533  21.122  0.00  0.00    +0.000 C 
ATOM     12  C   UNL     1       2.261   3.627  21.727  0.00  0.00    +0.000 C 
ATOM     13  C   UNL     1       3.228   4.225  20.707  0.00  0.00    +0.000 C 
ENDBRANCH   5   8
BRANCH   6  14
ATOM     14  N   UNL     1       3.989   5.434  17.151  0.00  0.00    +0.000 N 
ATOM     15  H   UNL     1       3.674   5.399  16.183  0.00  0.00    +0.000 HD
BRANCH  14  16
ATOM     16  C   UNL     1       5.424   5.232  17.294  0.00  0.00    +0.000 C 
BRANCH  16  17
ATOM     17  C   UNL     1       6.173   5.093  15.992  0.00  0.00    +0.000 A 
ATOM     18  C   UNL     1       5.810   4.322  14.863  0.00  0.00    +0.000 A 
ATOM     19  C   UNL     1       6.818   4.535  13.949  0.00  0.00    +0.000 A 
ATOM     20  N   UNL     1       7.687   5.399  14.543  0.00  0.00    +0.000 N 
ATOM     21  N   UNL     1       7.324   5.753  15.786  0.00  0.00    +0.000 NA
ATOM     22  H   UNL     1       8.546   5.783  14.166  0.00  0.00    +0.000 HD
ENDBRANCH  16  17
ENDBRANCH  14  16
ENDBRANCH   6  14
TORSDOF 4
ENDMDL
MODEL 9
REMARK VINA RESULT:      -7.0      0.776      1.414
REMARK  Name = 
REMARK  4 active torsions:
REMARK  status: ('A' for Active; 'I' for Inactive)
REMARK    1  A    between atoms: C_5  and  N_6
REMARK    2  A    between atoms: C_12  and  N_13
REMARK    3  A    between atoms: N_13  and  C_14
REMARK    4  A    between atoms: C_14  and  C_15
REMARK                            x       y       z     vdW  Elec       q    Type
REMARK                         _______ _______ _______ _____ _____    ______ ____
ROOT
ATOM      1  F   UNL     1       1.637   9.153  20.180  0.00  0.00    +0.000 F 
ATOM      2  C   UNL     1       1.837   7.839  20.012  0.00  0.00    +0.000 A 
ATOM      3  C   UNL     1       1.180   6.940  20.828  0.00  0.00    +0.000 A 
ATOM      4  C   UNL     1       1.384   5.573  20.634  0.00  0.00    +0.000 A 
ATOM      5  C   UNL     1       2.244   5.070  19.631  0.00  0.00    +0.000 A 
ATOM      6  C   UNL     1       2.929   6.027  18.814  0.00  0.00    +0.000 A 
ATOM      7  C   UNL     1       2.698   7.399  19.017  0.00  0.00    +0.000 A 
ENDROOT
BRANCH   5   8
ATOM      8  N   UNL     1       2.413   3.690  19.504  0.00  0.00    +0.000 N 
ATOM      9  C   UNL     1       3.372   2.937  20.314  0.00  0.00    +0.000 C 
ATOM     10  C   UNL     1       4.389   2.252  19.401  0.00  0.00    +0.000 C 
ATOM     11  C   UNL     1       3.685   1.371  18.371  0.00  0.00    +0.000 C 
ATOM     12  C   UNL     1       2.648   2.173  17.594  0.00  0.00    +0.000 C 
ATOM     13  C   UNL     1       1.672   2.902  18.513  0.00  0.00    +0.000 C 
ENDBRANCH   5   8
BRANCH   6  14
ATOM     14  N   UNL     1       3.753   5.590  17.769  0.00  0.00    +0.000 N 
ATOM     15  H   UNL     1       3.226   5.359  16.928  0.00  0.00    +0.000 HD
BRANCH  14  16
ATOM     16  C   UNL     1       5.043   6.206  17.486  0.00  0.00    +0.000 C 
BRANCH  16  17
ATOM     17  C   UNL     1       5.830   5.538  16.387  0.00  0.00    +0.000 A 
ATOM     18  C   UNL     1       5.436   4.445  15.580  0.00  0.00    +0.000 A 
ATOM     19  C   UNL     1       6.503   4.222  14.739  0.00  0.00    +0.000 A 
ATOM     20  N   UNL     1       7.436   5.161  15.058  0.00  0.00    +0.000 N 
ATOM     21  N   UNL     1       7.058   5.973  16.058  0.00  0.00    +0.000 NA
ATOM     22  H   UNL     1       8.350   5.304  14.643  0.00  0.00    +0.000 HD
ENDBRANCH  16  17
ENDBRANCH  14  16
ENDBRANCH   6  14
TORSDOF 4
ENDMDL
