MODEL 1
REMARK VINA RESULT:      -9.0      0.000      0.000
REMARK  Name = 
REMARK  7 active torsions:
REMARK  status: ('A' for Active; 'I' for Inactive)
REMARK    1  A    between atoms: C_1  and  C_2
REMARK    2  A    between atoms: C_5  and  C_6
REMARK    3  A    between atoms: N_8  and  C_9
REMARK    4  A    between atoms: C_9  and  C_10
REMARK    5  A    between atoms: C_10  and  C_11
REMARK    6  A    between atoms: C_10  and  N_16
REMARK    7  A    between atoms: C_26  and  C_27
REMARK                            x       y       z     vdW  Elec       q    Type
REMARK                         _______ _______ _______ _____ _____    ______ ____
ROOT
ATOM      1  C   UNL     1       3.747   5.751  18.926  0.00  0.00    +0.000 C 
ENDROOT
BRANCH   1   2
ATOM      2  N   UNL     1       5.135   5.578  18.469  0.00  0.00    +0.000 N 
ATOM      3  C   UNL     1       6.308   5.405  19.326  0.00  0.00    +0.000 C 
ATOM      4  C   UNL     1       7.533   5.348  18.394  0.00  0.00    +0.000 C 
ATOM      5  C   UNL     1       6.891   4.987  17.096  0.00  0.00    +0.000 A 
ATOM      6  C   UNL     1       7.515   4.652  15.904  0.00  0.00    +0.000 A 
ATOM      7  C   UNL     1       6.713   4.408  14.792  0.00  0.00    +0.000 A 
ATOM      8  C   UNL     1       5.318   4.495  14.895  0.00  0.00    +0.000 A 
ATOM      9  C   UNL     1       4.708   4.852  16.106  0.00  0.00    +0.000 A 
ATOM     10  C   UNL     1       5.502   5.120  17.208  0.00  0.00    +0.000 A 
ENDBRANCH   1   2
BRANCH   1  11
ATOM     11  C   UNL     1       2.933   4.492  18.772  0.00  0.00    +0.000 A 
ATOM     12  C   UNL     1       1.781   4.204  18.065  0.00  0.00    +0.000 A 
ATOM     13  C   UNL     1       1.437   2.873  18.385  0.00  0.00    +0.000 A 
ATOM     14  C   UNL     1       2.420   2.418  19.234  0.00  0.00    +0.000 A 
ATOM     15  O   UNL     1       3.336   3.392  19.473  0.00  0.00    +0.000 OA
ENDBRANCH   1  11
BRANCH   1  16
ATOM     16  C   UNL     1       2.999   6.900  18.181  0.00  0.00    +0.000 C 
BRANCH  16  19
ATOM     17  C   UNL     1       1.696   8.971  18.595  0.00  0.00    +0.000 C 
ATOM     18  O   UNL     1       1.893   9.389  17.462  0.00  0.00    +0.000 OA
ATOM     19  N   UNL     1       2.187   7.762  19.044  0.00  0.00    +0.000 N 
ATOM     20  H   UNL     1       1.862   7.379  19.919  0.00  0.00    +0.000 HD
BRANCH  17  25
ATOM     21  C   UNL     1      -1.599  11.829  22.435  0.00  0.00    +0.000 C 
ATOM     22  C   UNL     1      -0.735  11.090  21.448  0.00  0.00    +0.000 A 
ATOM     23  C   UNL     1      -0.711  11.501  20.106  0.00  0.00    +0.000 A 
ATOM     24  C   UNL     1       0.079  10.834  19.161  0.00  0.00    +0.000 A 
ATOM     25  C   UNL     1       0.857   9.745  19.553  0.00  0.00    +0.000 A 
ATOM     26  C   UNL     1       0.827   9.318  20.886  0.00  0.00    +0.000 A 
ATOM     27  C   UNL     1       0.040   9.982  21.844  0.00  0.00    +0.000 A 
ATOM     28  C   UNL     1       0.035   9.484  23.263  0.00  0.00    +0.000 C 
ENDBRANCH  17  25
ENDBRANCH  16  19
ENDBRANCH   1  16
TORSDOF 5
ENDMDL
MODEL 2
REMARK VINA RESULT:      -8.9      2.350      4.681
REMARK  Name = 
REMARK  7 active torsions:
REMARK  status: ('A' for Active; 'I' for Inactive)
REMARK    1  A    between atoms: C_1  and  C_2
REMARK    2  A    between atoms: C_5  and  C_6
REMARK    3  A    between atoms: N_8  and  C_9
REMARK    4  A    between atoms: C_9  and  C_10
REMARK    5  A    between atoms: C_10  and  C_11
REMARK    6  A    between atoms: C_10  and  N_16
REMARK    7  A    between atoms: C_26  and  C_27
REMARK                            x       y       z     vdW  Elec       q    Type
REMARK                         _______ _______ _______ _____ _____    ______ ____
ROOT
ATOM      1  C   UNL     1       2.869   6.907  17.792  0.00  0.00    +0.000 C 
ENDROOT
BRANCH   1   2
ATOM      2  N   UNL     1       2.441   6.074  18.927  0.00  0.00    +0.000 N 
ATOM      3  C   UNL     1       1.919   6.562  20.204  0.00  0.00    +0.000 C 
ATOM      4  C   UNL     1       1.691   5.323  21.090  0.00  0.00    +0.000 C 
ATOM      5  C   UNL     1       1.625   4.242  20.065  0.00  0.00    +0.000 A 
ATOM      6  C   UNL     1       1.290   2.909  20.254  0.00  0.00    +0.000 A 
ATOM      7  C   UNL     1       1.353   2.056  19.156  0.00  0.00    +0.000 A 
ATOM      8  C   UNL     1       1.738   2.549  17.901  0.00  0.00    +0.000 A 
ATOM      9  C   UNL     1       2.088   3.896  17.735  0.00  0.00    +0.000 A 
ATOM     10  C   UNL     1       2.051   4.743  18.829  0.00  0.00    +0.000 A 
ENDBRANCH   1   2
BRANCH   1  11
ATOM     11  C   UNL     1       4.304   6.653  17.405  0.00  0.00    +0.000 A 
ATOM     12  C   UNL     1       4.955   6.646  16.187  0.00  0.00    +0.000 A 
ATOM     13  C   UNL     1       6.284   6.246  16.446  0.00  0.00    +0.000 A 
ATOM     14  C   UNL     1       6.372   6.073  17.808  0.00  0.00    +0.000 A 
ATOM     15  O   UNL     1       5.175   6.322  18.402  0.00  0.00    +0.000 OA
ENDBRANCH   1  11
BRANCH   1  16
ATOM     16  C   UNL     1       2.708   8.436  18.062  0.00  0.00    +0.000 C 
BRANCH  16  19
ATOM     17  C   UNL     1       0.702   9.719  18.760  0.00  0.00    +0.000 C 
ATOM     18  O   UNL     1       1.194  10.006  19.843  0.00  0.00    +0.000 OA
ATOM     19  N   UNL     1       1.363   8.962  17.814  0.00  0.00    +0.000 N 
ATOM     20  H   UNL     1       0.997   8.893  16.877  0.00  0.00    +0.000 HD
BRANCH  17  25
ATOM     21  C   UNL     1      -4.513  11.672  17.099  0.00  0.00    +0.000 C 
ATOM     22  C   UNL     1      -3.166  11.153  17.528  0.00  0.00    +0.000 A 
ATOM     23  C   UNL     1      -2.600  11.608  18.730  0.00  0.00    +0.000 A 
ATOM     24  C   UNL     1      -1.348  11.149  19.156  0.00  0.00    +0.000 A 
ATOM     25  C   UNL     1      -0.647  10.226  18.381  0.00  0.00    +0.000 A 
ATOM     26  C   UNL     1      -1.197   9.779  17.173  0.00  0.00    +0.000 A 
ATOM     27  C   UNL     1      -2.455  10.230  16.737  0.00  0.00    +0.000 A 
ATOM     28  C   UNL     1      -3.002   9.727  15.429  0.00  0.00    +0.000 C 
ENDBRANCH  17  25
ENDBRANCH  16  19
ENDBRANCH   1  16
TORSDOF 5
ENDMDL
MODEL 3
REMARK VINA RESULT:      -8.8      0.734      1.545
REMARK  Name = 
REMARK  7 active torsions:
REMARK  status: ('A' for Active; 'I' for Inactive)
REMARK    1  A    between atoms: C_1  and  C_2
REMARK    2  A    between atoms: C_5  and  C_6
REMARK    3  A    between atoms: N_8  and  C_9
REMARK    4  A    between atoms: C_9  and  C_10
REMARK    5  A    between atoms: C_10  and  C_11
REMARK    6  A    between atoms: C_10  and  N_16
REMARK    7  A    between atoms: C_26  and  C_27
REMARK                            x       y       z     vdW  Elec       q    Type
REMARK                         _______ _______ _______ _____ _____    ______ ____
ROOT
ATOM      1  C   UNL     1       3.913   5.402  19.183  0.00  0.00    +0.000 C 
ENDROOT
BRANCH   1   2
ATOM      2  N   UNL     1       5.264   5.432  18.600  0.00  0.00    +0.000 N 
ATOM      3  C   UNL     1       6.523   5.453  19.345  0.00  0.00    +0.000 C 
ATOM      4  C   UNL     1       7.652   5.566  18.303  0.00  0.00    +0.000 C 
ATOM      5  C   UNL     1       6.957   5.090  17.072  0.00  0.00    +0.000 A 
ATOM      6  C   UNL     1       7.513   4.831  15.828  0.00  0.00    +0.000 A 
ATOM      7  C   UNL     1       6.659   4.450  14.796  0.00  0.00    +0.000 A 
ATOM      8  C   UNL     1       5.282   4.327  15.029  0.00  0.00    +0.000 A 
ATOM      9  C   UNL     1       4.739   4.609  16.290  0.00  0.00    +0.000 A 
ATOM     10  C   UNL     1       5.580   5.013  17.312  0.00  0.00    +0.000 A 
ENDBRANCH   1   2
BRANCH   1  11
ATOM     11  C   UNL     1       3.270   4.044  19.065  0.00  0.00    +0.000 A 
ATOM     12  C   UNL     1       3.733   2.766  19.315  0.00  0.00    +0.000 A 
ATOM     13  C   UNL     1       2.702   1.884  18.928  0.00  0.00    +0.000 A 
ATOM     14  C   UNL     1       1.660   2.676  18.502  0.00  0.00    +0.000 A 
ATOM     15  O   UNL     1       1.994   3.991  18.585  0.00  0.00    +0.000 OA
ENDBRANCH   1  11
BRANCH   1  16
ATOM     16  C   UNL     1       2.949   6.447  18.543  0.00  0.00    +0.000 C 
BRANCH  16  19
ATOM     17  C   UNL     1       1.744   8.507  19.223  0.00  0.00    +0.000 C 
ATOM     18  O   UNL     1       1.990   9.068  18.163  0.00  0.00    +0.000 OA
ATOM     19  N   UNL     1       2.161   7.222  19.505  0.00  0.00    +0.000 N 
ATOM     20  H   UNL     1       1.795   6.739  20.311  0.00  0.00    +0.000 HD
BRANCH  17  25
ATOM     21  C   UNL     1      -1.455  11.304  23.187  0.00  0.00    +0.000 C 
ATOM     22  C   UNL     1      -0.637  10.578  22.152  0.00  0.00    +0.000 A 
ATOM     23  C   UNL     1       0.173   9.500  22.543  0.00  0.00    +0.000 A 
ATOM     24  C   UNL     1       0.949   8.804  21.607  0.00  0.00    +0.000 A 
ATOM     25  C   UNL     1       0.921   9.183  20.265  0.00  0.00    +0.000 A 
ATOM     26  C   UNL     1       0.128  10.267  19.869  0.00  0.00    +0.000 A 
ATOM     27  C   UNL     1      -0.657  10.970  20.800  0.00  0.00    +0.000 A 
ATOM     28  C   UNL     1      -1.488  12.133  20.329  0.00  0.00    +0.000 C 
ENDBRANCH  17  25
ENDBRANCH  16  19
ENDBRANCH   1  16
TORSDOF 5
ENDMDL
MODEL 4
REMARK VINA RESULT:      -8.7      1.629      4.102
REMARK  Name = 
REMARK  7 active torsions:
REMARK  status: ('A' for Active; 'I' for Inactive)
REMARK    1  A    between atoms: C_1  and  C_2
REMARK    2  A    between atoms: C_5  and  C_6
REMARK    3  A    between atoms: N_8  and  C_9
REMARK    4  A    between atoms: C_9  and  C_10
REMARK    5  A    between atoms: C_10  and  C_11
REMARK    6  A    between atoms: C_10  and  N_16
REMARK    7  A    between atoms: C_26  and  C_27
REMARK                            x       y       z     vdW  Elec       q    Type
REMARK                         _______ _______ _______ _____ _____    ______ ____
ROOT
ATOM      1  C   UNL     1       4.076   5.237  16.988  0.00  0.00    +0.000 C 
ENDROOT
BRANCH   1   2
ATOM      2  N   UNL     1       4.126   4.346  18.158  0.00  0.00    +0.000 N 
ATOM      3  C   UNL     1       5.318   4.022  18.943  0.00  0.00    +0.000 C 
ATOM      4  C   UNL     1       4.881   2.993  20.004  0.00  0.00    +0.000 C 
ATOM      5  C   UNL     1       3.408   3.221  20.039  0.00  0.00    +0.000 A 
ATOM      6  C   UNL     1       2.484   2.679  20.920  0.00  0.00    +0.000 A 
ATOM      7  C   UNL     1       1.140   2.986  20.729  0.00  0.00    +0.000 A 
ATOM      8  C   UNL     1       0.750   3.826  19.677  0.00  0.00    +0.000 A 
ATOM      9  C   UNL     1       1.698   4.350  18.787  0.00  0.00    +0.000 A 
ATOM     10  C   UNL     1       3.033   4.028  18.958  0.00  0.00    +0.000 A 
ENDBRANCH   1   2
BRANCH   1  11
ATOM     11  C   UNL     1       5.108   4.876  15.950  0.00  0.00    +0.000 A 
ATOM     12  C   UNL     1       5.120   3.946  14.928  0.00  0.00    +0.000 A 
ATOM     13  C   UNL     1       6.405   4.005  14.347  0.00  0.00    +0.000 A 
ATOM     14  C   UNL     1       7.084   4.993  15.022  0.00  0.00    +0.000 A 
ATOM     15  O   UNL     1       6.304   5.532  15.996  0.00  0.00    +0.000 OA
ENDBRANCH   1  11
BRANCH   1  16
ATOM     16  C   UNL     1       4.272   6.740  17.357  0.00  0.00    +0.000 C 
BRANCH  16  19
ATOM     17  C   UNL     1       2.476   8.188  18.270  0.00  0.00    +0.000 C 
ATOM     18  O   UNL     1       2.259   8.702  17.181  0.00  0.00    +0.000 OA
ATOM     19  N   UNL     1       3.434   7.213  18.462  0.00  0.00    +0.000 N 
ATOM     20  H   UNL     1       3.464   6.699  19.328  0.00  0.00    +0.000 HD
BRANCH  17  25
ATOM     21  C   UNL     1      -0.680   9.838  22.862  0.00  0.00    +0.000 C 
ATOM     22  C   UNL     1       0.127   9.411  21.665  0.00  0.00    +0.000 A 
ATOM     23  C   UNL     1       0.911   8.249  21.738  0.00  0.00    +0.000 A 
ATOM     24  C   UNL     1       1.676   7.825  20.644  0.00  0.00    +0.000 A 
ATOM     25  C   UNL     1       1.663   8.564  19.461  0.00  0.00    +0.000 A 
ATOM     26  C   UNL     1       0.896   9.733  19.385  0.00  0.00    +0.000 A 
ATOM     27  C   UNL     1       0.121  10.166  20.476  0.00  0.00    +0.000 A 
ATOM     28  C   UNL     1      -0.682  11.431  20.349  0.00  0.00    +0.000 C 
ENDBRANCH  17  25
ENDBRANCH  16  19
ENDBRANCH   1  16
TORSDOF 5
ENDMDL
MODEL 5
REMARK VINA RESULT:      -8.6      1.623      4.083
REMARK  Name = 
REMARK  7 active torsions:
REMARK  status: ('A' for Active; 'I' for Inactive)
REMARK    1  A    between atoms: C_1  and  C_2
REMARK    2  A    between atoms: C_5  and  C_6
REMARK    3  A    between atoms: N_8  and  C_9
REMARK    4  A    between atoms: C_9  and  C_10
REMARK    5  A    between atoms: C_10  and  C_11
REMARK    6  A    between atoms: C_10  and  N_16
REMARK    7  A    between atoms: C_26  and  C_27
REMARK                            x       y       z     vdW  Elec       q    Type
REMARK                         _______ _______ _______ _____ _____    ______ ____
ROOT
ATOM      1  C   UNL     1       4.365   5.316  16.850  0.00  0.00    +0.000 C 
ENDROOT
BRANCH   1   2
ATOM      2  N   UNL     1       4.176   4.271  17.869  0.00  0.00    +0.000 N 
ATOM      3  C   UNL     1       5.131   3.905  18.915  0.00  0.00    +0.000 C 
ATOM      4  C   UNL     1       4.520   2.712  19.674  0.00  0.00    +0.000 C 
ATOM      5  C   UNL     1       3.078   2.850  19.316  0.00  0.00    +0.000 A 
ATOM      6  C   UNL     1       2.004   2.136  19.825  0.00  0.00    +0.000 A 
ATOM      7  C   UNL     1       0.740   2.391  19.299  0.00  0.00    +0.000 A 
ATOM      8  C   UNL     1       0.577   3.350  18.289  0.00  0.00    +0.000 A 
ATOM      9  C   UNL     1       1.679   4.048  17.777  0.00  0.00    +0.000 A 
ATOM     10  C   UNL     1       2.940   3.781  18.280  0.00  0.00    +0.000 A 
ENDBRANCH   1   2
BRANCH   1  11
ATOM     11  C   UNL     1       5.426   4.948  15.844  0.00  0.00    +0.000 A 
ATOM     12  C   UNL     1       6.762   5.280  15.732  0.00  0.00    +0.000 A 
ATOM     13  C   UNL     1       7.216   4.710  14.523  0.00  0.00    +0.000 A 
ATOM     14  C   UNL     1       6.142   4.033  13.992  0.00  0.00    +0.000 A 
ATOM     15  O   UNL     1       5.049   4.168  14.789  0.00  0.00    +0.000 OA
ENDBRANCH   1  11
BRANCH   1  16
ATOM     16  C   UNL     1       4.743   6.701  17.460  0.00  0.00    +0.000 C 
BRANCH  16  19
ATOM     17  C   UNL     1       2.835   7.514  18.823  0.00  0.00    +0.000 C 
ATOM     18  O   UNL     1       3.052   6.702  19.713  0.00  0.00    +0.000 OA
ATOM     19  N   UNL     1       3.608   7.601  17.683  0.00  0.00    +0.000 N 
ATOM     20  H   UNL     1       3.502   8.388  17.061  0.00  0.00    +0.000 HD
BRANCH  17  25
ATOM     21  C   UNL     1      -1.541  11.281  19.485  0.00  0.00    +0.000 C 
ATOM     22  C   UNL     1      -0.400  10.311  19.323  0.00  0.00    +0.000 A 
ATOM     23  C   UNL     1       0.107  10.049  18.040  0.00  0.00    +0.000 A 
ATOM     24  C   UNL     1       1.165   9.151  17.853  0.00  0.00    +0.000 A 
ATOM     25  C   UNL     1       1.728   8.504  18.953  0.00  0.00    +0.000 A 
ATOM     26  C   UNL     1       1.218   8.748  20.234  0.00  0.00    +0.000 A 
ATOM     27  C   UNL     1       0.158   9.650  20.434  0.00  0.00    +0.000 A 
ATOM     28  C   UNL     1      -0.361   9.875  21.827  0.00  0.00    +0.000 C 
ENDBRANCH  17  25
ENDBRANCH  16  19
ENDBRANCH   1  16
TORSDOF 5
ENDMDL
MODEL 6
REMARK VINA RESULT:      -8.6      4.239      6.946
REMARK  Name = 
REMARK  7 active torsions:
REMARK  status: ('A' for Active; 'I' for Inactive)
REMARK    1  A    between atoms: C_1  and  C_2
REMARK    2  A    between atoms: C_5  and  C_6
REMARK    3  A    between atoms: N_8  and  C_9
REMARK    4  A    between atoms: C_9  and  C_10
REMARK    5  A    between atoms: C_10  and  C_11
REMARK    6  A    between atoms: C_10  and  N_16
REMARK    7  A    between atoms: C_26  and  C_27
REMARK                            x       y       z     vdW  Elec       q    Type
REMARK                         _______ _______ _______ _____ _____    ______ ____
ROOT
ATOM      1  C   UNL     1       5.941   6.030  16.361  0.00  0.00    +0.000 C 
ENDROOT
BRANCH   1   2
ATOM      2  N   UNL     1       5.110   5.391  17.395  0.00  0.00    +0.000 N 
ATOM      3  C   UNL     1       5.469   4.208  18.177  0.00  0.00    +0.000 C 
ATOM      4  C   UNL     1       4.252   3.878  19.062  0.00  0.00    +0.000 C 
ATOM      5  C   UNL     1       3.533   5.185  19.064  0.00  0.00    +0.000 A 
ATOM      6  C   UNL     1       2.426   5.545  19.819  0.00  0.00    +0.000 A 
ATOM      7  C   UNL     1       1.878   6.809  19.614  0.00  0.00    +0.000 A 
ATOM      8  C   UNL     1       2.446   7.681  18.674  0.00  0.00    +0.000 A 
ATOM      9  C   UNL     1       3.555   7.290  17.911  0.00  0.00    +0.000 A 
ATOM     10  C   UNL     1       4.088   6.026  18.092  0.00  0.00    +0.000 A 
ENDBRANCH   1   2
BRANCH   1  11
ATOM     11  C   UNL     1       6.031   5.199  15.106  0.00  0.00    +0.000 A 
ATOM     12  C   UNL     1       5.217   4.216  14.576  0.00  0.00    +0.000 A 
ATOM     13  C   UNL     1       5.872   3.735  13.421  0.00  0.00    +0.000 A 
ATOM     14  C   UNL     1       7.023   4.479  13.296  0.00  0.00    +0.000 A 
ATOM     15  O   UNL     1       7.128   5.374  14.313  0.00  0.00    +0.000 OA
ENDBRANCH   1  11
BRANCH   1  16
ATOM     16  C   UNL     1       7.394   6.329  16.844  0.00  0.00    +0.000 C 
BRANCH  16  19
ATOM     17  C   UNL     1       8.287   8.197  18.212  0.00  0.00    +0.000 C 
ATOM     18  O   UNL     1       8.618   7.447  19.121  0.00  0.00    +0.000 OA
ATOM     19  N   UNL     1       7.689   7.749  17.052  0.00  0.00    +0.000 N 
ATOM     20  H   UNL     1       7.589   8.370  16.263  0.00  0.00    +0.000 HD
BRANCH  17  25
ATOM     21  C   UNL     1       9.417  13.875  18.719  0.00  0.00    +0.000 C 
ATOM     22  C   UNL     1       9.137  12.401  18.587  0.00  0.00    +0.000 A 
ATOM     23  C   UNL     1       8.221  11.955  17.620  0.00  0.00    +0.000 A 
ATOM     24  C   UNL     1       7.936  10.592  17.473  0.00  0.00    +0.000 A 
ATOM     25  C   UNL     1       8.567   9.658  18.294  0.00  0.00    +0.000 A 
ATOM     26  C   UNL     1       9.470  10.096  19.271  0.00  0.00    +0.000 A 
ATOM     27  C   UNL     1       9.767  11.461  19.426  0.00  0.00    +0.000 A 
ATOM     28  C   UNL     1      10.738  11.884  20.494  0.00  0.00    +0.000 C 
ENDBRANCH  17  25
ENDBRANCH  16  19
ENDBRANCH   1  16
TORSDOF 5
ENDMDL
MODEL 7
REMARK VINA RESULT:      -8.5      2.139      4.464
REMARK  Name = 
REMARK  7 active torsions:
REMARK  status: ('A' for Active; 'I' for Inactive)
REMARK    1  A    between atoms: C_1  and  C_2
REMARK    2  A    between atoms: C_5  and  C_6
REMARK    3  A    between atoms: N_8  and  C_9
REMARK    4  A    between atoms: C_9  and  C_10
REMARK    5  A    between atoms: C_10  and  C_11
REMARK    6  A    between atoms: C_10  and  N_16
REMARK    7  A    between atoms: C_26  and  C_27
REMARK                            x       y       z     vdW  Elec       q    Type
REMARK                         _______ _______ _______ _____ _____    ______ ____
ROOT
ATOM      1  C   UNL     1       3.011   6.804  17.689  0.00  0.00    +0.000 C 
ENDROOT
BRANCH   1   2
ATOM      2  N   UNL     1       2.534   6.076  18.875  0.00  0.00    +0.000 N 
ATOM      3  C   UNL     1       2.049   6.677  20.117  0.00  0.00    +0.000 C 
ATOM      4  C   UNL     1       1.745   5.515  21.081  0.00  0.00    +0.000 C 
ATOM      5  C   UNL     1       1.605   4.377  20.127  0.00  0.00    +0.000 A 
ATOM      6  C   UNL     1       1.184   3.084  20.402  0.00  0.00    +0.000 A 
ATOM      7  C   UNL     1       1.187   2.160  19.360  0.00  0.00    +0.000 A 
ATOM      8  C   UNL     1       1.599   2.545  18.076  0.00  0.00    +0.000 A 
ATOM      9  C   UNL     1       2.036   3.853  17.824  0.00  0.00    +0.000 A 
ATOM     10  C   UNL     1       2.058   4.769  18.862  0.00  0.00    +0.000 A 
ENDBRANCH   1   2
BRANCH   1  11
ATOM     11  C   UNL     1       4.474   6.561  17.419  0.00  0.00    +0.000 A 
ATOM     12  C   UNL     1       5.263   6.754  16.301  0.00  0.00    +0.000 A 
ATOM     13  C   UNL     1       6.542   6.252  16.621  0.00  0.00    +0.000 A 
ATOM     14  C   UNL     1       6.468   5.820  17.926  0.00  0.00    +0.000 A 
ATOM     15  O   UNL     1       5.216   6.008  18.422  0.00  0.00    +0.000 OA
ENDBRANCH   1  11
BRANCH   1  16
ATOM     16  C   UNL     1       2.792   8.346  17.790  0.00  0.00    +0.000 C 
BRANCH  16  19
ATOM     17  C   UNL     1       0.941   9.899  18.357  0.00  0.00    +0.000 C 
ATOM     18  O   UNL     1       1.672  10.613  19.032  0.00  0.00    +0.000 OA
ATOM     19  N   UNL     1       1.392   8.771  17.702  0.00  0.00    +0.000 N 
ATOM     20  H   UNL     1       0.803   8.311  17.025  0.00  0.00    +0.000 HD
BRANCH  17  25
ATOM     21  C   UNL     1      -4.670  11.305  17.801  0.00  0.00    +0.000 C 
ATOM     22  C   UNL     1      -3.213  10.954  17.945  0.00  0.00    +0.000 A 
ATOM     23  C   UNL     1      -2.642  10.003  17.083  0.00  0.00    +0.000 A 
ATOM     24  C   UNL     1      -1.291   9.651  17.191  0.00  0.00    +0.000 A 
ATOM     25  C   UNL     1      -0.495  10.249  18.167  0.00  0.00    +0.000 A 
ATOM     26  C   UNL     1      -1.059  11.186  19.041  0.00  0.00    +0.000 A 
ATOM     27  C   UNL     1      -2.413  11.550  18.939  0.00  0.00    +0.000 A 
ATOM     28  C   UNL     1      -2.977  12.557  19.904  0.00  0.00    +0.000 C 
ENDBRANCH  17  25
ENDBRANCH  16  19
ENDBRANCH   1  16
TORSDOF 5
ENDMDL
MODEL 8
REMARK VINA RESULT:      -8.2      1.095      2.068
REMARK  Name = 
REMARK  7 active torsions:
REMARK  status: ('A' for Active; 'I' for Inactive)
REMARK    1  A    between atoms: C_1  and  C_2
REMARK    2  A    between atoms: C_5  and  C_6
REMARK    3  A    between atoms: N_8  and  C_9
REMARK    4  A    between atoms: C_9  and  C_10
REMARK    5  A    between atoms: C_10  and  C_11
REMARK    6  A    between atoms: C_10  and  N_16
REMARK    7  A    between atoms: C_26  and  C_27
REMARK                            x       y       z     vdW  Elec       q    Type
REMARK                         _______ _______ _______ _____ _____    ______ ____
ROOT
ATOM      1  C   UNL     1       3.223   5.705  19.048  0.00  0.00    +0.000 C 
ENDROOT
BRANCH   1   2
ATOM      2  N   UNL     1       4.223   5.080  18.168  0.00  0.00    +0.000 N 
ATOM      3  C   UNL     1       4.019   4.691  16.773  0.00  0.00    +0.000 C 
ATOM      4  C   UNL     1       5.319   4.008  16.309  0.00  0.00    +0.000 C 
ATOM      5  C   UNL     1       6.292   4.528  17.314  0.00  0.00    +0.000 A 
ATOM      6  C   UNL     1       7.670   4.371  17.322  0.00  0.00    +0.000 A 
ATOM      7  C   UNL     1       8.382   4.894  18.399  0.00  0.00    +0.000 A 
ATOM      8  C   UNL     1       7.708   5.562  19.432  0.00  0.00    +0.000 A 
ATOM      9  C   UNL     1       6.313   5.695  19.411  0.00  0.00    +0.000 A 
ATOM     10  C   UNL     1       5.599   5.155  18.355  0.00  0.00    +0.000 A 
ENDBRANCH   1   2
BRANCH   1  11
ATOM     11  C   UNL     1       2.311   4.691  19.690  0.00  0.00    +0.000 A 
ATOM     12  C   UNL     1       2.144   4.282  20.999  0.00  0.00    +0.000 A 
ATOM     13  C   UNL     1       1.205   3.228  20.973  0.00  0.00    +0.000 A 
ATOM     14  C   UNL     1       0.829   3.084  19.657  0.00  0.00    +0.000 A 
ATOM     15  O   UNL     1       1.492   3.971  18.869  0.00  0.00    +0.000 OA
ENDBRANCH   1  11
BRANCH   1  16
ATOM     16  C   UNL     1       2.331   6.752  18.311  0.00  0.00    +0.000 C 
BRANCH  16  19
ATOM     17  C   UNL     1       1.544   9.070  18.720  0.00  0.00    +0.000 C 
ATOM     18  O   UNL     1       1.801   9.419  17.575  0.00  0.00    +0.000 OA
ATOM     19  N   UNL     1       1.758   7.786  19.178  0.00  0.00    +0.000 N 
ATOM     20  H   UNL     1       1.378   7.497  20.066  0.00  0.00    +0.000 HD
BRANCH  17  25
ATOM     21  C   UNL     1      -0.955  12.647  22.558  0.00  0.00    +0.000 C 
ATOM     22  C   UNL     1      -0.298  11.717  21.573  0.00  0.00    +0.000 A 
ATOM     23  C   UNL     1       0.044  12.192  20.296  0.00  0.00    +0.000 A 
ATOM     24  C   UNL     1       0.653  11.352  19.354  0.00  0.00    +0.000 A 
ATOM     25  C   UNL     1       0.926  10.025  19.683  0.00  0.00    +0.000 A 
ATOM     26  C   UNL     1       0.574   9.539  20.948  0.00  0.00    +0.000 A 
ATOM     27  C   UNL     1      -0.035  10.373  21.902  0.00  0.00    +0.000 A 
ATOM     28  C   UNL     1      -0.401   9.805  23.246  0.00  0.00    +0.000 C 
ENDBRANCH  17  25
ENDBRANCH  16  19
ENDBRANCH   1  16
TORSDOF 5
ENDMDL
MODEL 9
REMARK VINA RESULT:      -8.1      1.152      1.457
REMARK  Name = 
REMARK  7 active torsions:
REMARK  status: ('A' for Active; 'I' for Inactive)
REMARK    1  A    between atoms: C_1  and  C_2
REMARK    2  A    between atoms: C_5  and  C_6
REMARK    3  A    between atoms: N_8  and  C_9
REMARK    4  A    between atoms: C_9  and  C_10
REMARK    5  A    between atoms: C_10  and  C_11
REMARK    6  A    between atoms: C_10  and  N_16
REMARK    7  A    between atoms: C_26  and  C_27
REMARK                            x       y       z     vdW  Elec       q    Type
REMARK                         _______ _______ _______ _____ _____    ______ ____
ROOT
ATOM      1  C   UNL     1       4.123   4.743  18.898  0.00  0.00    +0.000 C 
ENDROOT
BRANCH   1   2
ATOM      2  N   UNL     1       5.353   5.223  18.249  0.00  0.00    +0.000 N 
ATOM      3  C   UNL     1       6.569   5.666  18.931  0.00  0.00    +0.000 C 
ATOM      4  C   UNL     1       7.539   6.148  17.835  0.00  0.00    +0.000 C 
ATOM      5  C   UNL     1       6.980   5.466  16.633  0.00  0.00    +0.000 A 
ATOM      6  C   UNL     1       7.524   5.407  15.358  0.00  0.00    +0.000 A 
ATOM      7  C   UNL     1       6.795   4.760  14.364  0.00  0.00    +0.000 A 
ATOM      8  C   UNL     1       5.552   4.184  14.663  0.00  0.00    +0.000 A 
ATOM      9  C   UNL     1       5.013   4.269  15.954  0.00  0.00    +0.000 A 
ATOM     10  C   UNL     1       5.723   4.932  16.940  0.00  0.00    +0.000 A 
ENDBRANCH   1   2
BRANCH   1  11
ATOM     11  C   UNL     1       4.073   3.239  18.987  0.00  0.00    +0.000 A 
ATOM     12  C   UNL     1       3.318   2.288  18.327  0.00  0.00    +0.000 A 
ATOM     13  C   UNL     1       3.648   1.043  18.904  0.00  0.00    +0.000 A 
ATOM     14  C   UNL     1       4.610   1.305  19.852  0.00  0.00    +0.000 A 
ATOM     15  O   UNL     1       4.879   2.636  19.908  0.00  0.00    +0.000 OA
ENDBRANCH   1  11
BRANCH   1  16
ATOM     16  C   UNL     1       2.825   5.224  18.178  0.00  0.00    +0.000 C 
BRANCH  16  19
ATOM     17  C   UNL     1       2.422   7.662  18.408  0.00  0.00    +0.000 C 
ATOM     18  O   UNL     1       3.200   7.932  17.502  0.00  0.00    +0.000 OA
ATOM     19  N   UNL     1       2.162   6.368  18.810  0.00  0.00    +0.000 N 
ATOM     20  H   UNL     1       1.395   6.179  19.437  0.00  0.00    +0.000 HD
BRANCH  17  25
ATOM     21  C   UNL     1      -0.605  11.734  21.241  0.00  0.00    +0.000 C 
ATOM     22  C   UNL     1       0.189  10.679  20.516  0.00  0.00    +0.000 A 
ATOM     23  C   UNL     1       0.483  10.849  19.153  0.00  0.00    +0.000 A 
ATOM     24  C   UNL     1       1.216   9.886  18.448  0.00  0.00    +0.000 A 
ATOM     25  C   UNL     1       1.664   8.739  19.103  0.00  0.00    +0.000 A 
ATOM     26  C   UNL     1       1.363   8.555  20.458  0.00  0.00    +0.000 A 
ATOM     27  C   UNL     1       0.630   9.516  21.177  0.00  0.00    +0.000 A 
ATOM     28  C   UNL     1       0.324   9.271  22.629  0.00  0.00    +0.000 C 
ENDBRANCH  17  25
ENDBRANCH  16  19
ENDBRANCH   1  16
TORSDOF 5
ENDMDL
