MODEL 1
REMARK VINA RESULT:      -7.6      0.000      0.000
REMARK  Name = 
REMARK  3 active torsions:
REMARK  status: ('A' for Active; 'I' for Inactive)
REMARK    1  A    between atoms: S_2  and  C_4
REMARK    2  A    between atoms: S_2  and  N_11
REMARK    3  A    between atoms: C_14  and  N_15
REMARK                            x       y       z     vdW  Elec       q    Type
REMARK                         _______ _______ _______ _____ _____    ______ ____
ROOT
ATOM      1  N   UNL     1       4.624   5.355  16.720  0.00  0.00    +0.000 NA
ATOM      2  C   UNL     1       4.092   3.968  16.890  0.00  0.00    +0.000 C 
ATOM      3  C   UNL     1       2.619   3.927  17.294  0.00  0.00    +0.000 C 
ATOM      4  C   UNL     1       2.312   4.762  18.554  0.00  0.00    +0.000 C 
ATOM      5  C   UNL     1       2.721   6.194  18.164  0.00  0.00    +0.000 C 
ATOM      6  C   UNL     1       4.193   6.310  17.794  0.00  0.00    +0.000 C 
ENDROOT
BRANCH   4   7
ATOM      7  N   UNL     1       2.969   4.245  19.780  0.00  0.00    +0.000 NA
ATOM      8  C   UNL     1       3.096   2.774  19.823  0.00  0.00    +0.000 C 
ATOM      9  C   UNL     1       1.896   2.278  20.604  0.00  0.00    +0.000 C 
ATOM     10  C   UNL     1       1.731   3.331  21.672  0.00  0.00    +0.000 C 
ATOM     11  C   UNL     1       2.284   4.605  21.041  0.00  0.00    +0.000 C 
ENDBRANCH   4   7
BRANCH   1  13
ATOM     12  O   UNL     1       6.907   4.431  17.498  0.00  0.00    +0.000 OA
ATOM     13  S   UNL     1       6.361   5.407  16.571  0.00  0.00    +0.000 S 
ATOM     14  O   UNL     1       6.765   6.793  16.648  0.00  0.00    +0.000 OA
BRANCH  13  15
ATOM     15  C   UNL     1       6.698   4.858  14.922  0.00  0.00    +0.000 A 
ATOM     16  C   UNL     1       5.855   3.905  14.342  0.00  0.00    +0.000 A 
ATOM     17  C   UNL     1       6.033   3.558  13.002  0.00  0.00    +0.000 A 
ATOM     18  C   UNL     1       7.041   4.166  12.261  0.00  0.00    +0.000 A 
ATOM     19  F   UNL     1       7.202   3.836  10.973  0.00  0.00    +0.000 F 
ATOM     20  C   UNL     1       7.875   5.125  12.831  0.00  0.00    +0.000 A 
ATOM     21  C   UNL     1       7.703   5.479  14.170  0.00  0.00    +0.000 A 
ENDBRANCH  13  15
ENDBRANCH   1  13
TORSDOF 3
ENDMDL
MODEL 2
REMARK VINA RESULT:      -7.6      0.160      1.072
REMARK  Name = 
REMARK  3 active torsions:
REMARK  status: ('A' for Active; 'I' for Inactive)
REMARK    1  A    between atoms: S_2  and  C_4
REMARK    2  A    between atoms: S_2  and  N_11
REMARK    3  A    between atoms: C_14  and  N_15
REMARK                            x       y       z     vdW  Elec       q    Type
REMARK                         _______ _______ _______ _____ _____    ______ ____
ROOT
ATOM      1  N   UNL     1       4.465   5.363  16.668  0.00  0.00    +0.000 NA
ATOM      2  C   UNL     1       3.957   3.973  16.889  0.00  0.00    +0.000 C 
ATOM      3  C   UNL     1       2.499   3.924  17.344  0.00  0.00    +0.000 C 
ATOM      4  C   UNL     1       2.224   4.785  18.593  0.00  0.00    +0.000 C 
ATOM      5  C   UNL     1       2.600   6.212  18.155  0.00  0.00    +0.000 C 
ATOM      6  C   UNL     1       4.057   6.338  17.733  0.00  0.00    +0.000 C 
ENDROOT
BRANCH   4   7
ATOM      7  N   UNL     1       2.929   4.306  19.808  0.00  0.00    +0.000 NA
ATOM      8  C   UNL     1       3.132   2.844  19.852  0.00  0.00    +0.000 C 
ATOM      9  C   UNL     1       1.973   2.289  20.656  0.00  0.00    +0.000 C 
ATOM     10  C   UNL     1       1.775   3.336  21.724  0.00  0.00    +0.000 C 
ATOM     11  C   UNL     1       2.250   4.634  21.080  0.00  0.00    +0.000 C 
ENDBRANCH   4   7
BRANCH   1  13
ATOM     12  O   UNL     1       6.779   4.414  17.312  0.00  0.00    +0.000 OA
ATOM     13  S   UNL     1       6.194   5.433  16.458  0.00  0.00    +0.000 S 
ATOM     14  O   UNL     1       6.595   6.816  16.592  0.00  0.00    +0.000 OA
BRANCH  13  15
ATOM     15  C   UNL     1       6.472   4.972  14.772  0.00  0.00    +0.000 A 
ATOM     16  C   UNL     1       7.569   5.514  14.096  0.00  0.00    +0.000 A 
ATOM     17  C   UNL     1       7.873   5.062  12.810  0.00  0.00    +0.000 A 
ATOM     18  C   UNL     1       7.085   4.078  12.221  0.00  0.00    +0.000 A 
ATOM     19  F   UNL     1       7.387   3.642  10.991  0.00  0.00    +0.000 F 
ATOM     20  C   UNL     1       5.999   3.527  12.896  0.00  0.00    +0.000 A 
ATOM     21  C   UNL     1       5.689   3.972  14.183  0.00  0.00    +0.000 A 
ENDBRANCH  13  15
ENDBRANCH   1  13
TORSDOF 3
ENDMDL
MODEL 3
REMARK VINA RESULT:      -7.5      1.474      2.213
REMARK  Name = 
REMARK  3 active torsions:
REMARK  status: ('A' for Active; 'I' for Inactive)
REMARK    1  A    between atoms: S_2  and  C_4
REMARK    2  A    between atoms: S_2  and  N_11
REMARK    3  A    between atoms: C_14  and  N_15
REMARK                            x       y       z     vdW  Elec       q    Type
REMARK                         _______ _______ _______ _____ _____    ______ ____
ROOT
ATOM      1  N   UNL     1       5.722   6.177  18.096  0.00  0.00    +0.000 NA
ATOM      2  C   UNL     1       4.589   6.440  17.156  0.00  0.00    +0.000 C 
ATOM      3  C   UNL     1       3.235   6.557  17.853  0.00  0.00    +0.000 C 
ATOM      4  C   UNL     1       2.903   5.341  18.743  0.00  0.00    +0.000 C 
ATOM      5  C   UNL     1       4.040   5.316  19.781  0.00  0.00    +0.000 C 
ATOM      6  C   UNL     1       5.415   5.154  19.150  0.00  0.00    +0.000 C 
ENDROOT
BRANCH   4   7
ATOM      7  N   UNL     1       2.735   4.080  17.980  0.00  0.00    +0.000 NA
ATOM      8  C   UNL     1       1.334   3.756  17.647  0.00  0.00    +0.000 C 
ATOM      9  C   UNL     1       0.854   2.822  18.740  0.00  0.00    +0.000 C 
ATOM     10  C   UNL     1       2.072   1.974  19.015  0.00  0.00    +0.000 C 
ATOM     11  C   UNL     1       3.252   2.876  18.666  0.00  0.00    +0.000 C 
ENDBRANCH   4   7
BRANCH   1  13
ATOM     12  O   UNL     1       7.845   4.707  18.079  0.00  0.00    +0.000 OA
ATOM     13  S   UNL     1       7.199   5.736  17.282  0.00  0.00    +0.000 S 
ATOM     14  O   UNL     1       7.902   6.957  16.958  0.00  0.00    +0.000 OA
BRANCH  13  15
ATOM     15  C   UNL     1       6.683   5.011  15.752  0.00  0.00    +0.000 A 
ATOM     16  C   UNL     1       7.325   5.396  14.572  0.00  0.00    +0.000 A 
ATOM     17  C   UNL     1       7.016   4.742  13.378  0.00  0.00    +0.000 A 
ATOM     18  C   UNL     1       6.078   3.714  13.379  0.00  0.00    +0.000 A 
ATOM     19  F   UNL     1       5.791   3.083  12.233  0.00  0.00    +0.000 F 
ATOM     20  C   UNL     1       5.444   3.319  14.555  0.00  0.00    +0.000 A 
ATOM     21  C   UNL     1       5.749   3.967  15.753  0.00  0.00    +0.000 A 
ENDBRANCH  13  15
ENDBRANCH   1  13
TORSDOF 3
ENDMDL
MODEL 4
REMARK VINA RESULT:      -7.4      1.546      2.050
REMARK  Name = 
REMARK  3 active torsions:
REMARK  status: ('A' for Active; 'I' for Inactive)
REMARK    1  A    between atoms: S_2  and  C_4
REMARK    2  A    between atoms: S_2  and  N_11
REMARK    3  A    between atoms: C_14  and  N_15
REMARK                            x       y       z     vdW  Elec       q    Type
REMARK                         _______ _______ _______ _____ _____    ______ ____
ROOT
ATOM      1  N   UNL     1       5.731   6.233  18.152  0.00  0.00    +0.000 NA
ATOM      2  C   UNL     1       4.650   6.481  17.148  0.00  0.00    +0.000 C 
ATOM      3  C   UNL     1       3.260   6.605  17.768  0.00  0.00    +0.000 C 
ATOM      4  C   UNL     1       2.882   5.401  18.655  0.00  0.00    +0.000 C 
ATOM      5  C   UNL     1       3.960   5.392  19.754  0.00  0.00    +0.000 C 
ATOM      6  C   UNL     1       5.368   5.224  19.201  0.00  0.00    +0.000 C 
ENDROOT
BRANCH   4   7
ATOM      7  N   UNL     1       2.757   4.129  17.902  0.00  0.00    +0.000 NA
ATOM      8  C   UNL     1       1.367   3.754  17.575  0.00  0.00    +0.000 C 
ATOM      9  C   UNL     1       0.923   2.811  18.676  0.00  0.00    +0.000 C 
ATOM     10  C   UNL     1       2.171   2.009  18.954  0.00  0.00    +0.000 C 
ATOM     11  C   UNL     1       3.317   2.949  18.596  0.00  0.00    +0.000 C 
ENDBRANCH   4   7
BRANCH   1  13
ATOM     12  O   UNL     1       7.896   4.835  18.317  0.00  0.00    +0.000 OA
ATOM     13  S   UNL     1       7.250   5.784  17.425  0.00  0.00    +0.000 S 
ATOM     14  O   UNL     1       7.928   7.001  17.039  0.00  0.00    +0.000 OA
BRANCH  13  15
ATOM     15  C   UNL     1       6.815   4.936  15.933  0.00  0.00    +0.000 A 
ATOM     16  C   UNL     1       5.825   3.950  15.982  0.00  0.00    +0.000 A 
ATOM     17  C   UNL     1       5.383   3.364  14.794  0.00  0.00    +0.000 A 
ATOM     18  C   UNL     1       5.928   3.771  13.580  0.00  0.00    +0.000 A 
ATOM     19  F   UNL     1       5.493   3.212  12.444  0.00  0.00    +0.000 F 
ATOM     20  C   UNL     1       6.905   4.762  13.527  0.00  0.00    +0.000 A 
ATOM     21  C   UNL     1       7.352   5.354  14.709  0.00  0.00    +0.000 A 
ENDBRANCH  13  15
ENDBRANCH   1  13
TORSDOF 3
ENDMDL
MODEL 5
REMARK VINA RESULT:      -7.0      3.135      3.706
REMARK  Name = 
REMARK  3 active torsions:
REMARK  status: ('A' for Active; 'I' for Inactive)
REMARK    1  A    between atoms: S_2  and  C_4
REMARK    2  A    between atoms: S_2  and  N_11
REMARK    3  A    between atoms: C_14  and  N_15
REMARK                            x       y       z     vdW  Elec       q    Type
REMARK                         _______ _______ _______ _____ _____    ______ ____
ROOT
ATOM      1  N   UNL     1       4.058   5.106  16.624  0.00  0.00    +0.000 NA
ATOM      2  C   UNL     1       3.335   3.819  16.864  0.00  0.00    +0.000 C 
ATOM      3  C   UNL     1       1.977   4.001  17.539  0.00  0.00    +0.000 C 
ATOM      4  C   UNL     1       2.054   4.809  18.851  0.00  0.00    +0.000 C 
ATOM      5  C   UNL     1       2.625   6.172  18.419  0.00  0.00    +0.000 C 
ATOM      6  C   UNL     1       4.002   6.062  17.779  0.00  0.00    +0.000 C 
ENDROOT
BRANCH   4   7
ATOM      7  N   UNL     1       2.826   4.127  19.919  0.00  0.00    +0.000 NA
ATOM      8  C   UNL     1       2.820   2.653  19.823  0.00  0.00    +0.000 C 
ATOM      9  C   UNL     1       1.700   2.184  20.730  0.00  0.00    +0.000 C 
ATOM     10  C   UNL     1       1.787   3.142  21.893  0.00  0.00    +0.000 C 
ATOM     11  C   UNL     1       2.362   4.421  21.293  0.00  0.00    +0.000 C 
ENDBRANCH   4   7
BRANCH   1  13
ATOM     12  O   UNL     1       5.837   5.292  14.761  0.00  0.00    +0.000 OA
ATOM     13  S   UNL     1       5.720   4.879  16.149  0.00  0.00    +0.000 S 
ATOM     14  O   UNL     1       6.111   3.546  16.549  0.00  0.00    +0.000 OA
BRANCH  13  15
ATOM     15  C   UNL     1       6.643   6.014  17.146  0.00  0.00    +0.000 A 
ATOM     16  C   UNL     1       7.314   5.531  18.273  0.00  0.00    +0.000 A 
ATOM     17  C   UNL     1       8.147   6.389  18.995  0.00  0.00    +0.000 A 
ATOM     18  C   UNL     1       8.303   7.708  18.580  0.00  0.00    +0.000 A 
ATOM     19  F   UNL     1       9.110   8.523  19.270  0.00  0.00    +0.000 F 
ATOM     20  C   UNL     1       7.647   8.189  17.449  0.00  0.00    +0.000 A 
ATOM     21  C   UNL     1       6.813   7.338  16.722  0.00  0.00    +0.000 A 
ENDBRANCH  13  15
ENDBRANCH   1  13
TORSDOF 3
ENDMDL
MODEL 6
REMARK VINA RESULT:      -7.0      1.266      2.196
REMARK  Name = 
REMARK  3 active torsions:
REMARK  status: ('A' for Active; 'I' for Inactive)
REMARK    1  A    between atoms: S_2  and  C_4
REMARK    2  A    between atoms: S_2  and  N_11
REMARK    3  A    between atoms: C_14  and  N_15
REMARK                            x       y       z     vdW  Elec       q    Type
REMARK                         _______ _______ _______ _____ _____    ______ ____
ROOT
ATOM      1  N   UNL     1       5.779   4.362  17.148  0.00  0.00    +0.000 NA
ATOM      2  C   UNL     1       5.817   4.697  18.605  0.00  0.00    +0.000 C 
ATOM      3  C   UNL     1       5.284   3.580  19.500  0.00  0.00    +0.000 C 
ATOM      4  C   UNL     1       3.867   3.112  19.109  0.00  0.00    +0.000 C 
ATOM      5  C   UNL     1       4.025   2.610  17.662  0.00  0.00    +0.000 C 
ATOM      6  C   UNL     1       4.509   3.693  16.709  0.00  0.00    +0.000 C 
ENDROOT
BRANCH   4   7
ATOM      7  N   UNL     1       2.830   4.157  19.291  0.00  0.00    +0.000 NA
ATOM      8  C   UNL     1       2.622   4.565  20.695  0.00  0.00    +0.000 C 
ATOM      9  C   UNL     1       1.461   3.731  21.201  0.00  0.00    +0.000 C 
ATOM     10  C   UNL     1       0.550   3.662  20.000  0.00  0.00    +0.000 C 
ATOM     11  C   UNL     1       1.486   3.777  18.802  0.00  0.00    +0.000 C 
ENDBRANCH   4   7
BRANCH   1  13
ATOM     12  O   UNL     1       7.312   6.363  16.587  0.00  0.00    +0.000 OA
ATOM     13  S   UNL     1       6.086   5.737  16.121  0.00  0.00    +0.000 S 
ATOM     14  O   UNL     1       4.863   6.502  16.036  0.00  0.00    +0.000 OA
BRANCH  13  15
ATOM     15  C   UNL     1       6.387   5.055  14.515  0.00  0.00    +0.000 A 
ATOM     16  C   UNL     1       7.551   5.420  13.834  0.00  0.00    +0.000 A 
ATOM     17  C   UNL     1       7.863   4.794  12.626  0.00  0.00    +0.000 A 
ATOM     18  C   UNL     1       7.015   3.814  12.119  0.00  0.00    +0.000 A 
ATOM     19  F   UNL     1       7.324   3.209  10.964  0.00  0.00    +0.000 F 
ATOM     20  C   UNL     1       5.860   3.438  12.801  0.00  0.00    +0.000 A 
ATOM     21  C   UNL     1       5.542   4.058  14.010  0.00  0.00    +0.000 A 
ENDBRANCH  13  15
ENDBRANCH   1  13
TORSDOF 3
ENDMDL
MODEL 7
REMARK VINA RESULT:      -6.9      3.270      4.075
REMARK  Name = 
REMARK  3 active torsions:
REMARK  status: ('A' for Active; 'I' for Inactive)
REMARK    1  A    between atoms: S_2  and  C_4
REMARK    2  A    between atoms: S_2  and  N_11
REMARK    3  A    between atoms: C_14  and  N_15
REMARK                            x       y       z     vdW  Elec       q    Type
REMARK                         _______ _______ _______ _____ _____    ______ ____
ROOT
ATOM      1  N   UNL     1       5.183   5.158  16.972  0.00  0.00    +0.000 NA
ATOM      2  C   UNL     1       4.547   3.804  16.961  0.00  0.00    +0.000 C 
ATOM      3  C   UNL     1       3.031   3.843  17.147  0.00  0.00    +0.000 C 
ATOM      4  C   UNL     1       2.594   4.615  18.408  0.00  0.00    +0.000 C 
ATOM      5  C   UNL     1       3.143   6.036  18.187  0.00  0.00    +0.000 C 
ATOM      6  C   UNL     1       4.657   6.070  18.041  0.00  0.00    +0.000 C 
ENDROOT
BRANCH   4   7
ATOM      7  N   UNL     1       3.031   3.974  19.674  0.00  0.00    +0.000 NA
ATOM      8  C   UNL     1       2.871   2.506  19.695  0.00  0.00    +0.000 C 
ATOM      9  C   UNL     1       1.534   2.244  20.360  0.00  0.00    +0.000 C 
ATOM     10  C   UNL     1       1.481   3.304  21.433  0.00  0.00    +0.000 C 
ATOM     11  C   UNL     1       2.319   4.452  20.879  0.00  0.00    +0.000 C 
ENDBRANCH   4   7
BRANCH   1  13
ATOM     12  O   UNL     1       7.434   4.938  15.724  0.00  0.00    +0.000 OA
ATOM     13  S   UNL     1       6.922   5.096  17.075  0.00  0.00    +0.000 S 
ATOM     14  O   UNL     1       7.266   4.138  18.102  0.00  0.00    +0.000 OA
BRANCH  13  15
ATOM     15  C   UNL     1       7.405   6.691  17.669  0.00  0.00    +0.000 A 
ATOM     16  C   UNL     1       8.233   6.771  18.793  0.00  0.00    +0.000 A 
ATOM     17  C   UNL     1       8.724   8.015  19.196  0.00  0.00    +0.000 A 
ATOM     18  C   UNL     1       8.388   9.155  18.472  0.00  0.00    +0.000 A 
ATOM     19  F   UNL     1       8.869  10.344  18.857  0.00  0.00    +0.000 F 
ATOM     20  C   UNL     1       7.574   9.078  17.345  0.00  0.00    +0.000 A 
ATOM     21  C   UNL     1       7.080   7.839  16.935  0.00  0.00    +0.000 A 
ENDBRANCH  13  15
ENDBRANCH   1  13
TORSDOF 3
ENDMDL
MODEL 8
REMARK VINA RESULT:      -6.9      1.238      1.942
REMARK  Name = 
REMARK  3 active torsions:
REMARK  status: ('A' for Active; 'I' for Inactive)
REMARK    1  A    between atoms: S_2  and  C_4
REMARK    2  A    between atoms: S_2  and  N_11
REMARK    3  A    between atoms: C_14  and  N_15
REMARK                            x       y       z     vdW  Elec       q    Type
REMARK                         _______ _______ _______ _____ _____    ______ ____
ROOT
ATOM      1  N   UNL     1       5.834   4.376  17.231  0.00  0.00    +0.000 NA
ATOM      2  C   UNL     1       5.841   4.766  18.675  0.00  0.00    +0.000 C 
ATOM      3  C   UNL     1       5.314   3.672  19.602  0.00  0.00    +0.000 C 
ATOM      4  C   UNL     1       3.912   3.164  19.206  0.00  0.00    +0.000 C 
ATOM      5  C   UNL     1       4.104   2.613  17.781  0.00  0.00    +0.000 C 
ATOM      6  C   UNL     1       4.585   3.668  16.796  0.00  0.00    +0.000 C 
ENDROOT
BRANCH   4   7
ATOM      7  N   UNL     1       2.853   4.196  19.331  0.00  0.00    +0.000 NA
ATOM      8  C   UNL     1       2.547   4.582  20.723  0.00  0.00    +0.000 C 
ATOM      9  C   UNL     1       1.365   3.730  21.140  0.00  0.00    +0.000 C 
ATOM     10  C   UNL     1       0.537   3.667  19.880  0.00  0.00    +0.000 C 
ATOM     11  C   UNL     1       1.550   3.809  18.748  0.00  0.00    +0.000 C 
ENDBRANCH   4   7
BRANCH   1  13
ATOM     12  O   UNL     1       7.301   6.425  16.662  0.00  0.00    +0.000 OA
ATOM     13  S   UNL     1       6.135   5.718  16.158  0.00  0.00    +0.000 S 
ATOM     14  O   UNL     1       4.884   6.416  15.970  0.00  0.00    +0.000 OA
BRANCH  13  15
ATOM     15  C   UNL     1       6.559   4.981  14.606  0.00  0.00    +0.000 A 
ATOM     16  C   UNL     1       5.711   4.011  14.065  0.00  0.00    +0.000 A 
ATOM     17  C   UNL     1       5.965   3.515  12.785  0.00  0.00    +0.000 A 
ATOM     18  C   UNL     1       7.055   3.994  12.065  0.00  0.00    +0.000 A 
ATOM     19  F   UNL     1       7.289   3.521  10.834  0.00  0.00    +0.000 F 
ATOM     20  C   UNL     1       7.896   4.969  12.595  0.00  0.00    +0.000 A 
ATOM     21  C   UNL     1       7.648   5.472  13.874  0.00  0.00    +0.000 A 
ENDBRANCH  13  15
ENDBRANCH   1  13
TORSDOF 3
ENDMDL
MODEL 9
REMARK VINA RESULT:      -6.9      3.065      3.698
REMARK  Name = 
REMARK  3 active torsions:
REMARK  status: ('A' for Active; 'I' for Inactive)
REMARK    1  A    between atoms: S_2  and  C_4
REMARK    2  A    between atoms: S_2  and  N_11
REMARK    3  A    between atoms: C_14  and  N_15
REMARK                            x       y       z     vdW  Elec       q    Type
REMARK                         _______ _______ _______ _____ _____    ______ ____
ROOT
ATOM      1  N   UNL     1       3.904   5.076  16.681  0.00  0.00    +0.000 NA
ATOM      2  C   UNL     1       3.061   3.872  16.959  0.00  0.00    +0.000 C 
ATOM      3  C   UNL     1       1.792   4.188  17.749  0.00  0.00    +0.000 C 
ATOM      4  C   UNL     1       2.068   4.946  19.064  0.00  0.00    +0.000 C 
ATOM      5  C   UNL     1       2.753   6.248  18.608  0.00  0.00    +0.000 C 
ATOM      6  C   UNL     1       4.051   6.002  17.853  0.00  0.00    +0.000 C 
ENDROOT
BRANCH   4   7
ATOM      7  N   UNL     1       2.842   4.153  20.051  0.00  0.00    +0.000 NA
ATOM      8  C   UNL     1       2.749   2.693  19.860  0.00  0.00    +0.000 C 
ATOM      9  C   UNL     1       1.642   2.223  20.783  0.00  0.00    +0.000 C 
ATOM     10  C   UNL     1       1.828   3.096  22.000  0.00  0.00    +0.000 C 
ATOM     11  C   UNL     1       2.450   4.379  21.459  0.00  0.00    +0.000 C 
ENDBRANCH   4   7
BRANCH   1  13
ATOM     12  O   UNL     1       5.529   5.100  14.674  0.00  0.00    +0.000 OA
ATOM     13  S   UNL     1       5.485   4.677  16.064  0.00  0.00    +0.000 S 
ATOM     14  O   UNL     1       5.758   3.303  16.417  0.00  0.00    +0.000 OA
BRANCH  13  15
ATOM     15  C   UNL     1       6.608   5.686  16.988  0.00  0.00    +0.000 A 
ATOM     16  C   UNL     1       6.819   7.007  16.583  0.00  0.00    +0.000 A 
ATOM     17  C   UNL     1       7.602   7.849  17.374  0.00  0.00    +0.000 A 
ATOM     18  C   UNL     1       8.157   7.366  18.555  0.00  0.00    +0.000 A 
ATOM     19  F   UNL     1       8.900   8.181  19.314  0.00  0.00    +0.000 F 
ATOM     20  C   UNL     1       7.939   6.055  18.969  0.00  0.00    +0.000 A 
ATOM     21  C   UNL     1       7.156   5.205  18.184  0.00  0.00    +0.000 A 
ENDBRANCH  13  15
ENDBRANCH   1  13
TORSDOF 3
ENDMDL
