MODEL 1
REMARK VINA RESULT:      -6.7      0.000      0.000
REMARK  Name = 
REMARK  7 active torsions:
REMARK  status: ('A' for Active; 'I' for Inactive)
REMARK    1  A    between atoms: C_1  and  C_2
REMARK    2  A    between atoms: C_3  and  C_4
REMARK    3  A    between atoms: C_4  and  C_5
REMARK    4  A    between atoms: C_5  and  C_6
REMARK    5  A    between atoms: N_8  and  C_9
REMARK    6  A    between atoms: C_12  and  O_13
REMARK    7  A    between atoms: O_13  and  C_14
REMARK                            x       y       z     vdW  Elec       q    Type
REMARK                         _______ _______ _______ _____ _____    ______ ____
ROOT
ATOM      1  C   UNL     1       6.713   5.957  18.715  0.00  0.00    +0.000 C 
ATOM      2  O   UNL     1       6.659   5.279  19.728  0.00  0.00    +0.000 OA
ATOM      3  N   UNL     1       5.740   6.016  17.722  0.00  0.00    +0.000 N 
ATOM      4  H   UNL     1       5.976   6.452  16.834  0.00  0.00    +0.000 HD
ENDROOT
BRANCH   3   5
ATOM      5  C   UNL     1       4.526   5.293  17.779  0.00  0.00    +0.000 A 
ATOM      6  C   UNL     1       4.341   4.104  17.063  0.00  0.00    +0.000 A 
ATOM      7  C   UNL     1       3.131   3.413  17.113  0.00  0.00    +0.000 A 
ATOM      8  C   UNL     1       2.094   3.866  17.924  0.00  0.00    +0.000 A 
ATOM      9  C   UNL     1       2.260   5.055  18.632  0.00  0.00    +0.000 A 
ATOM     10  C   UNL     1       3.470   5.762  18.566  0.00  0.00    +0.000 A 
BRANCH   8  11
ATOM     11  O   UNL     1       0.971   3.087  17.936  0.00  0.00    +0.000 OA
ATOM     12  C   UNL     1       0.588   2.581  19.214  0.00  0.00    +0.000 C 
ENDBRANCH   8  11
ENDBRANCH   3   5
BRANCH   1  13
ATOM     13  C   UNL     1       7.976   6.734  18.431  0.00  0.00    +0.000 C 
BRANCH  13  14
ATOM     14  C   UNL     1       7.661   7.988  17.620  0.00  0.00    +0.000 C 
BRANCH  14  17
ATOM     15  C   UNL     1       9.804  11.412  19.109  0.00  0.00    +0.000 C 
ATOM     16  C   UNL     1       9.046  10.206  18.580  0.00  0.00    +0.000 C 
ATOM     17  C   UNL     1       8.397   9.170  18.126  0.00  0.00    +0.000 C 
ENDBRANCH  14  17
ENDBRANCH  13  14
ENDBRANCH   1  13
TORSDOF 5
ENDMDL
MODEL 2
REMARK VINA RESULT:      -6.6      0.285      1.212
REMARK  Name = 
REMARK  7 active torsions:
REMARK  status: ('A' for Active; 'I' for Inactive)
REMARK    1  A    between atoms: C_1  and  C_2
REMARK    2  A    between atoms: C_3  and  C_4
REMARK    3  A    between atoms: C_4  and  C_5
REMARK    4  A    between atoms: C_5  and  C_6
REMARK    5  A    between atoms: N_8  and  C_9
REMARK    6  A    between atoms: C_12  and  O_13
REMARK    7  A    between atoms: O_13  and  C_14
REMARK                            x       y       z     vdW  Elec       q    Type
REMARK                         _______ _______ _______ _____ _____    ______ ____
ROOT
ATOM      1  C   UNL     1       6.859   5.809  18.719  0.00  0.00    +0.000 C 
ATOM      2  O   UNL     1       6.981   4.845  19.455  0.00  0.00    +0.000 OA
ATOM      3  N   UNL     1       5.737   6.115  17.955  0.00  0.00    +0.000 N 
ATOM      4  H   UNL     1       5.819   6.823  17.230  0.00  0.00    +0.000 HD
ENDROOT
BRANCH   3   5
ATOM      5  C   UNL     1       4.558   5.332  17.957  0.00  0.00    +0.000 A 
ATOM      6  C   UNL     1       3.555   5.514  18.917  0.00  0.00    +0.000 A 
ATOM      7  C   UNL     1       2.408   4.721  18.919  0.00  0.00    +0.000 A 
ATOM      8  C   UNL     1       2.212   3.763  17.929  0.00  0.00    +0.000 A 
ATOM      9  C   UNL     1       3.209   3.563  16.976  0.00  0.00    +0.000 A 
ATOM     10  C   UNL     1       4.373   4.346  16.985  0.00  0.00    +0.000 A 
BRANCH   8  11
ATOM     11  O   UNL     1       1.032   3.076  17.997  0.00  0.00    +0.000 OA
ATOM     12  C   UNL     1       0.656   2.630  19.299  0.00  0.00    +0.000 C 
ENDBRANCH   8  11
ENDBRANCH   3   5
BRANCH   1  13
ATOM     13  C   UNL     1       8.048   6.719  18.514  0.00  0.00    +0.000 C 
BRANCH  13  14
ATOM     14  C   UNL     1       7.679   7.884  17.602  0.00  0.00    +0.000 C 
BRANCH  14  17
ATOM     15  C   UNL     1       9.597  11.537  18.832  0.00  0.00    +0.000 C 
ATOM     16  C   UNL     1       8.921  10.248  18.394  0.00  0.00    +0.000 C 
ATOM     17  C   UNL     1       8.343   9.142  18.018  0.00  0.00    +0.000 C 
ENDBRANCH  14  17
ENDBRANCH  13  14
ENDBRANCH   1  13
TORSDOF 5
ENDMDL
MODEL 3
REMARK VINA RESULT:      -6.5      1.175      1.184
REMARK  Name = 
REMARK  7 active torsions:
REMARK  status: ('A' for Active; 'I' for Inactive)
REMARK    1  A    between atoms: C_1  and  C_2
REMARK    2  A    between atoms: C_3  and  C_4
REMARK    3  A    between atoms: C_4  and  C_5
REMARK    4  A    between atoms: C_5  and  C_6
REMARK    5  A    between atoms: N_8  and  C_9
REMARK    6  A    between atoms: C_12  and  O_13
REMARK    7  A    between atoms: O_13  and  C_14
REMARK                            x       y       z     vdW  Elec       q    Type
REMARK                         _______ _______ _______ _____ _____    ______ ____
ROOT
ATOM      1  C   UNL     1       6.667   6.690  17.594  0.00  0.00    +0.000 C 
ATOM      2  O   UNL     1       6.245   6.931  16.476  0.00  0.00    +0.000 OA
ATOM      3  N   UNL     1       6.027   5.915  18.557  0.00  0.00    +0.000 N 
ATOM      4  H   UNL     1       6.369   5.947  19.514  0.00  0.00    +0.000 HD
ENDROOT
BRANCH   3   5
ATOM      5  C   UNL     1       4.784   5.275  18.339  0.00  0.00    +0.000 A 
ATOM      6  C   UNL     1       4.702   3.998  17.772  0.00  0.00    +0.000 A 
ATOM      7  C   UNL     1       3.468   3.389  17.545  0.00  0.00    +0.000 A 
ATOM      8  C   UNL     1       2.289   4.020  17.930  0.00  0.00    +0.000 A 
ATOM      9  C   UNL     1       2.356   5.297  18.483  0.00  0.00    +0.000 A 
ATOM     10  C   UNL     1       3.595   5.920  18.693  0.00  0.00    +0.000 A 
BRANCH   8  11
ATOM     11  O   UNL     1       1.140   3.314  17.705  0.00  0.00    +0.000 OA
ATOM     12  C   UNL     1       0.759   2.416  18.746  0.00  0.00    +0.000 C 
ENDBRANCH   8  11
ENDBRANCH   3   5
BRANCH   1  13
ATOM     13  C   UNL     1       7.944   7.359  18.046  0.00  0.00    +0.000 C 
BRANCH  13  14
ATOM     14  C   UNL     1       7.971   8.817  17.596  0.00  0.00    +0.000 C 
BRANCH  14  17
ATOM     15  C   UNL     1      10.119  11.295  20.386  0.00  0.00    +0.000 C 
ATOM     16  C   UNL     1       9.362  10.423  19.398  0.00  0.00    +0.000 C 
ATOM     17  C   UNL     1       8.714   9.674  18.550  0.00  0.00    +0.000 C 
ENDBRANCH  14  17
ENDBRANCH  13  14
ENDBRANCH   1  13
TORSDOF 5
ENDMDL
MODEL 4
REMARK VINA RESULT:      -6.5      3.806      5.646
REMARK  Name = 
REMARK  7 active torsions:
REMARK  status: ('A' for Active; 'I' for Inactive)
REMARK    1  A    between atoms: C_1  and  C_2
REMARK    2  A    between atoms: C_3  and  C_4
REMARK    3  A    between atoms: C_4  and  C_5
REMARK    4  A    between atoms: C_5  and  C_6
REMARK    5  A    between atoms: N_8  and  C_9
REMARK    6  A    between atoms: C_12  and  O_13
REMARK    7  A    between atoms: O_13  and  C_14
REMARK                            x       y       z     vdW  Elec       q    Type
REMARK                         _______ _______ _______ _____ _____    ______ ____
ROOT
ATOM      1  C   UNL     1       5.574   5.263  15.186  0.00  0.00    +0.000 C 
ATOM      2  O   UNL     1       5.224   6.422  15.332  0.00  0.00    +0.000 OA
ATOM      3  N   UNL     1       5.224   4.196  16.008  0.00  0.00    +0.000 N 
ATOM      4  H   UNL     1       5.732   3.320  15.913  0.00  0.00    +0.000 HD
ENDROOT
BRANCH   3   5
ATOM      5  C   UNL     1       4.377   4.328  17.134  0.00  0.00    +0.000 A 
ATOM      6  C   UNL     1       3.014   4.015  17.070  0.00  0.00    +0.000 A 
ATOM      7  C   UNL     1       2.187   4.170  18.182  0.00  0.00    +0.000 A 
ATOM      8  C   UNL     1       2.714   4.589  19.400  0.00  0.00    +0.000 A 
ATOM      9  C   UNL     1       4.067   4.915  19.474  0.00  0.00    +0.000 A 
ATOM     10  C   UNL     1       4.896   4.780  18.350  0.00  0.00    +0.000 A 
BRANCH   8  11
ATOM     11  O   UNL     1       1.825   4.659  20.436  0.00  0.00    +0.000 OA
ATOM     12  C   UNL     1       2.028   3.714  21.485  0.00  0.00    +0.000 C 
ENDBRANCH   8  11
ENDBRANCH   3   5
BRANCH   1  13
ATOM     13  C   UNL     1       6.557   4.937  14.086  0.00  0.00    +0.000 C 
BRANCH  13  14
ATOM     14  C   UNL     1       6.323   3.523  13.563  0.00  0.00    +0.000 C 
BRANCH  14  17
ATOM     15  C   UNL     1       3.338   3.422  10.461  0.00  0.00    +0.000 C 
ATOM     16  C   UNL     1       4.394   3.461  11.554  0.00  0.00    +0.000 C 
ATOM     17  C   UNL     1       5.299   3.495  12.491  0.00  0.00    +0.000 C 
ENDBRANCH  14  17
ENDBRANCH  13  14
ENDBRANCH   1  13
TORSDOF 5
ENDMDL
MODEL 5
REMARK VINA RESULT:      -6.5      3.660      5.696
REMARK  Name = 
REMARK  7 active torsions:
REMARK  status: ('A' for Active; 'I' for Inactive)
REMARK    1  A    between atoms: C_1  and  C_2
REMARK    2  A    between atoms: C_3  and  C_4
REMARK    3  A    between atoms: C_4  and  C_5
REMARK    4  A    between atoms: C_5  and  C_6
REMARK    5  A    between atoms: N_8  and  C_9
REMARK    6  A    between atoms: C_12  and  O_13
REMARK    7  A    between atoms: O_13  and  C_14
REMARK                            x       y       z     vdW  Elec       q    Type
REMARK                         _______ _______ _______ _____ _____    ______ ____
ROOT
ATOM      1  C   UNL     1       5.669   5.305  15.257  0.00  0.00    +0.000 C 
ATOM      2  O   UNL     1       5.305   6.460  15.396  0.00  0.00    +0.000 OA
ATOM      3  N   UNL     1       5.398   4.254  16.128  0.00  0.00    +0.000 N 
ATOM      4  H   UNL     1       5.916   3.386  16.022  0.00  0.00    +0.000 HD
ENDROOT
BRANCH   3   5
ATOM      5  C   UNL     1       4.624   4.400  17.304  0.00  0.00    +0.000 A 
ATOM      6  C   UNL     1       5.135   5.020  18.451  0.00  0.00    +0.000 A 
ATOM      7  C   UNL     1       4.367   5.138  19.609  0.00  0.00    +0.000 A 
ATOM      8  C   UNL     1       3.050   4.687  19.630  0.00  0.00    +0.000 A 
ATOM      9  C   UNL     1       2.534   4.057  18.500  0.00  0.00    +0.000 A 
ATOM     10  C   UNL     1       3.312   3.919  17.341  0.00  0.00    +0.000 A 
BRANCH   8  11
ATOM     11  O   UNL     1       2.374   4.897  20.800  0.00  0.00    +0.000 OA
ATOM     12  C   UNL     1       2.013   3.719  21.519  0.00  0.00    +0.000 C 
ENDBRANCH   8  11
ENDBRANCH   3   5
BRANCH   1  13
ATOM     13  C   UNL     1       6.584   4.968  14.103  0.00  0.00    +0.000 C 
BRANCH  13  14
ATOM     14  C   UNL     1       6.334   3.541  13.623  0.00  0.00    +0.000 C 
BRANCH  14  17
ATOM     15  C   UNL     1       3.365   3.373  10.509  0.00  0.00    +0.000 C 
ATOM     16  C   UNL     1       4.415   3.436  11.607  0.00  0.00    +0.000 C 
ATOM     17  C   UNL     1       5.314   3.492  12.549  0.00  0.00    +0.000 C 
ENDBRANCH  14  17
ENDBRANCH  13  14
ENDBRANCH   1  13
TORSDOF 5
ENDMDL
MODEL 6
REMARK VINA RESULT:      -6.3      3.831      5.642
REMARK  Name = 
REMARK  7 active torsions:
REMARK  status: ('A' for Active; 'I' for Inactive)
REMARK    1  A    between atoms: C_1  and  C_2
REMARK    2  A    between atoms: C_3  and  C_4
REMARK    3  A    between atoms: C_4  and  C_5
REMARK    4  A    between atoms: C_5  and  C_6
REMARK    5  A    between atoms: N_8  and  C_9
REMARK    6  A    between atoms: C_12  and  O_13
REMARK    7  A    between atoms: O_13  and  C_14
REMARK                            x       y       z     vdW  Elec       q    Type
REMARK                         _______ _______ _______ _____ _____    ______ ____
ROOT
ATOM      1  C   UNL     1       5.323   4.456  15.818  0.00  0.00    +0.000 C 
ATOM      2  O   UNL     1       5.617   3.343  16.218  0.00  0.00    +0.000 OA
ATOM      3  N   UNL     1       4.406   5.319  16.410  0.00  0.00    +0.000 N 
ATOM      4  H   UNL     1       4.092   6.132  15.885  0.00  0.00    +0.000 HD
ENDROOT
BRANCH   3   5
ATOM      5  C   UNL     1       3.699   5.008  17.596  0.00  0.00    +0.000 A 
ATOM      6  C   UNL     1       4.187   5.363  18.859  0.00  0.00    +0.000 A 
ATOM      7  C   UNL     1       3.489   5.031  20.020  0.00  0.00    +0.000 A 
ATOM      8  C   UNL     1       2.259   4.385  19.942  0.00  0.00    +0.000 A 
ATOM      9  C   UNL     1       1.769   4.015  18.691  0.00  0.00    +0.000 A 
ATOM     10  C   UNL     1       2.480   4.330  17.524  0.00  0.00    +0.000 A 
BRANCH   8  11
ATOM     11  O   UNL     1       1.638   4.151  21.138  0.00  0.00    +0.000 OA
ATOM     12  C   UNL     1       1.585   2.785  21.545  0.00  0.00    +0.000 C 
ENDBRANCH   8  11
ENDBRANCH   3   5
BRANCH   1  13
ATOM     13  C   UNL     1       5.910   4.934  14.510  0.00  0.00    +0.000 C 
BRANCH  13  14
ATOM     14  C   UNL     1       6.234   3.749  13.606  0.00  0.00    +0.000 C 
BRANCH  14  17
ATOM     15  C   UNL     1       3.367   3.305  10.424  0.00  0.00    +0.000 C 
ATOM     16  C   UNL     1       4.378   3.466  11.548  0.00  0.00    +0.000 C 
ATOM     17  C   UNL     1       5.244   3.604  12.513  0.00  0.00    +0.000 C 
ENDBRANCH  14  17
ENDBRANCH  13  14
ENDBRANCH   1  13
TORSDOF 5
ENDMDL
MODEL 7
REMARK VINA RESULT:      -6.3      1.201      1.322
REMARK  Name = 
REMARK  7 active torsions:
REMARK  status: ('A' for Active; 'I' for Inactive)
REMARK    1  A    between atoms: C_1  and  C_2
REMARK    2  A    between atoms: C_3  and  C_4
REMARK    3  A    between atoms: C_4  and  C_5
REMARK    4  A    between atoms: C_5  and  C_6
REMARK    5  A    between atoms: N_8  and  C_9
REMARK    6  A    between atoms: C_12  and  O_13
REMARK    7  A    between atoms: O_13  and  C_14
REMARK                            x       y       z     vdW  Elec       q    Type
REMARK                         _______ _______ _______ _____ _____    ______ ____
ROOT
ATOM      1  C   UNL     1       7.220   5.512  18.495  0.00  0.00    +0.000 C 
ATOM      2  O   UNL     1       7.685   4.434  18.166  0.00  0.00    +0.000 OA
ATOM      3  N   UNL     1       5.871   5.790  18.695  0.00  0.00    +0.000 N 
ATOM      4  H   UNL     1       5.580   6.762  18.769  0.00  0.00    +0.000 HD
ENDROOT
BRANCH   3   5
ATOM      5  C   UNL     1       4.849   4.822  18.558  0.00  0.00    +0.000 A 
ATOM      6  C   UNL     1       3.834   4.952  17.602  0.00  0.00    +0.000 A 
ATOM      7  C   UNL     1       2.822   3.999  17.493  0.00  0.00    +0.000 A 
ATOM      8  C   UNL     1       2.830   2.865  18.300  0.00  0.00    +0.000 A 
ATOM      9  C   UNL     1       3.828   2.730  19.264  0.00  0.00    +0.000 A 
ATOM     10  C   UNL     1       4.835   3.698  19.389  0.00  0.00    +0.000 A 
BRANCH   8  11
ATOM     11  O   UNL     1       1.819   1.973  18.076  0.00  0.00    +0.000 OA
ATOM     12  C   UNL     1       0.608   2.226  18.786  0.00  0.00    +0.000 C 
ENDBRANCH   8  11
ENDBRANCH   3   5
BRANCH   1  13
ATOM     13  C   UNL     1       8.149   6.698  18.606  0.00  0.00    +0.000 C 
BRANCH  13  14
ATOM     14  C   UNL     1       7.687   7.825  17.687  0.00  0.00    +0.000 C 
BRANCH  14  17
ATOM     15  C   UNL     1       9.571  11.561  18.700  0.00  0.00    +0.000 C 
ATOM     16  C   UNL     1       8.905  10.244  18.338  0.00  0.00    +0.000 C 
ATOM     17  C   UNL     1       8.335   9.114  18.028  0.00  0.00    +0.000 C 
ENDBRANCH  14  17
ENDBRANCH  13  14
ENDBRANCH   1  13
TORSDOF 5
ENDMDL
MODEL 8
REMARK VINA RESULT:      -6.3      1.188      1.269
REMARK  Name = 
REMARK  7 active torsions:
REMARK  status: ('A' for Active; 'I' for Inactive)
REMARK    1  A    between atoms: C_1  and  C_2
REMARK    2  A    between atoms: C_3  and  C_4
REMARK    3  A    between atoms: C_4  and  C_5
REMARK    4  A    between atoms: C_5  and  C_6
REMARK    5  A    between atoms: N_8  and  C_9
REMARK    6  A    between atoms: C_12  and  O_13
REMARK    7  A    between atoms: O_13  and  C_14
REMARK                            x       y       z     vdW  Elec       q    Type
REMARK                         _______ _______ _______ _____ _____    ______ ____
ROOT
ATOM      1  C   UNL     1       7.167   5.767  18.147  0.00  0.00    +0.000 C 
ATOM      2  O   UNL     1       7.511   4.939  17.320  0.00  0.00    +0.000 OA
ATOM      3  N   UNL     1       5.923   5.833  18.766  0.00  0.00    +0.000 N 
ATOM      4  H   UNL     1       5.679   6.675  19.281  0.00  0.00    +0.000 HD
ENDROOT
BRANCH   3   5
ATOM      5  C   UNL     1       4.883   4.905  18.521  0.00  0.00    +0.000 A 
ATOM      6  C   UNL     1       4.805   3.687  19.206  0.00  0.00    +0.000 A 
ATOM      7  C   UNL     1       3.785   2.774  18.939  0.00  0.00    +0.000 A 
ATOM      8  C   UNL     1       2.788   3.081  18.018  0.00  0.00    +0.000 A 
ATOM      9  C   UNL     1       2.861   4.285  17.319  0.00  0.00    +0.000 A 
ATOM     10  C   UNL     1       3.898   5.195  17.572  0.00  0.00    +0.000 A 
BRANCH   8  11
ATOM     11  O   UNL     1       1.811   2.137  17.869  0.00  0.00    +0.000 OA
ATOM     12  C   UNL     1       0.722   2.230  18.785  0.00  0.00    +0.000 C 
ENDBRANCH   8  11
ENDBRANCH   3   5
BRANCH   1  13
ATOM     13  C   UNL     1       8.114   6.897  18.476  0.00  0.00    +0.000 C 
BRANCH  13  14
ATOM     14  C   UNL     1       7.782   8.132  17.644  0.00  0.00    +0.000 C 
BRANCH  14  17
ATOM     15  C   UNL     1       9.801  11.634  19.124  0.00  0.00    +0.000 C 
ATOM     16  C   UNL     1       9.089  10.399  18.597  0.00  0.00    +0.000 C 
ATOM     17  C   UNL     1       8.480   9.339  18.146  0.00  0.00    +0.000 C 
ENDBRANCH  14  17
ENDBRANCH  13  14
ENDBRANCH   1  13
TORSDOF 5
ENDMDL
MODEL 9
REMARK VINA RESULT:      -6.3      3.651      5.689
REMARK  Name = 
REMARK  7 active torsions:
REMARK  status: ('A' for Active; 'I' for Inactive)
REMARK    1  A    between atoms: C_1  and  C_2
REMARK    2  A    between atoms: C_3  and  C_4
REMARK    3  A    between atoms: C_4  and  C_5
REMARK    4  A    between atoms: C_5  and  C_6
REMARK    5  A    between atoms: N_8  and  C_9
REMARK    6  A    between atoms: C_12  and  O_13
REMARK    7  A    between atoms: O_13  and  C_14
REMARK                            x       y       z     vdW  Elec       q    Type
REMARK                         _______ _______ _______ _____ _____    ______ ____
ROOT
ATOM      1  C   UNL     1       6.475   4.816  15.155  0.00  0.00    +0.000 C 
ATOM      2  O   UNL     1       7.339   4.602  15.988  0.00  0.00    +0.000 OA
ATOM      3  N   UNL     1       5.114   4.950  15.408  0.00  0.00    +0.000 N 
ATOM      4  H   UNL     1       4.467   4.924  14.624  0.00  0.00    +0.000 HD
ENDROOT
BRANCH   3   5
ATOM      5  C   UNL     1       4.554   4.874  16.706  0.00  0.00    +0.000 A 
ATOM      6  C   UNL     1       4.188   3.651  17.280  0.00  0.00    +0.000 A 
ATOM      7  C   UNL     1       3.618   3.595  18.552  0.00  0.00    +0.000 A 
ATOM      8  C   UNL     1       3.450   4.755  19.301  0.00  0.00    +0.000 A 
ATOM      9  C   UNL     1       3.798   5.981  18.736  0.00  0.00    +0.000 A 
ATOM     10  C   UNL     1       4.353   6.041  17.448  0.00  0.00    +0.000 A 
BRANCH   8  11
ATOM     11  O   UNL     1       2.928   4.580  20.553  0.00  0.00    +0.000 OA
ATOM     12  C   UNL     1       1.508   4.459  20.614  0.00  0.00    +0.000 C 
ENDBRANCH   8  11
ENDBRANCH   3   5
BRANCH   1  13
ATOM     13  C   UNL     1       6.867   4.842  13.696  0.00  0.00    +0.000 C 
BRANCH  13  14
ATOM     14  C   UNL     1       6.686   3.463  13.070  0.00  0.00    +0.000 C 
BRANCH  14  17
ATOM     15  C   UNL     1       3.234   3.288  10.503  0.00  0.00    +0.000 C 
ATOM     16  C   UNL     1       4.454   3.354  11.407  0.00  0.00    +0.000 C 
ATOM     17  C   UNL     1       5.499   3.411  12.184  0.00  0.00    +0.000 C 
ENDBRANCH  14  17
ENDBRANCH  13  14
ENDBRANCH   1  13
TORSDOF 5
ENDMDL
