MODEL 1
REMARK VINA RESULT:      -8.8      0.000      0.000
REMARK  Name = 
REMARK  8 active torsions:
REMARK  status: ('A' for Active; 'I' for Inactive)
REMARK    1  A    between atoms: C_2  and  O_3
REMARK    2  A    between atoms: C_2  and  C_4
REMARK    3  A    between atoms: C_4  and  N_5
REMARK    4  A    between atoms: C_13  and  C_14
REMARK    5  A    between atoms: C_18  and  N_19
REMARK    6  A    between atoms: C_22  and  C_23
REMARK    7  A    between atoms: C_23  and  N_24
REMARK    8  A    between atoms: C_25  and  C_27
REMARK                            x       y       z     vdW  Elec       q    Type
REMARK                         _______ _______ _______ _____ _____    ______ ____
ROOT
ATOM      1  N   UNL     1       2.381   4.591  19.793  0.00  0.00    +0.000 N 
ATOM      2  C   UNL     1       1.212   3.827  19.626  0.00  0.00    +0.000 A 
ATOM      3  O   UNL     1       0.203   3.991  20.303  0.00  0.00    +0.000 OA
ATOM      4  C   UNL     1       1.210   2.762  18.512  0.00  0.00    +0.000 A 
ATOM      5  O   UNL     1       0.267   1.997  18.359  0.00  0.00    +0.000 OA
ATOM      6  N   UNL     1       2.292   2.739  17.671  0.00  0.00    +0.000 N 
ATOM      7  C   UNL     1       3.402   3.564  17.825  0.00  0.00    +0.000 A 
ATOM      8  C   UNL     1       4.401   3.528  16.850  0.00  0.00    +0.000 A 
ATOM      9  C   UNL     1       5.509   4.402  16.900  0.00  0.00    +0.000 A 
ATOM     10  C   UNL     1       5.630   5.249  18.022  0.00  0.00    +0.000 A 
ATOM     11  C   UNL     1       4.668   5.184  19.057  0.00  0.00    +0.000 A 
ATOM     12  C   UNL     1       3.493   4.430  18.916  0.00  0.00    +0.000 A 
ATOM     13  H   UNL     1       2.240   2.065  16.916  0.00  0.00    +0.000 HD
ENDROOT
BRANCH  10  14
ATOM     14  N   UNL     1       6.633   6.259  18.147  0.00  0.00    +0.000 N 
ATOM     15  C   UNL     1       7.791   6.171  18.884  0.00  0.00    +0.000 A 
ATOM     16  C   UNL     1       8.508   7.342  18.752  0.00  0.00    +0.000 A 
ATOM     17  C   UNL     1       7.823   8.154  17.814  0.00  0.00    +0.000 A 
ATOM     18  C   UNL     1       6.705   7.437  17.425  0.00  0.00    +0.000 A 
BRANCH  17  19
ATOM     19  C   UNL     1       8.250   9.495  17.325  0.00  0.00    +0.000 C 
BRANCH  19  20
ATOM     20  N   UNL     1       8.483  10.331  18.475  0.00  0.00    +0.000 N 
ATOM     21  C   UNL     1       9.578  11.161  18.533  0.00  0.00    +0.000 C 
ATOM     22  O   UNL     1      10.434  11.223  17.659  0.00  0.00    +0.000 OA
ATOM     23  H   UNL     1       7.700  10.507  19.088  0.00  0.00    +0.000 HD
BRANCH  21  24
ATOM     24  C   UNL     1       9.645  12.055  19.723  0.00  0.00    +0.000 A 
ATOM     25  C   UNL     1       9.340  11.590  21.008  0.00  0.00    +0.000 A 
ATOM     26  C   UNL     1       9.368  12.469  22.093  0.00  0.00    +0.000 A 
ATOM     27  C   UNL     1       9.717  13.806  21.896  0.00  0.00    +0.000 A 
ATOM     28  C   UNL     1      10.055  14.265  20.623  0.00  0.00    +0.000 A 
ATOM     29  C   UNL     1      10.025  13.389  19.535  0.00  0.00    +0.000 A 
ENDBRANCH  21  24
ENDBRANCH  19  20
ENDBRANCH  17  19
ENDBRANCH  10  14
BRANCH   9  30
ATOM     30  C   UNL     1       6.521   4.301  15.774  0.00  0.00    +0.000 C 
ATOM     31  F   UNL     1       6.536   5.415  14.982  0.00  0.00    +0.000 F 
ATOM     32  F   UNL     1       7.804   4.181  16.205  0.00  0.00    +0.000 F 
ATOM     33  F   UNL     1       6.282   3.264  14.930  0.00  0.00    +0.000 F 
ENDBRANCH   9  30
BRANCH   1  34
ATOM     34  C   UNL     1       2.418   5.562  20.895  0.00  0.00    +0.000 C 
BRANCH  34  36
ATOM     35  O   UNL     1       2.130   7.469  19.420  0.00  0.00    +0.000 OA
ATOM     36  C   UNL     1       2.025   7.000  20.546  0.00  0.00    +0.000 C 
BRANCH  36  37
ATOM     37  O   UNL     1       1.589   7.743  21.588  0.00  0.00    +0.000 OA
ATOM     38  H   UNL     1       1.412   8.670  21.340  0.00  0.00    +0.000 HD
ENDBRANCH  36  37
ENDBRANCH  34  36
ENDBRANCH   1  34
TORSDOF 8
ENDMDL
MODEL 2
REMARK VINA RESULT:      -8.0      6.344      9.858
REMARK  Name = 
REMARK  8 active torsions:
REMARK  status: ('A' for Active; 'I' for Inactive)
REMARK    1  A    between atoms: C_2  and  O_3
REMARK    2  A    between atoms: C_2  and  C_4
REMARK    3  A    between atoms: C_4  and  N_5
REMARK    4  A    between atoms: C_13  and  C_14
REMARK    5  A    between atoms: C_18  and  N_19
REMARK    6  A    between atoms: C_22  and  C_23
REMARK    7  A    between atoms: C_23  and  N_24
REMARK    8  A    between atoms: C_25  and  C_27
REMARK                            x       y       z     vdW  Elec       q    Type
REMARK                         _______ _______ _______ _____ _____    ______ ____
ROOT
ATOM      1  N   UNL     1       1.612  14.715  19.948  0.00  0.00    +0.000 N 
ATOM      2  C   UNL     1       1.122  16.033  19.951  0.00  0.00    +0.000 A 
ATOM      3  O   UNL     1       1.838  17.012  20.128  0.00  0.00    +0.000 OA
ATOM      4  C   UNL     1      -0.382  16.234  19.682  0.00  0.00    +0.000 A 
ATOM      5  O   UNL     1      -0.903  17.340  19.754  0.00  0.00    +0.000 OA
ATOM      6  N   UNL     1      -1.102  15.128  19.314  0.00  0.00    +0.000 N 
ATOM      7  C   UNL     1      -0.563  13.846  19.252  0.00  0.00    +0.000 A 
ATOM      8  C   UNL     1      -1.361  12.809  18.766  0.00  0.00    +0.000 A 
ATOM      9  C   UNL     1      -0.849  11.505  18.593  0.00  0.00    +0.000 A 
ATOM     10  C   UNL     1       0.473  11.255  19.023  0.00  0.00    +0.000 A 
ATOM     11  C   UNL     1       1.223  12.293  19.623  0.00  0.00    +0.000 A 
ATOM     12  C   UNL     1       0.758  13.616  19.639  0.00  0.00    +0.000 A 
ATOM     13  H   UNL     1      -2.076  15.299  19.092  0.00  0.00    +0.000 HD
ENDROOT
BRANCH  10  14
ATOM     14  N   UNL     1       1.155  10.019  18.806  0.00  0.00    +0.000 N 
ATOM     15  C   UNL     1       1.930   9.695  17.716  0.00  0.00    +0.000 A 
ATOM     16  C   UNL     1       2.424   8.417  17.870  0.00  0.00    +0.000 A 
ATOM     17  C   UNL     1       2.031   7.961  19.153  0.00  0.00    +0.000 A 
ATOM     18  C   UNL     1       1.296   8.989  19.719  0.00  0.00    +0.000 A 
BRANCH  17  19
ATOM     19  C   UNL     1       2.373   6.650  19.771  0.00  0.00    +0.000 C 
BRANCH  19  20
ATOM     20  N   UNL     1       3.588   6.177  19.159  0.00  0.00    +0.000 N 
ATOM     21  C   UNL     1       3.563   5.151  18.243  0.00  0.00    +0.000 C 
ATOM     22  O   UNL     1       2.545   4.552  17.917  0.00  0.00    +0.000 OA
ATOM     23  H   UNL     1       4.393   6.785  19.193  0.00  0.00    +0.000 HD
BRANCH  21  24
ATOM     24  C   UNL     1       4.867   4.830  17.600  0.00  0.00    +0.000 A 
ATOM     25  C   UNL     1       6.080   4.987  18.283  0.00  0.00    +0.000 A 
ATOM     26  C   UNL     1       7.287   4.722  17.631  0.00  0.00    +0.000 A 
ATOM     27  C   UNL     1       7.280   4.284  16.306  0.00  0.00    +0.000 A 
ATOM     28  C   UNL     1       6.073   4.092  15.634  0.00  0.00    +0.000 A 
ATOM     29  C   UNL     1       4.865   4.360  16.282  0.00  0.00    +0.000 A 
ENDBRANCH  21  24
ENDBRANCH  19  20
ENDBRANCH  17  19
ENDBRANCH  10  14
BRANCH   9  30
ATOM     30  C   UNL     1      -1.792  10.460  18.029  0.00  0.00    +0.000 C 
ATOM     31  F   UNL     1      -2.001   9.422  18.894  0.00  0.00    +0.000 F 
ATOM     32  F   UNL     1      -3.039  10.936  17.771  0.00  0.00    +0.000 F 
ATOM     33  F   UNL     1      -1.336   9.888  16.885  0.00  0.00    +0.000 F 
ENDBRANCH   9  30
BRANCH   1  34
ATOM     34  C   UNL     1       3.030  14.506  20.270  0.00  0.00    +0.000 C 
BRANCH  34  36
ATOM     35  O   UNL     1       2.758  14.965  22.638  0.00  0.00    +0.000 OA
ATOM     36  C   UNL     1       3.379  14.388  21.756  0.00  0.00    +0.000 C 
BRANCH  36  37
ATOM     37  O   UNL     1       4.462  13.626  22.031  0.00  0.00    +0.000 OA
ATOM     38  H   UNL     1       5.301  14.070  21.806  0.00  0.00    +0.000 HD
ENDBRANCH  36  37
ENDBRANCH  34  36
ENDBRANCH   1  34
TORSDOF 8
ENDMDL
MODEL 3
REMARK VINA RESULT:      -8.0      6.515      9.581
REMARK  Name = 
REMARK  8 active torsions:
REMARK  status: ('A' for Active; 'I' for Inactive)
REMARK    1  A    between atoms: C_2  and  O_3
REMARK    2  A    between atoms: C_2  and  C_4
REMARK    3  A    between atoms: C_4  and  N_5
REMARK    4  A    between atoms: C_13  and  C_14
REMARK    5  A    between atoms: C_18  and  N_19
REMARK    6  A    between atoms: C_22  and  C_23
REMARK    7  A    between atoms: C_23  and  N_24
REMARK    8  A    between atoms: C_25  and  C_27
REMARK                            x       y       z     vdW  Elec       q    Type
REMARK                         _______ _______ _______ _____ _____    ______ ____
ROOT
ATOM      1  N   UNL     1      -3.919  10.990  17.734  0.00  0.00    +0.000 N 
ATOM      2  C   UNL     1      -5.114  11.669  18.032  0.00  0.00    +0.000 A 
ATOM      3  O   UNL     1      -6.187  11.398  17.506  0.00  0.00    +0.000 OA
ATOM      4  C   UNL     1      -5.055  12.779  19.101  0.00  0.00    +0.000 A 
ATOM      5  O   UNL     1      -6.029  13.475  19.355  0.00  0.00    +0.000 OA
ATOM      6  N   UNL     1      -3.876  12.921  19.785  0.00  0.00    +0.000 N 
ATOM      7  C   UNL     1      -2.733  12.178  19.509  0.00  0.00    +0.000 A 
ATOM      8  C   UNL     1      -1.619  12.333  20.336  0.00  0.00    +0.000 A 
ATOM      9  C   UNL     1      -0.460  11.545  20.166  0.00  0.00    +0.000 A 
ATOM     10  C   UNL     1      -0.420  10.661  19.066  0.00  0.00    +0.000 A 
ATOM     11  C   UNL     1      -1.514  10.607  18.170  0.00  0.00    +0.000 A 
ATOM     12  C   UNL     1      -2.717  11.275  18.445  0.00  0.00    +0.000 A 
ATOM     13  H   UNL     1      -3.882  13.622  20.517  0.00  0.00    +0.000 HD
ENDROOT
BRANCH  10  14
ATOM     14  N   UNL     1       0.636   9.727  18.839  0.00  0.00    +0.000 N 
ATOM     15  C   UNL     1       1.644   9.845  17.910  0.00  0.00    +0.000 A 
ATOM     16  C   UNL     1       2.476   8.749  17.996  0.00  0.00    +0.000 A 
ATOM     17  C   UNL     1       2.034   7.965  19.091  0.00  0.00    +0.000 A 
ATOM     18  C   UNL     1       0.934   8.621  19.616  0.00  0.00    +0.000 A 
BRANCH  17  19
ATOM     19  C   UNL     1       2.656   6.707  19.589  0.00  0.00    +0.000 C 
BRANCH  19  20
ATOM     20  N   UNL     1       3.694   6.331  18.664  0.00  0.00    +0.000 N 
ATOM     21  C   UNL     1       4.276   5.086  18.724  0.00  0.00    +0.000 C 
ATOM     22  O   UNL     1       3.994   4.242  19.565  0.00  0.00    +0.000 OA
ATOM     23  H   UNL     1       3.780   6.873  17.817  0.00  0.00    +0.000 HD
BRANCH  21  24
ATOM     24  C   UNL     1       5.255   4.781  17.644  0.00  0.00    +0.000 A 
ATOM     25  C   UNL     1       6.635   4.788  17.882  0.00  0.00    +0.000 A 
ATOM     26  C   UNL     1       7.525   4.543  16.833  0.00  0.00    +0.000 A 
ATOM     27  C   UNL     1       7.035   4.276  15.554  0.00  0.00    +0.000 A 
ATOM     28  C   UNL     1       5.661   4.234  15.321  0.00  0.00    +0.000 A 
ATOM     29  C   UNL     1       4.769   4.481  16.367  0.00  0.00    +0.000 A 
ENDBRANCH  21  24
ENDBRANCH  19  20
ENDBRANCH  17  19
ENDBRANCH  10  14
BRANCH   9  30
ATOM     30  C   UNL     1       0.681  11.773  21.139  0.00  0.00    +0.000 C 
ATOM     31  F   UNL     1       1.852  12.089  20.509  0.00  0.00    +0.000 F 
ATOM     32  F   UNL     1       0.470  12.813  21.990  0.00  0.00    +0.000 F 
ATOM     33  F   UNL     1       0.964  10.683  21.898  0.00  0.00    +0.000 F 
ENDBRANCH   9  30
BRANCH   1  34
ATOM     34  C   UNL     1      -3.950   9.977  16.670  0.00  0.00    +0.000 C 
BRANCH  34  36
ATOM     35  O   UNL     1      -4.159   9.915  14.252  0.00  0.00    +0.000 OA
ATOM     36  C   UNL     1      -3.721  10.484  15.243  0.00  0.00    +0.000 C 
BRANCH  36  37
ATOM     37  O   UNL     1      -2.956  11.594  15.146  0.00  0.00    +0.000 OA
ATOM     38  H   UNL     1      -2.478  11.649  14.297  0.00  0.00    +0.000 HD
ENDBRANCH  36  37
ENDBRANCH  34  36
ENDBRANCH   1  34
TORSDOF 8
ENDMDL
MODEL 4
REMARK VINA RESULT:      -8.0      6.941     10.304
REMARK  Name = 
REMARK  8 active torsions:
REMARK  status: ('A' for Active; 'I' for Inactive)
REMARK    1  A    between atoms: C_2  and  O_3
REMARK    2  A    between atoms: C_2  and  C_4
REMARK    3  A    between atoms: C_4  and  N_5
REMARK    4  A    between atoms: C_13  and  C_14
REMARK    5  A    between atoms: C_18  and  N_19
REMARK    6  A    between atoms: C_22  and  C_23
REMARK    7  A    between atoms: C_23  and  N_24
REMARK    8  A    between atoms: C_25  and  C_27
REMARK                            x       y       z     vdW  Elec       q    Type
REMARK                         _______ _______ _______ _____ _____    ______ ____
ROOT
ATOM      1  N   UNL     1      -4.291  11.239  17.926  0.00  0.00    +0.000 N 
ATOM      2  C   UNL     1      -5.502  11.946  18.034  0.00  0.00    +0.000 A 
ATOM      3  O   UNL     1      -6.508  11.650  17.399  0.00  0.00    +0.000 OA
ATOM      4  C   UNL     1      -5.553  13.122  19.028  0.00  0.00    +0.000 A 
ATOM      5  O   UNL     1      -6.539  13.842  19.118  0.00  0.00    +0.000 OA
ATOM      6  N   UNL     1      -4.463  13.298  19.840  0.00  0.00    +0.000 N 
ATOM      7  C   UNL     1      -3.307  12.529  19.752  0.00  0.00    +0.000 A 
ATOM      8  C   UNL     1      -2.299  12.728  20.697  0.00  0.00    +0.000 A 
ATOM      9  C   UNL     1      -1.140  11.921  20.719  0.00  0.00    +0.000 A 
ATOM     10  C   UNL     1      -0.984  10.966  19.690  0.00  0.00    +0.000 A 
ATOM     11  C   UNL     1      -1.962  10.864  18.674  0.00  0.00    +0.000 A 
ATOM     12  C   UNL     1      -3.179  11.558  18.758  0.00  0.00    +0.000 A 
ATOM     13  H   UNL     1      -4.546  14.046  20.520  0.00  0.00    +0.000 HD
ENDROOT
BRANCH  10  14
ATOM     14  N   UNL     1       0.077  10.010  19.653  0.00  0.00    +0.000 N 
ATOM     15  C   UNL     1       0.427   9.141  20.660  0.00  0.00    +0.000 A 
ATOM     16  C   UNL     1       1.495   8.371  20.250  0.00  0.00    +0.000 A 
ATOM     17  C   UNL     1       1.756   8.697  18.895  0.00  0.00    +0.000 A 
ATOM     18  C   UNL     1       0.835   9.669  18.547  0.00  0.00    +0.000 A 
BRANCH  17  19
ATOM     19  C   UNL     1       2.796   8.085  18.021  0.00  0.00    +0.000 C 
BRANCH  19  20
ATOM     20  N   UNL     1       2.753   6.658  18.217  0.00  0.00    +0.000 N 
ATOM     21  C   UNL     1       3.658   5.833  17.590  0.00  0.00    +0.000 C 
ATOM     22  O   UNL     1       4.515   6.229  16.810  0.00  0.00    +0.000 OA
ATOM     23  H   UNL     1       2.252   6.314  19.023  0.00  0.00    +0.000 HD
BRANCH  21  24
ATOM     24  C   UNL     1       3.580   4.393  17.961  0.00  0.00    +0.000 A 
ATOM     25  C   UNL     1       2.789   3.491  17.240  0.00  0.00    +0.000 A 
ATOM     26  C   UNL     1       2.703   2.157  17.647  0.00  0.00    +0.000 A 
ATOM     27  C   UNL     1       3.420   1.723  18.763  0.00  0.00    +0.000 A 
ATOM     28  C   UNL     1       4.237   2.611  19.464  0.00  0.00    +0.000 A 
ATOM     29  C   UNL     1       4.322   3.946  19.061  0.00  0.00    +0.000 A 
ENDBRANCH  21  24
ENDBRANCH  19  20
ENDBRANCH  17  19
ENDBRANCH  10  14
BRANCH   9  30
ATOM     30  C   UNL     1      -0.122  12.202  21.807  0.00  0.00    +0.000 C 
ATOM     31  F   UNL     1      -0.132  11.254  22.792  0.00  0.00    +0.000 F 
ATOM     32  F   UNL     1       1.163  12.205  21.361  0.00  0.00    +0.000 F 
ATOM     33  F   UNL     1      -0.329  13.383  22.443  0.00  0.00    +0.000 F 
ENDBRANCH   9  30
BRANCH   1  34
ATOM     34  C   UNL     1      -4.210  10.158  16.932  0.00  0.00    +0.000 C 
BRANCH  34  36
ATOM     35  O   UNL     1      -4.046   9.908  14.523  0.00  0.00    +0.000 OA
ATOM     36  C   UNL     1      -3.781  10.566  15.520  0.00  0.00    +0.000 C 
BRANCH  36  37
ATOM     37  O   UNL     1      -3.041  11.695  15.451  0.00  0.00    +0.000 OA
ATOM     38  H   UNL     1      -2.893  12.102  16.325  0.00  0.00    +0.000 HD
ENDBRANCH  36  37
ENDBRANCH  34  36
ENDBRANCH   1  34
TORSDOF 8
ENDMDL
MODEL 5
REMARK VINA RESULT:      -7.9      6.695     10.055
REMARK  Name = 
REMARK  8 active torsions:
REMARK  status: ('A' for Active; 'I' for Inactive)
REMARK    1  A    between atoms: C_2  and  O_3
REMARK    2  A    between atoms: C_2  and  C_4
REMARK    3  A    between atoms: C_4  and  N_5
REMARK    4  A    between atoms: C_13  and  C_14
REMARK    5  A    between atoms: C_18  and  N_19
REMARK    6  A    between atoms: C_22  and  C_23
REMARK    7  A    between atoms: C_23  and  N_24
REMARK    8  A    between atoms: C_25  and  C_27
REMARK                            x       y       z     vdW  Elec       q    Type
REMARK                         _______ _______ _______ _____ _____    ______ ____
ROOT
ATOM      1  N   UNL     1      -3.982  11.043  17.725  0.00  0.00    +0.000 N 
ATOM      2  C   UNL     1      -5.194  11.745  17.853  0.00  0.00    +0.000 A 
ATOM      3  O   UNL     1      -6.197  11.474  17.203  0.00  0.00    +0.000 OA
ATOM      4  C   UNL     1      -5.249  12.884  18.891  0.00  0.00    +0.000 A 
ATOM      5  O   UNL     1      -6.236  13.600  19.002  0.00  0.00    +0.000 OA
ATOM      6  N   UNL     1      -4.163  13.030  19.713  0.00  0.00    +0.000 N 
ATOM      7  C   UNL     1      -3.006  12.264  19.602  0.00  0.00    +0.000 A 
ATOM      8  C   UNL     1      -2.002  12.428  20.558  0.00  0.00    +0.000 A 
ATOM      9  C   UNL     1      -0.844  11.621  20.555  0.00  0.00    +0.000 A 
ATOM     10  C   UNL     1      -0.683  10.705  19.493  0.00  0.00    +0.000 A 
ATOM     11  C   UNL     1      -1.657  10.640  18.469  0.00  0.00    +0.000 A 
ATOM     12  C   UNL     1      -2.874  11.331  18.573  0.00  0.00    +0.000 A 
ATOM     13  H   UNL     1      -4.249  13.752  20.420  0.00  0.00    +0.000 HD
ENDROOT
BRANCH  10  14
ATOM     14  N   UNL     1       0.378   9.751  19.425  0.00  0.00    +0.000 N 
ATOM     15  C   UNL     1       0.743   8.865  20.412  0.00  0.00    +0.000 A 
ATOM     16  C   UNL     1       1.806   8.103  19.974  0.00  0.00    +0.000 A 
ATOM     17  C   UNL     1       2.048   8.453  18.622  0.00  0.00    +0.000 A 
ATOM     18  C   UNL     1       1.122   9.430  18.303  0.00  0.00    +0.000 A 
BRANCH  17  19
ATOM     19  C   UNL     1       3.076   7.857  17.724  0.00  0.00    +0.000 C 
BRANCH  19  20
ATOM     20  N   UNL     1       2.969   6.423  17.820  0.00  0.00    +0.000 N 
ATOM     21  C   UNL     1       4.050   5.659  18.197  0.00  0.00    +0.000 C 
ATOM     22  O   UNL     1       5.160   6.118  18.433  0.00  0.00    +0.000 OA
ATOM     23  H   UNL     1       2.043   6.030  17.888  0.00  0.00    +0.000 HD
BRANCH  21  24
ATOM     24  C   UNL     1       3.780   4.205  18.367  0.00  0.00    +0.000 A 
ATOM     25  C   UNL     1       4.447   3.443  19.335  0.00  0.00    +0.000 A 
ATOM     26  C   UNL     1       4.202   2.071  19.433  0.00  0.00    +0.000 A 
ATOM     27  C   UNL     1       3.281   1.466  18.578  0.00  0.00    +0.000 A 
ATOM     28  C   UNL     1       2.589   2.227  17.636  0.00  0.00    +0.000 A 
ATOM     29  C   UNL     1       2.833   3.599  17.533  0.00  0.00    +0.000 A 
ENDBRANCH  21  24
ENDBRANCH  19  20
ENDBRANCH  17  19
ENDBRANCH  10  14
BRANCH   9  30
ATOM     30  C   UNL     1       0.170  11.861  21.657  0.00  0.00    +0.000 C 
ATOM     31  F   UNL     1      -0.043  13.040  22.316  0.00  0.00    +0.000 F 
ATOM     32  F   UNL     1       0.140  10.920  22.638  0.00  0.00    +0.000 F 
ATOM     33  F   UNL     1       1.448  11.929  21.204  0.00  0.00    +0.000 F 
ENDBRANCH   9  30
BRANCH   1  34
ATOM     34  C   UNL     1      -3.897  10.000  16.692  0.00  0.00    +0.000 C 
BRANCH  34  36
ATOM     35  O   UNL     1      -3.524   9.748  14.307  0.00  0.00    +0.000 OA
ATOM     36  C   UNL     1      -3.449  10.457  15.301  0.00  0.00    +0.000 C 
BRANCH  36  37
ATOM     37  O   UNL     1      -2.918  11.699  15.251  0.00  0.00    +0.000 OA
ATOM     38  H   UNL     1      -3.219  12.267  15.985  0.00  0.00    +0.000 HD
ENDBRANCH  36  37
ENDBRANCH  34  36
ENDBRANCH   1  34
TORSDOF 8
ENDMDL
MODEL 6
REMARK VINA RESULT:      -7.9      7.177     10.575
REMARK  Name = 
REMARK  8 active torsions:
REMARK  status: ('A' for Active; 'I' for Inactive)
REMARK    1  A    between atoms: C_2  and  O_3
REMARK    2  A    between atoms: C_2  and  C_4
REMARK    3  A    between atoms: C_4  and  N_5
REMARK    4  A    between atoms: C_13  and  C_14
REMARK    5  A    between atoms: C_18  and  N_19
REMARK    6  A    between atoms: C_22  and  C_23
REMARK    7  A    between atoms: C_23  and  N_24
REMARK    8  A    between atoms: C_25  and  C_27
REMARK                            x       y       z     vdW  Elec       q    Type
REMARK                         _______ _______ _______ _____ _____    ______ ____
ROOT
ATOM      1  N   UNL     1      -4.621  11.514  18.056  0.00  0.00    +0.000 N 
ATOM      2  C   UNL     1      -5.839  12.210  18.156  0.00  0.00    +0.000 A 
ATOM      3  O   UNL     1      -6.844  11.893  17.532  0.00  0.00    +0.000 OA
ATOM      4  C   UNL     1      -5.898  13.404  19.130  0.00  0.00    +0.000 A 
ATOM      5  O   UNL     1      -6.892  14.115  19.211  0.00  0.00    +0.000 OA
ATOM      6  N   UNL     1      -4.807  13.607  19.933  0.00  0.00    +0.000 N 
ATOM      7  C   UNL     1      -3.643  12.848  19.854  0.00  0.00    +0.000 A 
ATOM      8  C   UNL     1      -2.633  13.075  20.791  0.00  0.00    +0.000 A 
ATOM      9  C   UNL     1      -1.466  12.281  20.821  0.00  0.00    +0.000 A 
ATOM     10  C   UNL     1      -1.303  11.310  19.810  0.00  0.00    +0.000 A 
ATOM     11  C   UNL     1      -2.285  11.179  18.800  0.00  0.00    +0.000 A 
ATOM     12  C   UNL     1      -3.508  11.861  18.877  0.00  0.00    +0.000 A 
ATOM     13  H   UNL     1      -4.895  14.365  20.600  0.00  0.00    +0.000 HD
ENDROOT
BRANCH  10  14
ATOM     14  N   UNL     1      -0.232  10.365  19.785  0.00  0.00    +0.000 N 
ATOM     15  C   UNL     1       0.100   9.482  20.786  0.00  0.00    +0.000 A 
ATOM     16  C   UNL     1       1.186   8.729  20.392  0.00  0.00    +0.000 A 
ATOM     17  C   UNL     1       1.480   9.081  19.050  0.00  0.00    +0.000 A 
ATOM     18  C   UNL     1       0.558  10.049  18.694  0.00  0.00    +0.000 A 
BRANCH  17  19
ATOM     19  C   UNL     1       2.548   8.493  18.194  0.00  0.00    +0.000 C 
BRANCH  19  20
ATOM     20  N   UNL     1       2.349   7.067  18.157  0.00  0.00    +0.000 N 
ATOM     21  C   UNL     1       3.328   6.231  17.671  0.00  0.00    +0.000 C 
ATOM     22  O   UNL     1       4.393   6.623  17.210  0.00  0.00    +0.000 OA
ATOM     23  H   UNL     1       1.623   6.683  18.743  0.00  0.00    +0.000 HD
BRANCH  21  24
ATOM     24  C   UNL     1       3.047   4.773  17.790  0.00  0.00    +0.000 A 
ATOM     25  C   UNL     1       1.754   4.293  18.030  0.00  0.00    +0.000 A 
ATOM     26  C   UNL     1       1.536   2.922  18.183  0.00  0.00    +0.000 A 
ATOM     27  C   UNL     1       2.606   2.032  18.080  0.00  0.00    +0.000 A 
ATOM     28  C   UNL     1       3.890   2.504  17.806  0.00  0.00    +0.000 A 
ATOM     29  C   UNL     1       4.111   3.875  17.656  0.00  0.00    +0.000 A 
ENDBRANCH  21  24
ENDBRANCH  19  20
ENDBRANCH  17  19
ENDBRANCH  10  14
BRANCH   9  30
ATOM     30  C   UNL     1      -0.445  12.593  21.899  0.00  0.00    +0.000 C 
ATOM     31  F   UNL     1      -0.680  13.792  22.512  0.00  0.00    +0.000 F 
ATOM     32  F   UNL     1      -0.439  11.693  22.919  0.00  0.00    +0.000 F 
ATOM     33  F   UNL     1       0.826  12.674  21.427  0.00  0.00    +0.000 F 
ENDBRANCH   9  30
BRANCH   1  34
ATOM     34  C   UNL     1      -4.533  10.417  17.082  0.00  0.00    +0.000 C 
BRANCH  34  36
ATOM     35  O   UNL     1      -2.710   9.736  15.630  0.00  0.00    +0.000 OA
ATOM     36  C   UNL     1      -3.520  10.596  15.947  0.00  0.00    +0.000 C 
BRANCH  36  37
ATOM     37  O   UNL     1      -3.552  11.802  15.337  0.00  0.00    +0.000 OA
ATOM     38  H   UNL     1      -2.784  12.360  15.565  0.00  0.00    +0.000 HD
ENDBRANCH  36  37
ENDBRANCH  34  36
ENDBRANCH   1  34
TORSDOF 8
ENDMDL
MODEL 7
REMARK VINA RESULT:      -7.9      6.381      9.904
REMARK  Name = 
REMARK  8 active torsions:
REMARK  status: ('A' for Active; 'I' for Inactive)
REMARK    1  A    between atoms: C_2  and  O_3
REMARK    2  A    between atoms: C_2  and  C_4
REMARK    3  A    between atoms: C_4  and  N_5
REMARK    4  A    between atoms: C_13  and  C_14
REMARK    5  A    between atoms: C_18  and  N_19
REMARK    6  A    between atoms: C_22  and  C_23
REMARK    7  A    between atoms: C_23  and  N_24
REMARK    8  A    between atoms: C_25  and  C_27
REMARK                            x       y       z     vdW  Elec       q    Type
REMARK                         _______ _______ _______ _____ _____    ______ ____
ROOT
ATOM      1  N   UNL     1       1.803  14.800  19.727  0.00  0.00    +0.000 N 
ATOM      2  C   UNL     1       1.341  16.128  19.733  0.00  0.00    +0.000 A 
ATOM      3  O   UNL     1       2.086  17.096  19.839  0.00  0.00    +0.000 OA
ATOM      4  C   UNL     1      -0.174  16.355  19.563  0.00  0.00    +0.000 A 
ATOM      5  O   UNL     1      -0.667  17.473  19.646  0.00  0.00    +0.000 OA
ATOM      6  N   UNL     1      -0.939  15.257  19.271  0.00  0.00    +0.000 N 
ATOM      7  C   UNL     1      -0.431  13.963  19.201  0.00  0.00    +0.000 A 
ATOM      8  C   UNL     1      -1.281  12.932  18.794  0.00  0.00    +0.000 A 
ATOM      9  C   UNL     1      -0.806  11.614  18.617  0.00  0.00    +0.000 A 
ATOM     10  C   UNL     1       0.536  11.346  18.961  0.00  0.00    +0.000 A 
ATOM     11  C   UNL     1       1.346  12.381  19.484  0.00  0.00    +0.000 A 
ATOM     12  C   UNL     1       0.909  13.714  19.502  0.00  0.00    +0.000 A 
ATOM     13  H   UNL     1      -1.923  15.443  19.112  0.00  0.00    +0.000 HD
ENDROOT
BRANCH  10  14
ATOM     14  N   UNL     1       1.177  10.091  18.726  0.00  0.00    +0.000 N 
ATOM     15  C   UNL     1       1.857   9.723  17.588  0.00  0.00    +0.000 A 
ATOM     16  C   UNL     1       2.341   8.440  17.738  0.00  0.00    +0.000 A 
ATOM     17  C   UNL     1       2.043   8.028  19.061  0.00  0.00    +0.000 A 
ATOM     18  C   UNL     1       1.374   9.084  19.654  0.00  0.00    +0.000 A 
BRANCH  17  19
ATOM     19  C   UNL     1       2.411   6.727  19.687  0.00  0.00    +0.000 C 
BRANCH  19  20
ATOM     20  N   UNL     1       3.618   6.259  19.056  0.00  0.00    +0.000 N 
ATOM     21  C   UNL     1       3.592   5.192  18.188  0.00  0.00    +0.000 C 
ATOM     22  O   UNL     1       2.582   4.553  17.924  0.00  0.00    +0.000 OA
ATOM     23  H   UNL     1       4.407   6.889  19.037  0.00  0.00    +0.000 HD
BRANCH  21  24
ATOM     24  C   UNL     1       4.884   4.878  17.517  0.00  0.00    +0.000 A 
ATOM     25  C   UNL     1       4.939   4.509  16.168  0.00  0.00    +0.000 A 
ATOM     26  C   UNL     1       6.164   4.175  15.585  0.00  0.00    +0.000 A 
ATOM     27  C   UNL     1       7.333   4.226  16.346  0.00  0.00    +0.000 A 
ATOM     28  C   UNL     1       7.287   4.627  17.681  0.00  0.00    +0.000 A 
ATOM     29  C   UNL     1       6.063   4.959  18.267  0.00  0.00    +0.000 A 
ENDBRANCH  21  24
ENDBRANCH  19  20
ENDBRANCH  17  19
ENDBRANCH  10  14
BRANCH   9  30
ATOM     30  C   UNL     1      -1.807  10.577  18.143  0.00  0.00    +0.000 C 
ATOM     31  F   UNL     1      -1.494  10.073  16.911  0.00  0.00    +0.000 F 
ATOM     32  F   UNL     1      -1.875   9.481  18.944  0.00  0.00    +0.000 F 
ATOM     33  F   UNL     1      -3.068  11.066  18.021  0.00  0.00    +0.000 F 
ENDBRANCH   9  30
BRANCH   1  34
ATOM     34  C   UNL     1       3.236  14.569  19.955  0.00  0.00    +0.000 C 
BRANCH  34  36
ATOM     35  O   UNL     1       2.901  14.479  22.358  0.00  0.00    +0.000 OA
ATOM     36  C   UNL     1       3.682  14.459  21.416  0.00  0.00    +0.000 C 
BRANCH  36  37
ATOM     37  O   UNL     1       5.019  14.379  21.602  0.00  0.00    +0.000 OA
ATOM     38  H   UNL     1       5.256  14.059  22.493  0.00  0.00    +0.000 HD
ENDBRANCH  36  37
ENDBRANCH  34  36
ENDBRANCH   1  34
TORSDOF 8
ENDMDL
MODEL 8
REMARK VINA RESULT:      -7.9      6.571     10.640
REMARK  Name = 
REMARK  8 active torsions:
REMARK  status: ('A' for Active; 'I' for Inactive)
REMARK    1  A    between atoms: C_2  and  O_3
REMARK    2  A    between atoms: C_2  and  C_4
REMARK    3  A    between atoms: C_4  and  N_5
REMARK    4  A    between atoms: C_13  and  C_14
REMARK    5  A    between atoms: C_18  and  N_19
REMARK    6  A    between atoms: C_22  and  C_23
REMARK    7  A    between atoms: C_23  and  N_24
REMARK    8  A    between atoms: C_25  and  C_27
REMARK                            x       y       z     vdW  Elec       q    Type
REMARK                         _______ _______ _______ _____ _____    ______ ____
ROOT
ATOM      1  N   UNL     1       2.071  15.281  19.418  0.00  0.00    +0.000 N 
ATOM      2  C   UNL     1       1.689  16.618  19.201  0.00  0.00    +0.000 A 
ATOM      3  O   UNL     1       2.482  17.552  19.221  0.00  0.00    +0.000 OA
ATOM      4  C   UNL     1       0.204  16.891  18.891  0.00  0.00    +0.000 A 
ATOM      5  O   UNL     1      -0.226  18.032  18.778  0.00  0.00    +0.000 OA
ATOM      6  N   UNL     1      -0.604  15.801  18.704  0.00  0.00    +0.000 N 
ATOM      7  C   UNL     1      -0.170  14.487  18.857  0.00  0.00    +0.000 A 
ATOM      8  C   UNL     1      -1.051  13.452  18.541  0.00  0.00    +0.000 A 
ATOM      9  C   UNL     1      -0.645  12.100  18.588  0.00  0.00    +0.000 A 
ATOM     10  C   UNL     1       0.654  11.819  19.063  0.00  0.00    +0.000 A 
ATOM     11  C   UNL     1       1.489  12.878  19.490  0.00  0.00    +0.000 A 
ATOM     12  C   UNL     1       1.131  14.219  19.286  0.00  0.00    +0.000 A 
ATOM     13  H   UNL     1      -1.563  16.011  18.450  0.00  0.00    +0.000 HD
ENDROOT
BRANCH  10  14
ATOM     14  N   UNL     1       1.234  10.513  19.056  0.00  0.00    +0.000 N 
ATOM     15  C   UNL     1       1.034   9.527  19.994  0.00  0.00    +0.000 A 
ATOM     16  C   UNL     1       1.757   8.407  19.642  0.00  0.00    +0.000 A 
ATOM     17  C   UNL     1       2.349   8.664  18.380  0.00  0.00    +0.000 A 
ATOM     18  C   UNL     1       1.965   9.946  18.027  0.00  0.00    +0.000 A 
BRANCH  17  19
ATOM     19  C   UNL     1       3.186   7.723  17.586  0.00  0.00    +0.000 C 
BRANCH  19  20
ATOM     20  N   UNL     1       2.702   6.388  17.829  0.00  0.00    +0.000 N 
ATOM     21  C   UNL     1       3.546   5.305  17.744  0.00  0.00    +0.000 C 
ATOM     22  O   UNL     1       4.726   5.383  17.425  0.00  0.00    +0.000 OA
ATOM     23  H   UNL     1       1.832   6.293  18.332  0.00  0.00    +0.000 HD
BRANCH  21  24
ATOM     24  C   UNL     1       2.952   3.994  18.127  0.00  0.00    +0.000 A 
ATOM     25  C   UNL     1       3.709   2.817  18.126  0.00  0.00    +0.000 A 
ATOM     26  C   UNL     1       3.105   1.598  18.446  0.00  0.00    +0.000 A 
ATOM     27  C   UNL     1       1.751   1.560  18.782  0.00  0.00    +0.000 A 
ATOM     28  C   UNL     1       1.001   2.736  18.818  0.00  0.00    +0.000 A 
ATOM     29  C   UNL     1       1.602   3.956  18.496  0.00  0.00    +0.000 A 
ENDBRANCH  21  24
ENDBRANCH  19  20
ENDBRANCH  17  19
ENDBRANCH  10  14
BRANCH   9  30
ATOM     30  C   UNL     1      -1.673  11.055  18.195  0.00  0.00    +0.000 C 
ATOM     31  F   UNL     1      -1.926  10.166  19.202  0.00  0.00    +0.000 F 
ATOM     32  F   UNL     1      -2.892  11.578  17.896  0.00  0.00    +0.000 F 
ATOM     33  F   UNL     1      -1.289  10.298  17.135  0.00  0.00    +0.000 F 
ENDBRANCH   9  30
BRANCH   1  34
ATOM     34  C   UNL     1       3.471  15.016  19.780  0.00  0.00    +0.000 C 
BRANCH  34  36
ATOM     35  O   UNL     1       5.666  15.076  18.744  0.00  0.00    +0.000 OA
ATOM     36  C   UNL     1       4.462  14.899  18.618  0.00  0.00    +0.000 C 
BRANCH  36  37
ATOM     37  O   UNL     1       3.905  14.623  17.417  0.00  0.00    +0.000 OA
ATOM     38  H   UNL     1       4.066  15.325  16.758  0.00  0.00    +0.000 HD
ENDBRANCH  36  37
ENDBRANCH  34  36
ENDBRANCH   1  34
TORSDOF 8
ENDMDL
MODEL 9
REMARK VINA RESULT:      -7.8      5.991      9.431
REMARK  Name = 
REMARK  8 active torsions:
REMARK  status: ('A' for Active; 'I' for Inactive)
REMARK    1  A    between atoms: C_2  and  O_3
REMARK    2  A    between atoms: C_2  and  C_4
REMARK    3  A    between atoms: C_4  and  N_5
REMARK    4  A    between atoms: C_13  and  C_14
REMARK    5  A    between atoms: C_18  and  N_19
REMARK    6  A    between atoms: C_22  and  C_23
REMARK    7  A    between atoms: C_23  and  N_24
REMARK    8  A    between atoms: C_25  and  C_27
REMARK                            x       y       z     vdW  Elec       q    Type
REMARK                         _______ _______ _______ _____ _____    ______ ____
ROOT
ATOM      1  N   UNL     1       2.901   4.769  20.056  0.00  0.00    +0.000 N 
ATOM      2  C   UNL     1       3.535   3.914  19.136  0.00  0.00    +0.000 A 
ATOM      3  O   UNL     1       3.693   2.716  19.337  0.00  0.00    +0.000 OA
ATOM      4  C   UNL     1       4.012   4.529  17.806  0.00  0.00    +0.000 A 
ATOM      5  O   UNL     1       4.649   3.874  16.991  0.00  0.00    +0.000 OA
ATOM      6  N   UNL     1       3.653   5.827  17.556  0.00  0.00    +0.000 N 
ATOM      7  C   UNL     1       2.960   6.622  18.465  0.00  0.00    +0.000 A 
ATOM      8  C   UNL     1       2.556   7.897  18.065  0.00  0.00    +0.000 A 
ATOM      9  C   UNL     1       1.774   8.718  18.906  0.00  0.00    +0.000 A 
ATOM     10  C   UNL     1       1.495   8.251  20.208  0.00  0.00    +0.000 A 
ATOM     11  C   UNL     1       2.016   7.006  20.633  0.00  0.00    +0.000 A 
ATOM     12  C   UNL     1       2.651   6.135  19.736  0.00  0.00    +0.000 A 
ATOM     13  H   UNL     1       3.935   6.188  16.651  0.00  0.00    +0.000 HD
ENDROOT
BRANCH  10  14
ATOM     14  N   UNL     1       0.624   8.923  21.120  0.00  0.00    +0.000 N 
ATOM     15  C   UNL     1      -0.150   8.334  22.092  0.00  0.00    +0.000 A 
ATOM     16  C   UNL     1      -0.848   9.309  22.775  0.00  0.00    +0.000 A 
ATOM     17  C   UNL     1      -0.414  10.564  22.281  0.00  0.00    +0.000 A 
ATOM     18  C   UNL     1       0.526  10.291  21.303  0.00  0.00    +0.000 A 
BRANCH  17  19
ATOM     19  C   UNL     1      -0.862  11.904  22.752  0.00  0.00    +0.000 C 
BRANCH  19  20
ATOM     20  N   UNL     1      -2.302  11.898  22.797  0.00  0.00    +0.000 N 
ATOM     21  C   UNL     1      -2.999  13.006  23.219  0.00  0.00    +0.000 C 
ATOM     22  O   UNL     1      -2.468  14.036  23.615  0.00  0.00    +0.000 OA
ATOM     23  H   UNL     1      -2.781  11.194  22.256  0.00  0.00    +0.000 HD
BRANCH  21  24
ATOM     24  C   UNL     1      -4.482  12.912  23.113  0.00  0.00    +0.000 A 
ATOM     25  C   UNL     1      -5.296  12.842  24.250  0.00  0.00    +0.000 A 
ATOM     26  C   UNL     1      -6.679  12.706  24.110  0.00  0.00    +0.000 A 
ATOM     27  C   UNL     1      -7.248  12.658  22.837  0.00  0.00    +0.000 A 
ATOM     28  C   UNL     1      -6.444  12.764  21.703  0.00  0.00    +0.000 A 
ATOM     29  C   UNL     1      -5.060  12.896  21.839  0.00  0.00    +0.000 A 
ENDBRANCH  21  24
ENDBRANCH  19  20
ENDBRANCH  17  19
ENDBRANCH  10  14
BRANCH   9  30
ATOM     30  C   UNL     1       1.364  10.074  18.362  0.00  0.00    +0.000 C 
ATOM     31  F   UNL     1       1.700  11.099  19.201  0.00  0.00    +0.000 F 
ATOM     32  F   UNL     1       1.968  10.393  17.186  0.00  0.00    +0.000 F 
ATOM     33  F   UNL     1       0.024  10.191  18.170  0.00  0.00    +0.000 F 
ENDBRANCH   9  30
BRANCH   1  34
ATOM     34  C   UNL     1       2.502   4.209  21.355  0.00  0.00    +0.000 C 
BRANCH  34  36
ATOM     35  O   UNL     1       1.257   2.279  22.141  0.00  0.00    +0.000 OA
ATOM     36  C   UNL     1       1.358   3.192  21.333  0.00  0.00    +0.000 C 
BRANCH  36  37
ATOM     37  O   UNL     1       0.475   3.346  20.320  0.00  0.00    +0.000 OA
ATOM     38  H   UNL     1       0.172   4.269  20.223  0.00  0.00    +0.000 HD
ENDBRANCH  36  37
ENDBRANCH  34  36
ENDBRANCH   1  34
TORSDOF 8
ENDMDL
