MODEL 1
REMARK VINA RESULT:      -7.5      0.000      0.000
REMARK  Name = 
REMARK  6 active torsions:
REMARK  status: ('A' for Active; 'I' for Inactive)
REMARK    1  A    between atoms: C_1  and  C_2
REMARK    2  A    between atoms: C_2  and  C_10
REMARK    3  A    between atoms: N_3  and  N_4
REMARK    4  A    between atoms: C_5  and  C_7
REMARK    5  A    between atoms: C_13  and  O_14
REMARK    6  A    between atoms: O_14  and  C_15
REMARK                            x       y       z     vdW  Elec       q    Type
REMARK                         _______ _______ _______ _____ _____    ______ ____
ROOT
ATOM      1  C   UNL     1       4.837   6.747  16.175  0.00  0.00    +0.000 C 
ATOM      2  C   UNL     1       5.311   5.362  16.563  0.00  0.00    +0.000 C 
ATOM      3  N   UNL     1       6.373   4.775  16.105  0.00  0.00    +0.000 NA
ENDROOT
BRANCH   2   4
ATOM      4  C   UNL     1       4.489   4.605  17.574  0.00  0.00    +0.000 A 
ATOM      5  C   UNL     1       5.083   4.009  18.693  0.00  0.00    +0.000 A 
ATOM      6  C   UNL     1       4.308   3.287  19.600  0.00  0.00    +0.000 A 
ATOM      7  C   UNL     1       2.930   3.163  19.426  0.00  0.00    +0.000 A 
ATOM      8  C   UNL     1       2.325   3.745  18.313  0.00  0.00    +0.000 A 
ATOM      9  C   UNL     1       3.101   4.470  17.396  0.00  0.00    +0.000 A 
BRANCH   7  10
ATOM     10  O   UNL     1       2.302   2.415  20.380  0.00  0.00    +0.000 OA
BRANCH  10  11
ATOM     11  C   UNL     1       1.326   3.091  21.153  0.00  0.00    +0.000 C 
ATOM     12  F   UNL     1       1.027   2.335  22.236  0.00  0.00    +0.000 F 
ATOM     13  F   UNL     1       1.904   4.229  21.616  0.00  0.00    +0.000 F 
ENDBRANCH  10  11
ENDBRANCH   7  10
ENDBRANCH   2   4
BRANCH   3  14
ATOM     14  N   UNL     1       7.184   5.373  15.196  0.00  0.00    +0.000 N 
ATOM     15  C   UNL     1       7.246   4.925  13.889  0.00  0.00    +0.000 C 
ATOM     16  O   UNL     1       7.951   5.474  13.048  0.00  0.00    +0.000 OA
ATOM     17  H   UNL     1       7.751   6.176  15.418  0.00  0.00    +0.000 HD
BRANCH  15  18
ATOM     18  C   UNL     1       6.385   3.753  13.549  0.00  0.00    +0.000 C 
ATOM     19  C   UNL     1       5.094   3.976  12.799  0.00  0.00    +0.000 C 
ATOM     20  C   UNL     1       6.235   3.265  12.130  0.00  0.00    +0.000 C 
ENDBRANCH  15  18
ENDBRANCH   3  14
TORSDOF 5
ENDMDL
MODEL 2
REMARK VINA RESULT:      -7.3      0.543      1.301
REMARK  Name = 
REMARK  6 active torsions:
REMARK  status: ('A' for Active; 'I' for Inactive)
REMARK    1  A    between atoms: C_1  and  C_2
REMARK    2  A    between atoms: C_2  and  C_10
REMARK    3  A    between atoms: N_3  and  N_4
REMARK    4  A    between atoms: C_5  and  C_7
REMARK    5  A    between atoms: C_13  and  O_14
REMARK    6  A    between atoms: O_14  and  C_15
REMARK                            x       y       z     vdW  Elec       q    Type
REMARK                         _______ _______ _______ _____ _____    ______ ____
ROOT
ATOM      1  C   UNL     1       4.828   6.643  16.159  0.00  0.00    +0.000 C 
ATOM      2  C   UNL     1       5.334   5.267  16.539  0.00  0.00    +0.000 C 
ATOM      3  N   UNL     1       6.419   4.715  16.091  0.00  0.00    +0.000 NA
ENDROOT
BRANCH   2   4
ATOM      4  C   UNL     1       4.519   4.476  17.529  0.00  0.00    +0.000 A 
ATOM      5  C   UNL     1       3.135   4.329  17.378  0.00  0.00    +0.000 A 
ATOM      6  C   UNL     1       2.396   3.618  18.323  0.00  0.00    +0.000 A 
ATOM      7  C   UNL     1       3.018   3.024  19.420  0.00  0.00    +0.000 A 
ATOM      8  C   UNL     1       4.395   3.167  19.588  0.00  0.00    +0.000 A 
ATOM      9  C   UNL     1       5.142   3.884  18.641  0.00  0.00    +0.000 A 
BRANCH   7  10
ATOM     10  O   UNL     1       2.170   2.376  20.272  0.00  0.00    +0.000 OA
BRANCH  10  11
ATOM     11  C   UNL     1       1.529   3.185  21.241  0.00  0.00    +0.000 C 
ATOM     12  F   UNL     1       2.391   4.150  21.644  0.00  0.00    +0.000 F 
ATOM     13  F   UNL     1       0.500   3.812  20.618  0.00  0.00    +0.000 F 
ENDBRANCH  10  11
ENDBRANCH   7  10
ENDBRANCH   2   4
BRANCH   3  14
ATOM     14  N   UNL     1       7.227   5.345  15.200  0.00  0.00    +0.000 N 
ATOM     15  C   UNL     1       7.300   4.931  13.884  0.00  0.00    +0.000 C 
ATOM     16  O   UNL     1       8.002   5.510  13.060  0.00  0.00    +0.000 OA
ATOM     17  H   UNL     1       7.782   6.150  15.446  0.00  0.00    +0.000 HD
BRANCH  15  18
ATOM     18  C   UNL     1       6.455   3.757  13.510  0.00  0.00    +0.000 C 
ATOM     19  C   UNL     1       5.149   3.985  12.788  0.00  0.00    +0.000 C 
ATOM     20  C   UNL     1       6.293   3.322  12.076  0.00  0.00    +0.000 C 
ENDBRANCH  15  18
ENDBRANCH   3  14
TORSDOF 5
ENDMDL
MODEL 3
REMARK VINA RESULT:      -7.2      0.995      1.066
REMARK  Name = 
REMARK  6 active torsions:
REMARK  status: ('A' for Active; 'I' for Inactive)
REMARK    1  A    between atoms: C_1  and  C_2
REMARK    2  A    between atoms: C_2  and  C_10
REMARK    3  A    between atoms: N_3  and  N_4
REMARK    4  A    between atoms: C_5  and  C_7
REMARK    5  A    between atoms: C_13  and  O_14
REMARK    6  A    between atoms: O_14  and  C_15
REMARK                            x       y       z     vdW  Elec       q    Type
REMARK                         _______ _______ _______ _____ _____    ______ ____
ROOT
ATOM      1  C   UNL     1       4.732   7.068  16.107  0.00  0.00    +0.000 C 
ATOM      2  C   UNL     1       5.065   5.692  16.645  0.00  0.00    +0.000 C 
ATOM      3  N   UNL     1       6.145   5.022  16.384  0.00  0.00    +0.000 NA
ENDROOT
BRANCH   2   4
ATOM      4  C   UNL     1       4.065   5.048  17.571  0.00  0.00    +0.000 A 
ATOM      5  C   UNL     1       3.620   5.701  18.725  0.00  0.00    +0.000 A 
ATOM      6  C   UNL     1       2.717   5.074  19.585  0.00  0.00    +0.000 A 
ATOM      7  C   UNL     1       2.225   3.800  19.303  0.00  0.00    +0.000 A 
ATOM      8  C   UNL     1       2.665   3.134  18.160  0.00  0.00    +0.000 A 
ATOM      9  C   UNL     1       3.575   3.760  17.293  0.00  0.00    +0.000 A 
BRANCH   7  10
ATOM     10  O   UNL     1       1.365   3.304  20.238  0.00  0.00    +0.000 OA
BRANCH  10  11
ATOM     11  C   UNL     1       1.891   3.151  21.544  0.00  0.00    +0.000 C 
ATOM     12  F   UNL     1       1.019   2.424  22.284  0.00  0.00    +0.000 F 
ATOM     13  F   UNL     1       3.024   2.412  21.433  0.00  0.00    +0.000 F 
ENDBRANCH  10  11
ENDBRANCH   7  10
ENDBRANCH   2   4
BRANCH   3  14
ATOM     14  N   UNL     1       7.110   5.515  15.566  0.00  0.00    +0.000 N 
ATOM     15  C   UNL     1       7.310   4.996  14.301  0.00  0.00    +0.000 C 
ATOM     16  O   UNL     1       8.158   5.450  13.539  0.00  0.00    +0.000 OA
ATOM     17  H   UNL     1       7.700   6.289  15.828  0.00  0.00    +0.000 HD
BRANCH  15  18
ATOM     18  C   UNL     1       6.416   3.868  13.900  0.00  0.00    +0.000 C 
ATOM     19  C   UNL     1       5.160   4.162  13.116  0.00  0.00    +0.000 C 
ATOM     20  C   UNL     1       6.295   3.426  12.463  0.00  0.00    +0.000 C 
ENDBRANCH  15  18
ENDBRANCH   3  14
TORSDOF 5
ENDMDL
MODEL 4
REMARK VINA RESULT:      -7.2      1.060      1.638
REMARK  Name = 
REMARK  6 active torsions:
REMARK  status: ('A' for Active; 'I' for Inactive)
REMARK    1  A    between atoms: C_1  and  C_2
REMARK    2  A    between atoms: C_2  and  C_10
REMARK    3  A    between atoms: N_3  and  N_4
REMARK    4  A    between atoms: C_5  and  C_7
REMARK    5  A    between atoms: C_13  and  O_14
REMARK    6  A    between atoms: O_14  and  C_15
REMARK                            x       y       z     vdW  Elec       q    Type
REMARK                         _______ _______ _______ _____ _____    ______ ____
ROOT
ATOM      1  C   UNL     1       5.504   6.190  16.097  0.00  0.00    +0.000 C 
ATOM      2  C   UNL     1       5.406   4.679  16.079  0.00  0.00    +0.000 C 
ATOM      3  N   UNL     1       5.989   3.897  15.224  0.00  0.00    +0.000 NA
ENDROOT
BRANCH   2   4
ATOM      4  C   UNL     1       4.571   4.024  17.150  0.00  0.00    +0.000 A 
ATOM      5  C   UNL     1       3.243   3.656  16.912  0.00  0.00    +0.000 A 
ATOM      6  C   UNL     1       2.479   3.079  17.927  0.00  0.00    +0.000 A 
ATOM      7  C   UNL     1       3.027   2.839  19.187  0.00  0.00    +0.000 A 
ATOM      8  C   UNL     1       4.347   3.206  19.441  0.00  0.00    +0.000 A 
ATOM      9  C   UNL     1       5.118   3.789  18.424  0.00  0.00    +0.000 A 
BRANCH   7  10
ATOM     10  O   UNL     1       2.161   2.287  20.086  0.00  0.00    +0.000 OA
BRANCH  10  11
ATOM     11  C   UNL     1       1.490   3.198  20.939  0.00  0.00    +0.000 C 
ATOM     12  F   UNL     1       0.297   3.517  20.383  0.00  0.00    +0.000 F 
ATOM     13  F   UNL     1       1.222   2.537  22.094  0.00  0.00    +0.000 F 
ENDBRANCH  10  11
ENDBRANCH   7  10
ENDBRANCH   2   4
BRANCH   3  14
ATOM     14  N   UNL     1       6.767   4.385  14.225  0.00  0.00    +0.000 N 
ATOM     15  C   UNL     1       6.571   3.999  12.912  0.00  0.00    +0.000 C 
ATOM     16  O   UNL     1       7.246   4.455  11.994  0.00  0.00    +0.000 OA
ATOM     17  H   UNL     1       7.496   5.063  14.386  0.00  0.00    +0.000 HD
BRANCH  15  18
ATOM     18  C   UNL     1       5.472   3.018  12.667  0.00  0.00    +0.000 C 
ATOM     19  C   UNL     1       4.462   3.294  11.579  0.00  0.00    +0.000 C 
ATOM     20  C   UNL     1       5.436   2.161  11.428  0.00  0.00    +0.000 C 
ENDBRANCH  15  18
ENDBRANCH   3  14
TORSDOF 5
ENDMDL
MODEL 5
REMARK VINA RESULT:      -7.2      1.045      1.523
REMARK  Name = 
REMARK  6 active torsions:
REMARK  status: ('A' for Active; 'I' for Inactive)
REMARK    1  A    between atoms: C_1  and  C_2
REMARK    2  A    between atoms: C_2  and  C_10
REMARK    3  A    between atoms: N_3  and  N_4
REMARK    4  A    between atoms: C_5  and  C_7
REMARK    5  A    between atoms: C_13  and  O_14
REMARK    6  A    between atoms: O_14  and  C_15
REMARK                            x       y       z     vdW  Elec       q    Type
REMARK                         _______ _______ _______ _____ _____    ______ ____
ROOT
ATOM      1  C   UNL     1       5.205   6.464  16.066  0.00  0.00    +0.000 C 
ATOM      2  C   UNL     1       5.056   4.958  16.108  0.00  0.00    +0.000 C 
ATOM      3  N   UNL     1       5.709   4.116  15.367  0.00  0.00    +0.000 NA
ENDROOT
BRANCH   2   4
ATOM      4  C   UNL     1       4.079   4.384  17.102  0.00  0.00    +0.000 A 
ATOM      5  C   UNL     1       3.093   5.181  17.693  0.00  0.00    +0.000 A 
ATOM      6  C   UNL     1       2.218   4.635  18.633  0.00  0.00    +0.000 A 
ATOM      7  C   UNL     1       2.293   3.288  18.985  0.00  0.00    +0.000 A 
ATOM      8  C   UNL     1       3.275   2.483  18.409  0.00  0.00    +0.000 A 
ATOM      9  C   UNL     1       4.159   3.028  17.465  0.00  0.00    +0.000 A 
BRANCH   7  10
ATOM     10  O   UNL     1       1.388   2.896  19.928  0.00  0.00    +0.000 OA
BRANCH  10  11
ATOM     11  C   UNL     1       1.904   2.680  21.229  0.00  0.00    +0.000 C 
ATOM     12  F   UNL     1       2.532   3.807  21.642  0.00  0.00    +0.000 F 
ATOM     13  F   UNL     1       0.840   2.499  22.053  0.00  0.00    +0.000 F 
ENDBRANCH  10  11
ENDBRANCH   7  10
ENDBRANCH   2   4
BRANCH   3  14
ATOM     14  N   UNL     1       6.616   4.530  14.446  0.00  0.00    +0.000 N 
ATOM     15  C   UNL     1       6.548   4.104  13.133  0.00  0.00    +0.000 C 
ATOM     16  O   UNL     1       7.342   4.493  12.282  0.00  0.00    +0.000 OA
ATOM     17  H   UNL     1       7.355   5.180  14.665  0.00  0.00    +0.000 HD
BRANCH  15  18
ATOM     18  C   UNL     1       5.435   3.164  12.799  0.00  0.00    +0.000 C 
ATOM     19  C   UNL     1       4.548   3.460  11.613  0.00  0.00    +0.000 C 
ATOM     20  C   UNL     1       5.482   2.284  11.575  0.00  0.00    +0.000 C 
ENDBRANCH  15  18
ENDBRANCH   3  14
TORSDOF 5
ENDMDL
MODEL 6
REMARK VINA RESULT:      -7.2      1.408      1.648
REMARK  Name = 
REMARK  6 active torsions:
REMARK  status: ('A' for Active; 'I' for Inactive)
REMARK    1  A    between atoms: C_1  and  C_2
REMARK    2  A    between atoms: C_2  and  C_10
REMARK    3  A    between atoms: N_3  and  N_4
REMARK    4  A    between atoms: C_5  and  C_7
REMARK    5  A    between atoms: C_13  and  O_14
REMARK    6  A    between atoms: O_14  and  C_15
REMARK                            x       y       z     vdW  Elec       q    Type
REMARK                         _______ _______ _______ _____ _____    ______ ____
ROOT
ATOM      1  C   UNL     1       7.294   4.606  16.918  0.00  0.00    +0.000 C 
ATOM      2  C   UNL     1       5.930   4.896  16.326  0.00  0.00    +0.000 C 
ATOM      3  N   UNL     1       5.701   5.242  15.097  0.00  0.00    +0.000 NA
ENDROOT
BRANCH   2   4
ATOM      4  C   UNL     1       4.735   4.760  17.235  0.00  0.00    +0.000 A 
ATOM      5  C   UNL     1       4.399   3.530  17.812  0.00  0.00    +0.000 A 
ATOM      6  C   UNL     1       3.271   3.420  18.626  0.00  0.00    +0.000 A 
ATOM      7  C   UNL     1       2.472   4.529  18.898  0.00  0.00    +0.000 A 
ATOM      8  C   UNL     1       2.791   5.760  18.324  0.00  0.00    +0.000 A 
ATOM      9  C   UNL     1       3.923   5.875  17.503  0.00  0.00    +0.000 A 
BRANCH   7  10
ATOM     10  O   UNL     1       1.394   4.272  19.693  0.00  0.00    +0.000 OA
BRANCH  10  11
ATOM     11  C   UNL     1       1.183   2.912  20.030  0.00  0.00    +0.000 C 
ATOM     12  F   UNL     1       0.800   2.838  21.327  0.00  0.00    +0.000 F 
ATOM     13  F   UNL     1       0.136   2.476  19.285  0.00  0.00    +0.000 F 
ENDBRANCH  10  11
ENDBRANCH   7  10
ENDBRANCH   2   4
BRANCH   3  14
ATOM     14  N   UNL     1       6.707   5.387  14.197  0.00  0.00    +0.000 N 
ATOM     15  C   UNL     1       6.814   4.549  13.103  0.00  0.00    +0.000 C 
ATOM     16  O   UNL     1       7.700   4.686  12.265  0.00  0.00    +0.000 OA
ATOM     17  H   UNL     1       7.397   6.118  14.267  0.00  0.00    +0.000 HD
BRANCH  15  18
ATOM     18  C   UNL     1       5.775   3.483  12.981  0.00  0.00    +0.000 C 
ATOM     19  C   UNL     1       4.745   3.576  11.880  0.00  0.00    +0.000 C 
ATOM     20  C   UNL     1       5.785   2.493  11.844  0.00  0.00    +0.000 C 
ENDBRANCH  15  18
ENDBRANCH   3  14
TORSDOF 5
ENDMDL
MODEL 7
REMARK VINA RESULT:      -7.0      0.842      1.393
REMARK  Name = 
REMARK  6 active torsions:
REMARK  status: ('A' for Active; 'I' for Inactive)
REMARK    1  A    between atoms: C_1  and  C_2
REMARK    2  A    between atoms: C_2  and  C_10
REMARK    3  A    between atoms: N_3  and  N_4
REMARK    4  A    between atoms: C_5  and  C_7
REMARK    5  A    between atoms: C_13  and  O_14
REMARK    6  A    between atoms: O_14  and  C_15
REMARK                            x       y       z     vdW  Elec       q    Type
REMARK                         _______ _______ _______ _____ _____    ______ ____
ROOT
ATOM      1  C   UNL     1       6.924   5.126  17.786  0.00  0.00    +0.000 C 
ATOM      2  C   UNL     1       5.653   4.885  16.999  0.00  0.00    +0.000 C 
ATOM      3  N   UNL     1       5.500   5.107  15.730  0.00  0.00    +0.000 NA
ENDROOT
BRANCH   2   4
ATOM      4  C   UNL     1       4.468   4.328  17.746  0.00  0.00    +0.000 A 
ATOM      5  C   UNL     1       3.217   4.953  17.693  0.00  0.00    +0.000 A 
ATOM      6  C   UNL     1       2.142   4.436  18.417  0.00  0.00    +0.000 A 
ATOM      7  C   UNL     1       2.283   3.282  19.186  0.00  0.00    +0.000 A 
ATOM      8  C   UNL     1       3.526   2.652  19.254  0.00  0.00    +0.000 A 
ATOM      9  C   UNL     1       4.611   3.169  18.529  0.00  0.00    +0.000 A 
BRANCH   7  10
ATOM     10  O   UNL     1       1.155   2.902  19.853  0.00  0.00    +0.000 OA
BRANCH  10  11
ATOM     11  C   UNL     1       1.153   3.138  21.250  0.00  0.00    +0.000 C 
ATOM     12  F   UNL     1       1.694   2.064  21.874  0.00  0.00    +0.000 F 
ATOM     13  F   UNL     1       1.986   4.186  21.477  0.00  0.00    +0.000 F 
ENDBRANCH  10  11
ENDBRANCH   7  10
ENDBRANCH   2   4
BRANCH   3  14
ATOM     14  N   UNL     1       6.506   5.603  14.965  0.00  0.00    +0.000 N 
ATOM     15  C   UNL     1       6.908   4.961  13.809  0.00  0.00    +0.000 C 
ATOM     16  O   UNL     1       7.795   5.413  13.091  0.00  0.00    +0.000 OA
ATOM     17  H   UNL     1       6.984   6.463  15.186  0.00  0.00    +0.000 HD
BRANCH  15  18
ATOM     18  C   UNL     1       6.181   3.702  13.463  0.00  0.00    +0.000 C 
ATOM     19  C   UNL     1       5.074   3.745  12.438  0.00  0.00    +0.000 C 
ATOM     20  C   UNL     1       6.357   3.028  12.126  0.00  0.00    +0.000 C 
ENDBRANCH  15  18
ENDBRANCH   3  14
TORSDOF 5
ENDMDL
MODEL 8
REMARK VINA RESULT:      -7.0      1.189      1.719
REMARK  Name = 
REMARK  6 active torsions:
REMARK  status: ('A' for Active; 'I' for Inactive)
REMARK    1  A    between atoms: C_1  and  C_2
REMARK    2  A    between atoms: C_2  and  C_10
REMARK    3  A    between atoms: N_3  and  N_4
REMARK    4  A    between atoms: C_5  and  C_7
REMARK    5  A    between atoms: C_13  and  O_14
REMARK    6  A    between atoms: O_14  and  C_15
REMARK                            x       y       z     vdW  Elec       q    Type
REMARK                         _______ _______ _______ _____ _____    ______ ____
ROOT
ATOM      1  C   UNL     1       7.535   4.701  17.182  0.00  0.00    +0.000 C 
ATOM      2  C   UNL     1       6.143   4.880  16.614  0.00  0.00    +0.000 C 
ATOM      3  N   UNL     1       5.866   5.215  15.391  0.00  0.00    +0.000 NA
ENDROOT
BRANCH   2   4
ATOM      4  C   UNL     1       4.979   4.636  17.540  0.00  0.00    +0.000 A 
ATOM      5  C   UNL     1       3.773   5.330  17.388  0.00  0.00    +0.000 A 
ATOM      6  C   UNL     1       2.719   5.110  18.275  0.00  0.00    +0.000 A 
ATOM      7  C   UNL     1       2.835   4.184  19.311  0.00  0.00    +0.000 A 
ATOM      8  C   UNL     1       4.032   3.490  19.478  0.00  0.00    +0.000 A 
ATOM      9  C   UNL     1       5.097   3.709  18.590  0.00  0.00    +0.000 A 
BRANCH   7  10
ATOM     10  O   UNL     1       1.733   4.085  20.111  0.00  0.00    +0.000 OA
BRANCH  10  11
ATOM     11  C   UNL     1       1.282   2.771  20.383  0.00  0.00    +0.000 C 
ATOM     12  F   UNL     1       0.845   2.715  21.664  0.00  0.00    +0.000 F 
ATOM     13  F   UNL     1       0.202   2.550  19.590  0.00  0.00    +0.000 F 
ENDBRANCH  10  11
ENDBRANCH   7  10
ENDBRANCH   2   4
BRANCH   3  14
ATOM     14  N   UNL     1       6.841   5.452  14.477  0.00  0.00    +0.000 N 
ATOM     15  C   UNL     1       6.947   4.688  13.331  0.00  0.00    +0.000 C 
ATOM     16  O   UNL     1       7.803   4.909  12.480  0.00  0.00    +0.000 OA
ATOM     17  H   UNL     1       7.508   6.201  14.576  0.00  0.00    +0.000 HD
BRANCH  15  18
ATOM     18  C   UNL     1       5.941   3.595  13.167  0.00  0.00    +0.000 C 
ATOM     19  C   UNL     1       4.875   3.723  12.106  0.00  0.00    +0.000 C 
ATOM     20  C   UNL     1       5.949   2.683  11.967  0.00  0.00    +0.000 C 
ENDBRANCH  15  18
ENDBRANCH   3  14
TORSDOF 5
ENDMDL
MODEL 9
REMARK VINA RESULT:      -6.9      1.097      1.310
REMARK  Name = 
REMARK  6 active torsions:
REMARK  status: ('A' for Active; 'I' for Inactive)
REMARK    1  A    between atoms: C_1  and  C_2
REMARK    2  A    between atoms: C_2  and  C_10
REMARK    3  A    between atoms: N_3  and  N_4
REMARK    4  A    between atoms: C_5  and  C_7
REMARK    5  A    between atoms: C_13  and  O_14
REMARK    6  A    between atoms: O_14  and  C_15
REMARK                            x       y       z     vdW  Elec       q    Type
REMARK                         _______ _______ _______ _____ _____    ______ ____
ROOT
ATOM      1  C   UNL     1       6.922   6.028  17.537  0.00  0.00    +0.000 C 
ATOM      2  C   UNL     1       5.950   5.113  16.823  0.00  0.00    +0.000 C 
ATOM      3  N   UNL     1       5.931   4.884  15.546  0.00  0.00    +0.000 NA
ENDROOT
BRANCH   2   4
ATOM      4  C   UNL     1       4.925   4.396  17.664  0.00  0.00    +0.000 A 
ATOM      5  C   UNL     1       5.056   4.315  19.055  0.00  0.00    +0.000 A 
ATOM      6  C   UNL     1       4.111   3.621  19.811  0.00  0.00    +0.000 A 
ATOM      7  C   UNL     1       3.013   3.014  19.204  0.00  0.00    +0.000 A 
ATOM      8  C   UNL     1       2.873   3.080  17.818  0.00  0.00    +0.000 A 
ATOM      9  C   UNL     1       3.821   3.776  17.053  0.00  0.00    +0.000 A 
BRANCH   7  10
ATOM     10  O   UNL     1       2.181   2.356  20.063  0.00  0.00    +0.000 OA
BRANCH  10  11
ATOM     11  C   UNL     1       0.927   2.969  20.303  0.00  0.00    +0.000 C 
ATOM     12  F   UNL     1       1.075   4.313  20.218  0.00  0.00    +0.000 F 
ATOM     13  F   UNL     1       0.104   2.600  19.289  0.00  0.00    +0.000 F 
ENDBRANCH  10  11
ENDBRANCH   7  10
ENDBRANCH   2   4
BRANCH   3  14
ATOM     14  N   UNL     1       6.815   5.474  14.701  0.00  0.00    +0.000 N 
ATOM     15  C   UNL     1       7.118   4.912  13.475  0.00  0.00    +0.000 C 
ATOM     16  O   UNL     1       7.890   5.450  12.688  0.00  0.00    +0.000 OA
ATOM     17  H   UNL     1       7.264   6.351  14.912  0.00  0.00    +0.000 HD
BRANCH  15  18
ATOM     18  C   UNL     1       6.429   3.627  13.148  0.00  0.00    +0.000 C 
ATOM     19  C   UNL     1       5.258   3.638  12.195  0.00  0.00    +0.000 C 
ATOM     20  C   UNL     1       6.550   2.989  11.787  0.00  0.00    +0.000 C 
ENDBRANCH  15  18
ENDBRANCH   3  14
TORSDOF 5
ENDMDL
