MODEL 1
REMARK VINA RESULT:      -8.1      0.000      0.000
REMARK  Name = 
REMARK  10 active torsions:
REMARK  status: ('A' for Active; 'I' for Inactive)
REMARK    1  A    between atoms: C_1  and  C_2
REMARK    2  A    between atoms: C_2  and  C_3
REMARK    3  A    between atoms: N_8  and  C_9
REMARK    4  A    between atoms: C_9  and  C_10
REMARK    5  A    between atoms: C_10  and  C_11
REMARK    6  A    between atoms: C_11  and  N_12
REMARK    7  A    between atoms: C_13  and  C_15
REMARK    8  A    between atoms: C_15  and  S_16
REMARK    9  A    between atoms: S_16  and  C_17
REMARK   10  A    between atoms: N_21  and  C_22
REMARK                            x       y       z     vdW  Elec       q    Type
REMARK                         _______ _______ _______ _____ _____    ______ ____
ROOT
ATOM      1  N   UNL     1       7.850   6.852  17.533  0.00  0.00    +0.000 N 
ATOM      2  C   UNL     1       7.239   5.708  18.017  0.00  0.00    +0.000 C 
ATOM      3  O   UNL     1       7.005   5.548  19.207  0.00  0.00    +0.000 OA
ATOM      4  H   UNL     1       7.998   6.939  16.533  0.00  0.00    +0.000 HD
ENDROOT
BRANCH   1   5
ATOM      5  C   UNL     1       8.328   7.868  18.443  0.00  0.00    +0.000 C 
BRANCH   5   6
ATOM      6  C   UNL     1       8.216   9.268  17.857  0.00  0.00    +0.000 C 
BRANCH   6   7
ATOM      7  C   UNL     1       8.820  10.309  18.817  0.00  0.00    +0.000 C 
BRANCH   7  13
ATOM      8  C   UNL     1       9.156  12.642  18.086  0.00  0.00    +0.000 C 
ATOM      9  C   UNL     1      10.158  13.660  17.486  0.00  0.00    +0.000 C 
ATOM     10  C   UNL     1      11.513  13.643  18.171  0.00  0.00    +0.000 C 
ATOM     11  C   UNL     1      12.043  12.225  18.202  0.00  0.00    +0.000 C 
ATOM     12  C   UNL     1      11.037  11.295  18.866  0.00  0.00    +0.000 C 
ATOM     13  N   UNL     1       9.740  11.271  18.159  0.00  0.00    +0.000 NA
BRANCH   8  15
ATOM     14  C   UNL     1       6.984  13.958  17.569  0.00  0.00    +0.000 C 
ATOM     15  C   UNL     1       7.836  12.727  17.271  0.00  0.00    +0.000 C 
ENDBRANCH   8  15
ENDBRANCH   7  13
ENDBRANCH   6   7
ENDBRANCH   5   6
ENDBRANCH   1   5
BRANCH   2  16
ATOM     16  C   UNL     1       6.801   4.692  16.953  0.00  0.00    +0.000 C 
BRANCH  16  17
ATOM     17  S   UNL     1       5.107   5.068  16.385  0.00  0.00    +0.000 S 
BRANCH  17  18
ATOM     18  C   UNL     1       4.131   4.668  17.757  0.00  0.00    +0.000 A 
ATOM     19  C   UNL     1       4.301   3.481  18.351  0.00  0.00    +0.000 A 
ATOM     20  C   UNL     1       3.661   3.139  19.634  0.00  0.00    +0.000 A 
ATOM     21  O   UNL     1       3.868   2.017  20.100  0.00  0.00    +0.000 OA
ATOM     22  N   UNL     1       2.890   4.115  20.242  0.00  0.00    +0.000 N 
ATOM     23  C   UNL     1       2.278   3.799  21.524  0.00  0.00    +0.000 C 
ATOM     24  C   UNL     1       2.714   5.409  19.663  0.00  0.00    +0.000 A 
ATOM     25  C   UNL     1       1.981   6.408  20.331  0.00  0.00    +0.000 A 
ATOM     26  C   UNL     1       1.843   7.685  19.788  0.00  0.00    +0.000 A 
ATOM     27  C   UNL     1       2.405   7.967  18.553  0.00  0.00    +0.000 A 
ATOM     28 CL   UNL     1       2.240   9.542  17.879  0.00  0.00    +0.000 Cl
ATOM     29  C   UNL     1       3.119   6.989  17.862  0.00  0.00    +0.000 A 
ATOM     30  C   UNL     1       3.305   5.705  18.413  0.00  0.00    +0.000 A 
ENDBRANCH  17  18
ENDBRANCH  16  17
ENDBRANCH   2  16
TORSDOF 8
ENDMDL
MODEL 2
REMARK VINA RESULT:      -7.9      4.434      7.629
REMARK  Name = 
REMARK  10 active torsions:
REMARK  status: ('A' for Active; 'I' for Inactive)
REMARK    1  A    between atoms: C_1  and  C_2
REMARK    2  A    between atoms: C_2  and  C_3
REMARK    3  A    between atoms: N_8  and  C_9
REMARK    4  A    between atoms: C_9  and  C_10
REMARK    5  A    between atoms: C_10  and  C_11
REMARK    6  A    between atoms: C_11  and  N_12
REMARK    7  A    between atoms: C_13  and  C_15
REMARK    8  A    between atoms: C_15  and  S_16
REMARK    9  A    between atoms: S_16  and  C_17
REMARK   10  A    between atoms: N_21  and  C_22
REMARK                            x       y       z     vdW  Elec       q    Type
REMARK                         _______ _______ _______ _____ _____    ______ ____
ROOT
ATOM      1  N   UNL     1       2.422   5.559  20.324  0.00  0.00    +0.000 N 
ATOM      2  C   UNL     1       2.300   6.552  19.367  0.00  0.00    +0.000 C 
ATOM      3  O   UNL     1       2.241   6.302  18.172  0.00  0.00    +0.000 OA
ATOM      4  H   UNL     1       2.445   5.825  21.302  0.00  0.00    +0.000 HD
ENDROOT
BRANCH   1   5
ATOM      5  C   UNL     1       2.585   4.178  19.928  0.00  0.00    +0.000 C 
BRANCH   5   6
ATOM      6  C   UNL     1       4.049   3.784  19.794  0.00  0.00    +0.000 C 
BRANCH   6   7
ATOM      7  C   UNL     1       4.458   3.706  18.313  0.00  0.00    +0.000 C 
BRANCH   7  13
ATOM      8  C   UNL     1       5.672   5.182  16.752  0.00  0.00    +0.000 C 
ATOM      9  C   UNL     1       6.987   5.959  16.491  0.00  0.00    +0.000 C 
ATOM     10  C   UNL     1       7.442   6.785  17.681  0.00  0.00    +0.000 C 
ATOM     11  C   UNL     1       7.498   5.905  18.912  0.00  0.00    +0.000 C 
ATOM     12  C   UNL     1       6.153   5.230  19.145  0.00  0.00    +0.000 C 
ATOM     13  N   UNL     1       5.745   4.380  18.008  0.00  0.00    +0.000 NA
BRANCH   8  15
ATOM     14  C   UNL     1       6.483   4.260  14.470  0.00  0.00    +0.000 C 
ATOM     15  C   UNL     1       5.345   4.347  15.483  0.00  0.00    +0.000 C 
ENDBRANCH   8  15
ENDBRANCH   7  13
ENDBRANCH   6   7
ENDBRANCH   5   6
ENDBRANCH   1   5
BRANCH   2  16
ATOM     16  C   UNL     1       2.163   7.980  19.913  0.00  0.00    +0.000 C 
BRANCH  16  17
ATOM     17  S   UNL     1       1.465   9.077  18.630  0.00  0.00    +0.000 S 
BRANCH  17  18
ATOM     18  C   UNL     1       0.239   9.953  19.480  0.00  0.00    +0.000 A 
ATOM     19  C   UNL     1       0.499  10.403  20.714  0.00  0.00    +0.000 A 
ATOM     20  C   UNL     1      -0.404  11.322  21.428  0.00  0.00    +0.000 A 
ATOM     21  O   UNL     1      -0.087  11.675  22.565  0.00  0.00    +0.000 OA
ATOM     22  N   UNL     1      -1.539  11.749  20.759  0.00  0.00    +0.000 N 
ATOM     23  C   UNL     1      -2.424  12.681  21.443  0.00  0.00    +0.000 C 
ATOM     24  C   UNL     1      -1.836  11.325  19.427  0.00  0.00    +0.000 A 
ATOM     25  C   UNL     1      -2.960  11.824  18.742  0.00  0.00    +0.000 A 
ATOM     26  C   UNL     1      -3.227  11.445  17.427  0.00  0.00    +0.000 A 
ATOM     27  C   UNL     1      -2.395  10.535  16.794  0.00  0.00    +0.000 A 
ATOM     28 CL   UNL     1      -2.720  10.066  15.170  0.00  0.00    +0.000 Cl
ATOM     29  C   UNL     1      -1.287  10.011  17.458  0.00  0.00    +0.000 A 
ATOM     30  C   UNL     1      -0.976  10.413  18.773  0.00  0.00    +0.000 A 
ENDBRANCH  17  18
ENDBRANCH  16  17
ENDBRANCH   2  16
TORSDOF 8
ENDMDL
MODEL 3
REMARK VINA RESULT:      -7.8      1.271      1.543
REMARK  Name = 
REMARK  10 active torsions:
REMARK  status: ('A' for Active; 'I' for Inactive)
REMARK    1  A    between atoms: C_1  and  C_2
REMARK    2  A    between atoms: C_2  and  C_3
REMARK    3  A    between atoms: N_8  and  C_9
REMARK    4  A    between atoms: C_9  and  C_10
REMARK    5  A    between atoms: C_10  and  C_11
REMARK    6  A    between atoms: C_11  and  N_12
REMARK    7  A    between atoms: C_13  and  C_15
REMARK    8  A    between atoms: C_15  and  S_16
REMARK    9  A    between atoms: S_16  and  C_17
REMARK   10  A    between atoms: N_21  and  C_22
REMARK                            x       y       z     vdW  Elec       q    Type
REMARK                         _______ _______ _______ _____ _____    ______ ____
ROOT
ATOM      1  N   UNL     1       7.002   7.760  17.158  0.00  0.00    +0.000 N 
ATOM      2  C   UNL     1       7.356   6.533  17.692  0.00  0.00    +0.000 C 
ATOM      3  O   UNL     1       7.829   6.423  18.814  0.00  0.00    +0.000 OA
ATOM      4  H   UNL     1       6.595   7.788  16.230  0.00  0.00    +0.000 HD
ENDROOT
BRANCH   1   5
ATOM      5  C   UNL     1       7.276   8.981  17.883  0.00  0.00    +0.000 C 
BRANCH   5   6
ATOM      6  C   UNL     1       8.750   9.357  17.847  0.00  0.00    +0.000 C 
BRANCH   6   7
ATOM      7  C   UNL     1       9.166  10.055  19.154  0.00  0.00    +0.000 C 
BRANCH   7  13
ATOM      8  C   UNL     1      10.494  11.881  20.149  0.00  0.00    +0.000 C 
ATOM      9  C   UNL     1      11.155  13.260  19.900  0.00  0.00    +0.000 C 
ATOM     10  C   UNL     1      11.979  13.310  18.625  0.00  0.00    +0.000 C 
ATOM     11  C   UNL     1      11.135  12.830  17.463  0.00  0.00    +0.000 C 
ATOM     12  C   UNL     1      10.576  11.443  17.748  0.00  0.00    +0.000 C 
ATOM     13  N   UNL     1       9.726  11.415  18.957  0.00  0.00    +0.000 NA
BRANCH   8  15
ATOM     14  C   UNL     1       8.839  13.265  21.584  0.00  0.00    +0.000 C 
ATOM     15  C   UNL     1       9.649  11.979  21.449  0.00  0.00    +0.000 C 
ENDBRANCH   8  15
ENDBRANCH   7  13
ENDBRANCH   6   7
ENDBRANCH   5   6
ENDBRANCH   1   5
BRANCH   2  16
ATOM     16  C   UNL     1       7.041   5.315  16.813  0.00  0.00    +0.000 C 
BRANCH  16  17
ATOM     17  S   UNL     1       5.338   5.435  16.163  0.00  0.00    +0.000 S 
BRANCH  17  18
ATOM     18  C   UNL     1       4.366   4.915  17.497  0.00  0.00    +0.000 A 
ATOM     19  C   UNL     1       4.591   3.710  18.034  0.00  0.00    +0.000 A 
ATOM     20  C   UNL     1       3.953   3.271  19.287  0.00  0.00    +0.000 A 
ATOM     21  O   UNL     1       4.212   2.139  19.701  0.00  0.00    +0.000 OA
ATOM     22  N   UNL     1       3.124   4.174  19.932  0.00  0.00    +0.000 N 
ATOM     23  C   UNL     1       2.512   3.762  21.186  0.00  0.00    +0.000 C 
ATOM     24  C   UNL     1       2.887   5.485  19.415  0.00  0.00    +0.000 A 
ATOM     25  C   UNL     1       2.094   6.409  20.120  0.00  0.00    +0.000 A 
ATOM     26  C   UNL     1       1.896   7.703  19.639  0.00  0.00    +0.000 A 
ATOM     27  C   UNL     1       2.460   8.076  18.429  0.00  0.00    +0.000 A 
ATOM     28 CL   UNL     1       2.221   9.672  17.832  0.00  0.00    +0.000 Cl
ATOM     29  C   UNL     1       3.233   7.173  17.702  0.00  0.00    +0.000 A 
ATOM     30  C   UNL     1       3.479   5.873  18.191  0.00  0.00    +0.000 A 
ENDBRANCH  17  18
ENDBRANCH  16  17
ENDBRANCH   2  16
TORSDOF 8
ENDMDL
MODEL 4
REMARK VINA RESULT:      -7.8      2.401      3.346
REMARK  Name = 
REMARK  10 active torsions:
REMARK  status: ('A' for Active; 'I' for Inactive)
REMARK    1  A    between atoms: C_1  and  C_2
REMARK    2  A    between atoms: C_2  and  C_3
REMARK    3  A    between atoms: N_8  and  C_9
REMARK    4  A    between atoms: C_9  and  C_10
REMARK    5  A    between atoms: C_10  and  C_11
REMARK    6  A    between atoms: C_11  and  N_12
REMARK    7  A    between atoms: C_13  and  C_15
REMARK    8  A    between atoms: C_15  and  S_16
REMARK    9  A    between atoms: S_16  and  C_17
REMARK   10  A    between atoms: N_21  and  C_22
REMARK                            x       y       z     vdW  Elec       q    Type
REMARK                         _______ _______ _______ _____ _____    ______ ____
ROOT
ATOM      1  N   UNL     1       7.541   7.867  17.254  0.00  0.00    +0.000 N 
ATOM      2  C   UNL     1       7.188   6.529  17.225  0.00  0.00    +0.000 C 
ATOM      3  O   UNL     1       7.505   5.752  18.115  0.00  0.00    +0.000 OA
ATOM      4  H   UNL     1       7.232   8.469  16.499  0.00  0.00    +0.000 HD
ENDROOT
BRANCH   1   5
ATOM      5  C   UNL     1       8.392   8.377  18.306  0.00  0.00    +0.000 C 
BRANCH   5   6
ATOM      6  C   UNL     1       8.497   9.895  18.279  0.00  0.00    +0.000 C 
BRANCH   6   7
ATOM      7  C   UNL     1       9.613  10.380  19.221  0.00  0.00    +0.000 C 
BRANCH   7  13
ATOM      8  C   UNL     1      10.826  12.362  20.052  0.00  0.00    +0.000 C 
ATOM      9  C   UNL     1      11.450  13.728  19.673  0.00  0.00    +0.000 C 
ATOM     10  C   UNL     1      12.332  13.664  18.438  0.00  0.00    +0.000 C 
ATOM     11  C   UNL     1      11.563  13.019  17.304  0.00  0.00    +0.000 C 
ATOM     12  C   UNL     1      11.039  11.653  17.726  0.00  0.00    +0.000 C 
ATOM     13  N   UNL     1      10.134  11.731  18.891  0.00  0.00    +0.000 NA
BRANCH   8  15
ATOM     14  C   UNL     1       8.703  13.466  21.046  0.00  0.00    +0.000 C 
ATOM     15  C   UNL     1       9.917  12.575  21.294  0.00  0.00    +0.000 C 
ENDBRANCH   8  15
ENDBRANCH   7  13
ENDBRANCH   6   7
ENDBRANCH   5   6
ENDBRANCH   1   5
BRANCH   2  16
ATOM     16  C   UNL     1       6.306   6.104  16.044  0.00  0.00    +0.000 C 
BRANCH  16  17
ATOM     17  S   UNL     1       4.928   5.060  16.633  0.00  0.00    +0.000 S 
BRANCH  17  18
ATOM     18  C   UNL     1       4.017   6.135  17.638  0.00  0.00    +0.000 A 
ATOM     19  C   UNL     1       3.723   7.358  17.181  0.00  0.00    +0.000 A 
ATOM     20  C   UNL     1       2.789   8.260  17.879  0.00  0.00    +0.000 A 
ATOM     21  O   UNL     1       2.588   9.373  17.389  0.00  0.00    +0.000 OA
ATOM     22  N   UNL     1       2.180   7.784  19.027  0.00  0.00    +0.000 N 
ATOM     23  C   UNL     1       1.234   8.655  19.708  0.00  0.00    +0.000 C 
ATOM     24  C   UNL     1       2.435   6.470  19.529  0.00  0.00    +0.000 A 
ATOM     25  C   UNL     1       1.754   5.982  20.660  0.00  0.00    +0.000 A 
ATOM     26  C   UNL     1       1.969   4.686  21.126  0.00  0.00    +0.000 A 
ATOM     27  C   UNL     1       2.894   3.874  20.488  0.00  0.00    +0.000 A 
ATOM     28 CL   UNL     1       3.162   2.272  21.058  0.00  0.00    +0.000 Cl
ATOM     29  C   UNL     1       3.596   4.341  19.378  0.00  0.00    +0.000 A 
ATOM     30  C   UNL     1       3.363   5.634  18.866  0.00  0.00    +0.000 A 
ENDBRANCH  17  18
ENDBRANCH  16  17
ENDBRANCH   2  16
TORSDOF 8
ENDMDL
MODEL 5
REMARK VINA RESULT:      -7.6      1.613      2.082
REMARK  Name = 
REMARK  10 active torsions:
REMARK  status: ('A' for Active; 'I' for Inactive)
REMARK    1  A    between atoms: C_1  and  C_2
REMARK    2  A    between atoms: C_2  and  C_3
REMARK    3  A    between atoms: N_8  and  C_9
REMARK    4  A    between atoms: C_9  and  C_10
REMARK    5  A    between atoms: C_10  and  C_11
REMARK    6  A    between atoms: C_11  and  N_12
REMARK    7  A    between atoms: C_13  and  C_15
REMARK    8  A    between atoms: C_15  and  S_16
REMARK    9  A    between atoms: S_16  and  C_17
REMARK   10  A    between atoms: N_21  and  C_22
REMARK                            x       y       z     vdW  Elec       q    Type
REMARK                         _______ _______ _______ _____ _____    ______ ____
ROOT
ATOM      1  N   UNL     1       7.488   7.865  17.395  0.00  0.00    +0.000 N 
ATOM      2  C   UNL     1       7.288   6.496  17.423  0.00  0.00    +0.000 C 
ATOM      3  O   UNL     1       7.797   5.780  18.274  0.00  0.00    +0.000 OA
ATOM      4  H   UNL     1       7.023   8.411  16.678  0.00  0.00    +0.000 HD
ENDROOT
BRANCH   1   5
ATOM      5  C   UNL     1       8.398   8.491  18.329  0.00  0.00    +0.000 C 
BRANCH   5   6
ATOM      6  C   UNL     1       8.460  10.001  18.151  0.00  0.00    +0.000 C 
BRANCH   6   7
ATOM      7  C   UNL     1       9.844  10.540  18.554  0.00  0.00    +0.000 C 
BRANCH   7  13
ATOM      8  C   UNL     1       9.050  12.838  18.977  0.00  0.00    +0.000 C 
ATOM      9  C   UNL     1       8.917  13.970  20.027  0.00  0.00    +0.000 C 
ATOM     10  C   UNL     1       8.353  13.494  21.354  0.00  0.00    +0.000 C 
ATOM     11  C   UNL     1       9.157  12.309  21.846  0.00  0.00    +0.000 C 
ATOM     12  C   UNL     1       9.186  11.212  20.792  0.00  0.00    +0.000 C 
ATOM     13  N   UNL     1       9.792  11.664  19.523  0.00  0.00    +0.000 NA
BRANCH   8  15
ATOM     14  C   UNL     1      10.884  14.346  17.939  0.00  0.00    +0.000 C 
ATOM     15  C   UNL     1       9.678  13.444  17.692  0.00  0.00    +0.000 C 
ENDBRANCH   8  15
ENDBRANCH   7  13
ENDBRANCH   6   7
ENDBRANCH   5   6
ENDBRANCH   1   5
BRANCH   2  16
ATOM     16  C   UNL     1       6.322   5.948  16.363  0.00  0.00    +0.000 C 
BRANCH  16  17
ATOM     17  S   UNL     1       4.664   6.679  16.589  0.00  0.00    +0.000 S 
BRANCH  17  18
ATOM     18  C   UNL     1       3.797   5.444  17.436  0.00  0.00    +0.000 A 
ATOM     19  C   UNL     1       4.090   4.161  17.191  0.00  0.00    +0.000 A 
ATOM     20  C   UNL     1       3.549   3.057  18.004  0.00  0.00    +0.000 A 
ATOM     21  O   UNL     1       3.866   1.907  17.697  0.00  0.00    +0.000 OA
ATOM     22  N   UNL     1       2.740   3.392  19.077  0.00  0.00    +0.000 N 
ATOM     23  C   UNL     1       2.225   2.311  19.904  0.00  0.00    +0.000 C 
ATOM     24  C   UNL     1       2.434   4.750  19.398  0.00  0.00    +0.000 A 
ATOM     25  C   UNL     1       1.665   5.070  20.532  0.00  0.00    +0.000 A 
ATOM     26  C   UNL     1       1.400   6.396  20.872  0.00  0.00    +0.000 A 
ATOM     27  C   UNL     1       1.871   7.417  20.061  0.00  0.00    +0.000 A 
ATOM     28 CL   UNL     1       1.550   9.056  20.477  0.00  0.00    +0.000 Cl
ATOM     29  C   UNL     1       2.618   7.125  18.921  0.00  0.00    +0.000 A 
ATOM     30  C   UNL     1       2.932   5.793  18.583  0.00  0.00    +0.000 A 
ENDBRANCH  17  18
ENDBRANCH  16  17
ENDBRANCH   2  16
TORSDOF 8
ENDMDL
MODEL 6
REMARK VINA RESULT:      -7.5      4.896      7.752
REMARK  Name = 
REMARK  10 active torsions:
REMARK  status: ('A' for Active; 'I' for Inactive)
REMARK    1  A    between atoms: C_1  and  C_2
REMARK    2  A    between atoms: C_2  and  C_3
REMARK    3  A    between atoms: N_8  and  C_9
REMARK    4  A    between atoms: C_9  and  C_10
REMARK    5  A    between atoms: C_10  and  C_11
REMARK    6  A    between atoms: C_11  and  N_12
REMARK    7  A    between atoms: C_13  and  C_15
REMARK    8  A    between atoms: C_15  and  S_16
REMARK    9  A    between atoms: S_16  and  C_17
REMARK   10  A    between atoms: N_21  and  C_22
REMARK                            x       y       z     vdW  Elec       q    Type
REMARK                         _______ _______ _______ _____ _____    ______ ____
ROOT
ATOM      1  N   UNL     1       2.426   5.677  18.314  0.00  0.00    +0.000 N 
ATOM      2  C   UNL     1       2.201   6.686  19.235  0.00  0.00    +0.000 C 
ATOM      3  O   UNL     1       1.734   6.464  20.343  0.00  0.00    +0.000 OA
ATOM      4  H   UNL     1       2.835   5.918  17.418  0.00  0.00    +0.000 HD
ENDROOT
BRANCH   1   5
ATOM      5  C   UNL     1       2.018   4.320  18.601  0.00  0.00    +0.000 C 
BRANCH   5   6
ATOM      6  C   UNL     1       2.696   3.309  17.686  0.00  0.00    +0.000 C 
BRANCH   6   7
ATOM      7  C   UNL     1       4.219   3.314  17.905  0.00  0.00    +0.000 C 
BRANCH   7  13
ATOM      8  C   UNL     1       6.316   4.579  17.599  0.00  0.00    +0.000 C 
ATOM      9  C   UNL     1       7.096   5.554  16.683  0.00  0.00    +0.000 C 
ATOM     10  C   UNL     1       7.096   5.136  15.223  0.00  0.00    +0.000 C 
ATOM     11  C   UNL     1       5.671   4.895  14.769  0.00  0.00    +0.000 C 
ATOM     12  C   UNL     1       4.990   3.877  15.673  0.00  0.00    +0.000 C 
ATOM     13  N   UNL     1       4.941   4.318  17.082  0.00  0.00    +0.000 NA
BRANCH   8  15
ATOM     14  C   UNL     1       7.669   5.812  19.433  0.00  0.00    +0.000 C 
ATOM     15  C   UNL     1       6.353   5.142  19.047  0.00  0.00    +0.000 C 
ENDBRANCH   8  15
ENDBRANCH   7  13
ENDBRANCH   6   7
ENDBRANCH   5   6
ENDBRANCH   1   5
BRANCH   2  16
ATOM     16  C   UNL     1       2.651   8.088  18.802  0.00  0.00    +0.000 C 
BRANCH  16  17
ATOM     17  S   UNL     1       1.404   8.833  17.695  0.00  0.00    +0.000 S 
BRANCH  17  18
ATOM     18  C   UNL     1       0.418   9.759  18.775  0.00  0.00    +0.000 A 
ATOM     19  C   UNL     1       0.951  10.209  19.917  0.00  0.00    +0.000 A 
ATOM     20  C   UNL     1       0.252  11.166  20.794  0.00  0.00    +0.000 A 
ATOM     21  O   UNL     1       0.817  11.516  21.831  0.00  0.00    +0.000 OA
ATOM     22  N   UNL     1      -0.984  11.628  20.376  0.00  0.00    +0.000 N 
ATOM     23  C   UNL     1      -1.670  12.596  21.219  0.00  0.00    +0.000 C 
ATOM     24  C   UNL     1      -1.573  11.205  19.144  0.00  0.00    +0.000 A 
ATOM     25  C   UNL     1      -2.800  11.739  18.708  0.00  0.00    +0.000 A 
ATOM     26  C   UNL     1      -3.356  11.359  17.486  0.00  0.00    +0.000 A 
ATOM     27  C   UNL     1      -2.709  10.415  16.704  0.00  0.00    +0.000 A 
ATOM     28 CL   UNL     1      -3.390   9.945  15.195  0.00  0.00    +0.000 Cl
ATOM     29  C   UNL     1      -1.503   9.857  17.124  0.00  0.00    +0.000 A 
ATOM     30  C   UNL     1      -0.904  10.258  18.336  0.00  0.00    +0.000 A 
ENDBRANCH  17  18
ENDBRANCH  16  17
ENDBRANCH   2  16
TORSDOF 8
ENDMDL
MODEL 7
REMARK VINA RESULT:      -7.4      5.346      9.241
REMARK  Name = 
REMARK  10 active torsions:
REMARK  status: ('A' for Active; 'I' for Inactive)
REMARK    1  A    between atoms: C_1  and  C_2
REMARK    2  A    between atoms: C_2  and  C_3
REMARK    3  A    between atoms: N_8  and  C_9
REMARK    4  A    between atoms: C_9  and  C_10
REMARK    5  A    between atoms: C_10  and  C_11
REMARK    6  A    between atoms: C_11  and  N_12
REMARK    7  A    between atoms: C_13  and  C_15
REMARK    8  A    between atoms: C_15  and  S_16
REMARK    9  A    between atoms: S_16  and  C_17
REMARK   10  A    between atoms: N_21  and  C_22
REMARK                            x       y       z     vdW  Elec       q    Type
REMARK                         _______ _______ _______ _____ _____    ______ ____
ROOT
ATOM      1  N   UNL     1       0.839  11.272  18.286  0.00  0.00    +0.000 N 
ATOM      2  C   UNL     1       1.320  10.152  18.943  0.00  0.00    +0.000 C 
ATOM      3  O   UNL     1       1.366  10.082  20.163  0.00  0.00    +0.000 OA
ATOM      4  H   UNL     1       0.804  11.265  17.273  0.00  0.00    +0.000 HD
ENDROOT
BRANCH   1   5
ATOM      5  C   UNL     1       0.460  12.451  19.032  0.00  0.00    +0.000 C 
BRANCH   5   6
ATOM      6  C   UNL     1      -0.927  12.325  19.647  0.00  0.00    +0.000 C 
BRANCH   6   7
ATOM      7  C   UNL     1      -1.735  11.220  18.942  0.00  0.00    +0.000 C 
BRANCH   7  13
ATOM      8  C   UNL     1      -3.495  10.731  17.283  0.00  0.00    +0.000 C 
ATOM      9  C   UNL     1      -4.834  11.204  16.665  0.00  0.00    +0.000 C 
ATOM     10  C   UNL     1      -5.873  11.585  17.705  0.00  0.00    +0.000 C 
ATOM     11  C   UNL     1      -5.273  12.581  18.675  0.00  0.00    +0.000 C 
ATOM     12  C   UNL     1      -4.000  12.020  19.293  0.00  0.00    +0.000 C 
ATOM     13  N   UNL     1      -2.970  11.710  18.279  0.00  0.00    +0.000 NA
BRANCH   8  15
ATOM     14  C   UNL     1      -3.169  10.291  14.750  0.00  0.00    +0.000 C 
ATOM     15  C   UNL     1      -2.511  10.420  16.121  0.00  0.00    +0.000 C 
ENDBRANCH   8  15
ENDBRANCH   7  13
ENDBRANCH   6   7
ENDBRANCH   5   6
ENDBRANCH   1   5
BRANCH   2  16
ATOM     16  C   UNL     1       1.717   8.976  18.039  0.00  0.00    +0.000 C 
BRANCH  16  17
ATOM     17  S   UNL     1       2.177   7.531  19.057  0.00  0.00    +0.000 S 
BRANCH  17  18
ATOM     18  C   UNL     1       3.163   6.592  17.989  0.00  0.00    +0.000 A 
ATOM     19  C   UNL     1       4.244   7.157  17.437  0.00  0.00    +0.000 A 
ATOM     20  C   UNL     1       5.244   6.382  16.682  0.00  0.00    +0.000 A 
ATOM     21  O   UNL     1       6.201   6.990  16.200  0.00  0.00    +0.000 OA
ATOM     22  N   UNL     1       5.052   5.014  16.588  0.00  0.00    +0.000 N 
ATOM     23  C   UNL     1       6.049   4.234  15.869  0.00  0.00    +0.000 C 
ATOM     24  C   UNL     1       3.934   4.363  17.195  0.00  0.00    +0.000 A 
ATOM     25  C   UNL     1       3.794   2.964  17.144  0.00  0.00    +0.000 A 
ATOM     26  C   UNL     1       2.727   2.323  17.772  0.00  0.00    +0.000 A 
ATOM     27  C   UNL     1       1.767   3.077  18.429  0.00  0.00    +0.000 A 
ATOM     28 CL   UNL     1       0.449   2.292  19.208  0.00  0.00    +0.000 Cl
ATOM     29  C   UNL     1       1.872   4.466  18.477  0.00  0.00    +0.000 A 
ATOM     30  C   UNL     1       2.965   5.130  17.883  0.00  0.00    +0.000 A 
ENDBRANCH  17  18
ENDBRANCH  16  17
ENDBRANCH   2  16
TORSDOF 8
ENDMDL
MODEL 8
REMARK VINA RESULT:      -7.4      5.078      9.057
REMARK  Name = 
REMARK  10 active torsions:
REMARK  status: ('A' for Active; 'I' for Inactive)
REMARK    1  A    between atoms: C_1  and  C_2
REMARK    2  A    between atoms: C_2  and  C_3
REMARK    3  A    between atoms: N_8  and  C_9
REMARK    4  A    between atoms: C_9  and  C_10
REMARK    5  A    between atoms: C_10  and  C_11
REMARK    6  A    between atoms: C_11  and  N_12
REMARK    7  A    between atoms: C_13  and  C_15
REMARK    8  A    between atoms: C_15  and  S_16
REMARK    9  A    between atoms: S_16  and  C_17
REMARK   10  A    between atoms: N_21  and  C_22
REMARK                            x       y       z     vdW  Elec       q    Type
REMARK                         _______ _______ _______ _____ _____    ______ ____
ROOT
ATOM      1  N   UNL     1       0.831   9.667  19.763  0.00  0.00    +0.000 N 
ATOM      2  C   UNL     1       1.266   8.660  20.606  0.00  0.00    +0.000 C 
ATOM      3  O   UNL     1       0.948   8.615  21.787  0.00  0.00    +0.000 OA
ATOM      4  H   UNL     1       1.110   9.641  18.788  0.00  0.00    +0.000 HD
ENDROOT
BRANCH   1   5
ATOM      5  C   UNL     1       0.054  10.771  20.281  0.00  0.00    +0.000 C 
BRANCH   5   6
ATOM      6  C   UNL     1      -0.402  11.721  19.183  0.00  0.00    +0.000 C 
BRANCH   6   7
ATOM      7  C   UNL     1      -1.407  11.028  18.247  0.00  0.00    +0.000 C 
BRANCH   7  13
ATOM      8  C   UNL     1      -3.592  11.109  17.102  0.00  0.00    +0.000 C 
ATOM      9  C   UNL     1      -4.974  11.805  17.038  0.00  0.00    +0.000 C 
ATOM     10  C   UNL     1      -5.642  11.938  18.395  0.00  0.00    +0.000 C 
ATOM     11  C   UNL     1      -4.683  12.595  19.365  0.00  0.00    +0.000 C 
ATOM     12  C   UNL     1      -3.375  11.819  19.427  0.00  0.00    +0.000 C 
ATOM     13  N   UNL     1      -2.700  11.746  18.115  0.00  0.00    +0.000 NA
BRANCH   8  15
ATOM     14  C   UNL     1      -2.959   9.694  15.025  0.00  0.00    +0.000 C 
ATOM     15  C   UNL     1      -3.000  11.079  15.666  0.00  0.00    +0.000 C 
ENDBRANCH   8  15
ENDBRANCH   7  13
ENDBRANCH   6   7
ENDBRANCH   5   6
ENDBRANCH   1   5
BRANCH   2  16
ATOM     16  C   UNL     1       2.107   7.560  19.943  0.00  0.00    +0.000 C 
BRANCH  16  17
ATOM     17  S   UNL     1       2.060   7.745  18.126  0.00  0.00    +0.000 S 
BRANCH  17  18
ATOM     18  C   UNL     1       3.375   6.755  17.592  0.00  0.00    +0.000 A 
ATOM     19  C   UNL     1       4.548   7.332  17.307  0.00  0.00    +0.000 A 
ATOM     20  C   UNL     1       5.770   6.552  17.040  0.00  0.00    +0.000 A 
ATOM     21  O   UNL     1       6.802   7.170  16.775  0.00  0.00    +0.000 OA
ATOM     22  N   UNL     1       5.679   5.173  17.133  0.00  0.00    +0.000 N 
ATOM     23  C   UNL     1       6.887   4.394  16.901  0.00  0.00    +0.000 C 
ATOM     24  C   UNL     1       4.456   4.517  17.474  0.00  0.00    +0.000 A 
ATOM     25  C   UNL     1       4.403   3.119  17.628  0.00  0.00    +0.000 A 
ATOM     26  C   UNL     1       3.221   2.481  18.003  0.00  0.00    +0.000 A 
ATOM     27  C   UNL     1       2.070   3.229  18.193  0.00  0.00    +0.000 A 
ATOM     28 CL   UNL     1       0.610   2.446  18.657  0.00  0.00    +0.000 Cl
ATOM     29  C   UNL     1       2.092   4.612  18.027  0.00  0.00    +0.000 A 
ATOM     30  C   UNL     1       3.286   5.282  17.689  0.00  0.00    +0.000 A 
ENDBRANCH  17  18
ENDBRANCH  16  17
ENDBRANCH   2  16
TORSDOF 8
ENDMDL
MODEL 9
REMARK VINA RESULT:      -7.4      5.185      7.199
REMARK  Name = 
REMARK  10 active torsions:
REMARK  status: ('A' for Active; 'I' for Inactive)
REMARK    1  A    between atoms: C_1  and  C_2
REMARK    2  A    between atoms: C_2  and  C_3
REMARK    3  A    between atoms: N_8  and  C_9
REMARK    4  A    between atoms: C_9  and  C_10
REMARK    5  A    between atoms: C_10  and  C_11
REMARK    6  A    between atoms: C_11  and  N_12
REMARK    7  A    between atoms: C_13  and  C_15
REMARK    8  A    between atoms: C_15  and  S_16
REMARK    9  A    between atoms: S_16  and  C_17
REMARK   10  A    between atoms: N_21  and  C_22
REMARK                            x       y       z     vdW  Elec       q    Type
REMARK                         _______ _______ _______ _____ _____    ______ ____
ROOT
ATOM      1  N   UNL     1      -0.415   9.832  21.966  0.00  0.00    +0.000 N 
ATOM      2  C   UNL     1       0.788   9.154  22.058  0.00  0.00    +0.000 C 
ATOM      3  O   UNL     1       1.762   9.630  22.625  0.00  0.00    +0.000 OA
ATOM      4  H   UNL     1      -1.195   9.379  21.502  0.00  0.00    +0.000 HD
ENDROOT
BRANCH   1   5
ATOM      5  C   UNL     1      -0.533  11.186  22.459  0.00  0.00    +0.000 C 
BRANCH   5   6
ATOM      6  C   UNL     1      -1.702  11.930  21.830  0.00  0.00    +0.000 C 
BRANCH   6   7
ATOM      7  C   UNL     1      -1.261  12.642  20.538  0.00  0.00    +0.000 C 
BRANCH   7  13
ATOM      8  C   UNL     1       0.216  11.694  18.803  0.00  0.00    +0.000 C 
ATOM      9  C   UNL     1       1.683  11.481  18.353  0.00  0.00    +0.000 C 
ATOM     10  C   UNL     1       2.523  12.744  18.426  0.00  0.00    +0.000 C 
ATOM     11  C   UNL     1       2.400  13.350  19.808  0.00  0.00    +0.000 C 
ATOM     12  C   UNL     1       0.938  13.595  20.154  0.00  0.00    +0.000 C 
ATOM     13  N   UNL     1       0.140  12.351  20.140  0.00  0.00    +0.000 NA
BRANCH   8  15
ATOM     14  C   UNL     1      -1.655  10.271  17.713  0.00  0.00    +0.000 C 
ATOM     15  C   UNL     1      -0.515  10.325  18.726  0.00  0.00    +0.000 C 
ENDBRANCH   8  15
ENDBRANCH   7  13
ENDBRANCH   6   7
ENDBRANCH   5   6
ENDBRANCH   1   5
BRANCH   2  16
ATOM     16  C   UNL     1       0.794   7.736  21.472  0.00  0.00    +0.000 C 
BRANCH  16  17
ATOM     17  S   UNL     1       1.945   7.646  20.057  0.00  0.00    +0.000 S 
BRANCH  17  18
ATOM     18  C   UNL     1       2.260   5.951  19.908  0.00  0.00    +0.000 A 
ATOM     19  C   UNL     1       1.566   5.092  20.665  0.00  0.00    +0.000 A 
ATOM     20  C   UNL     1       1.625   3.634  20.464  0.00  0.00    +0.000 A 
ATOM     21  O   UNL     1       0.960   2.920  21.217  0.00  0.00    +0.000 OA
ATOM     22  N   UNL     1       2.405   3.165  19.420  0.00  0.00    +0.000 N 
ATOM     23  C   UNL     1       2.447   1.728  19.193  0.00  0.00    +0.000 C 
ATOM     24  C   UNL     1       3.131   4.048  18.562  0.00  0.00    +0.000 A 
ATOM     25  C   UNL     1       3.864   3.554  17.468  0.00  0.00    +0.000 A 
ATOM     26  C   UNL     1       4.538   4.417  16.604  0.00  0.00    +0.000 A 
ATOM     27  C   UNL     1       4.516   5.782  16.846  0.00  0.00    +0.000 A 
ATOM     28 CL   UNL     1       5.344   6.851  15.782  0.00  0.00    +0.000 Cl
ATOM     29  C   UNL     1       3.813   6.294  17.935  0.00  0.00    +0.000 A 
ATOM     30  C   UNL     1       3.092   5.442  18.796  0.00  0.00    +0.000 A 
ENDBRANCH  17  18
ENDBRANCH  16  17
ENDBRANCH   2  16
TORSDOF 8
ENDMDL
