MODEL 1
REMARK VINA RESULT:      -8.0      0.000      0.000
REMARK  Name = 
REMARK  8 active torsions:
REMARK  status: ('A' for Active; 'I' for Inactive)
REMARK    1  A    between atoms: C_1  and  O_2
REMARK    2  A    between atoms: O_2  and  C_3
REMARK    3  A    between atoms: C_8  and  N_9
REMARK    4  A    between atoms: N_12  and  C_13
REMARK    5  A    between atoms: C_13  and  C_14
REMARK    6  A    between atoms: C_14  and  C_15
REMARK    7  A    between atoms: C_15  and  N_16
REMARK    8  A    between atoms: C_17  and  C_19
REMARK                            x       y       z     vdW  Elec       q    Type
REMARK                         _______ _______ _______ _____ _____    ______ ____
ROOT
ATOM      1  N   UNL     1       4.829   4.961  18.261  0.00  0.00    +0.000 N 
ATOM      2  C   UNL     1       6.128   4.486  18.747  0.00  0.00    +0.000 C 
ATOM      3  C   UNL     1       7.193   4.713  17.654  0.00  0.00    +0.000 C 
ATOM      4  N   UNL     1       7.321   6.126  17.210  0.00  0.00    +0.000 NA
ATOM      5  C   UNL     1       5.982   6.594  16.779  0.00  0.00    +0.000 C 
ATOM      6  C   UNL     1       4.824   6.355  17.786  0.00  0.00    +0.000 C 
ENDROOT
BRANCH   1  12
ATOM      7  C   UNL     1       2.423   4.627  18.782  0.00  0.00    +0.000 A 
ATOM      8  C   UNL     1       1.313   3.762  18.798  0.00  0.00    +0.000 A 
ATOM      9  C   UNL     1       1.413   2.461  18.315  0.00  0.00    +0.000 A 
ATOM     10  C   UNL     1       2.625   2.009  17.817  0.00  0.00    +0.000 A 
ATOM     11  C   UNL     1       3.732   2.861  17.805  0.00  0.00    +0.000 A 
ATOM     12  C   UNL     1       3.680   4.185  18.289  0.00  0.00    +0.000 A 
BRANCH   7  14
ATOM     13  C   UNL     1       1.839   5.912  20.689  0.00  0.00    +0.000 C 
ATOM     14  O   UNL     1       2.340   5.879  19.355  0.00  0.00    +0.000 OA
ENDBRANCH   7  14
ENDBRANCH   1  12
BRANCH   4  15
ATOM     15  C   UNL     1       7.887   7.011  18.239  0.00  0.00    +0.000 C 
BRANCH  15  16
ATOM     16  C   UNL     1       8.115   8.440  17.740  0.00  0.00    +0.000 C 
BRANCH  16  17
ATOM     17  C   UNL     1       8.705   9.331  18.829  0.00  0.00    +0.000 C 
BRANCH  17  18
ATOM     18  N   UNL     1       9.117  10.607  18.287  0.00  0.00    +0.000 N 
ATOM     19  C   UNL     1       9.806  11.529  19.031  0.00  0.00    +0.000 C 
ATOM     20  O   UNL     1      10.121  11.329  20.201  0.00  0.00    +0.000 OA
ATOM     21  H   UNL     1       8.909  10.797  17.316  0.00  0.00    +0.000 HD
BRANCH  19  22
ATOM     22  C   UNL     1      10.248  12.779  18.345  0.00  0.00    +0.000 A 
ATOM     23  C   UNL     1      11.294  12.598  17.417  0.00  0.00    +0.000 A 
ATOM     24  C   UNL     1      11.815  13.667  16.688  0.00  0.00    +0.000 A 
ATOM     25  C   UNL     1      11.299  14.942  16.874  0.00  0.00    +0.000 A 
ATOM     26  C   UNL     1      10.268  15.146  17.791  0.00  0.00    +0.000 A 
ATOM     27  C   UNL     1       9.738  14.076  18.534  0.00  0.00    +0.000 A 
ATOM     28  I   UNL     1       8.251  14.629  19.919  0.00  0.00    +0.000 I 
ENDBRANCH  19  22
ENDBRANCH  17  18
ENDBRANCH  16  17
ENDBRANCH  15  16
ENDBRANCH   4  15
TORSDOF 7
ENDMDL
MODEL 2
REMARK VINA RESULT:      -7.7      1.162      1.911
REMARK  Name = 
REMARK  8 active torsions:
REMARK  status: ('A' for Active; 'I' for Inactive)
REMARK    1  A    between atoms: C_1  and  O_2
REMARK    2  A    between atoms: O_2  and  C_3
REMARK    3  A    between atoms: C_8  and  N_9
REMARK    4  A    between atoms: N_12  and  C_13
REMARK    5  A    between atoms: C_13  and  C_14
REMARK    6  A    between atoms: C_14  and  C_15
REMARK    7  A    between atoms: C_15  and  N_16
REMARK    8  A    between atoms: C_17  and  C_19
REMARK                            x       y       z     vdW  Elec       q    Type
REMARK                         _______ _______ _______ _____ _____    ______ ____
ROOT
ATOM      1  N   UNL     1       4.419   5.177  18.620  0.00  0.00    +0.000 N 
ATOM      2  C   UNL     1       5.659   4.399  18.534  0.00  0.00    +0.000 C 
ATOM      3  C   UNL     1       6.229   4.508  17.105  0.00  0.00    +0.000 C 
ATOM      4  N   UNL     1       6.491   5.901  16.656  0.00  0.00    +0.000 NA
ATOM      5  C   UNL     1       5.236   6.676  16.809  0.00  0.00    +0.000 C 
ATOM      6  C   UNL     1       4.547   6.583  18.196  0.00  0.00    +0.000 C 
ENDROOT
BRANCH   1  12
ATOM      7  C   UNL     1       2.676   3.409  18.708  0.00  0.00    +0.000 A 
ATOM      8  C   UNL     1       1.447   2.969  19.232  0.00  0.00    +0.000 A 
ATOM      9  C   UNL     1       0.752   3.733  20.166  0.00  0.00    +0.000 A 
ATOM     10  C   UNL     1       1.276   4.947  20.579  0.00  0.00    +0.000 A 
ATOM     11  C   UNL     1       2.493   5.393  20.057  0.00  0.00    +0.000 A 
ATOM     12  C   UNL     1       3.229   4.656  19.106  0.00  0.00    +0.000 A 
BRANCH   7  14
ATOM     13  C   UNL     1       3.708   1.372  18.063  0.00  0.00    +0.000 C 
ATOM     14  O   UNL     1       3.306   2.694  17.710  0.00  0.00    +0.000 OA
ENDBRANCH   7  14
ENDBRANCH   1  12
BRANCH   4  15
ATOM     15  C   UNL     1       7.602   6.545  17.374  0.00  0.00    +0.000 C 
BRANCH  15  16
ATOM     16  C   UNL     1       7.523   8.074  17.353  0.00  0.00    +0.000 C 
BRANCH  16  17
ATOM     17  C   UNL     1       8.304   8.696  18.507  0.00  0.00    +0.000 C 
BRANCH  17  18
ATOM     18  N   UNL     1       8.783  10.014  18.156  0.00  0.00    +0.000 N 
ATOM     19  C   UNL     1       9.436  10.817  19.054  0.00  0.00    +0.000 C 
ATOM     20  O   UNL     1       9.662  10.466  20.209  0.00  0.00    +0.000 OA
ATOM     21  H   UNL     1       8.649  10.328  17.204  0.00  0.00    +0.000 HD
BRANCH  19  22
ATOM     22  C   UNL     1       9.954  12.128  18.560  0.00  0.00    +0.000 A 
ATOM     23  C   UNL     1      10.786  12.036  17.425  0.00  0.00    +0.000 A 
ATOM     24  C   UNL     1      11.344  13.171  16.837  0.00  0.00    +0.000 A 
ATOM     25  C   UNL     1      11.081  14.424  17.375  0.00  0.00    +0.000 A 
ATOM     26  C   UNL     1      10.266  14.538  18.501  0.00  0.00    +0.000 A 
ATOM     27  C   UNL     1       9.701  13.399  19.105  0.00  0.00    +0.000 A 
ATOM     28  I   UNL     1       8.579  13.799  20.840  0.00  0.00    +0.000 I 
ENDBRANCH  19  22
ENDBRANCH  17  18
ENDBRANCH  16  17
ENDBRANCH  15  16
ENDBRANCH   4  15
TORSDOF 7
ENDMDL
MODEL 3
REMARK VINA RESULT:      -7.5      1.937      2.674
REMARK  Name = 
REMARK  8 active torsions:
REMARK  status: ('A' for Active; 'I' for Inactive)
REMARK    1  A    between atoms: C_1  and  O_2
REMARK    2  A    between atoms: O_2  and  C_3
REMARK    3  A    between atoms: C_8  and  N_9
REMARK    4  A    between atoms: N_12  and  C_13
REMARK    5  A    between atoms: C_13  and  C_14
REMARK    6  A    between atoms: C_14  and  C_15
REMARK    7  A    between atoms: C_15  and  N_16
REMARK    8  A    between atoms: C_17  and  C_19
REMARK                            x       y       z     vdW  Elec       q    Type
REMARK                         _______ _______ _______ _____ _____    ______ ____
ROOT
ATOM      1  N   UNL     1       4.673   4.754  18.196  0.00  0.00    +0.000 N 
ATOM      2  C   UNL     1       5.204   5.780  19.097  0.00  0.00    +0.000 C 
ATOM      3  C   UNL     1       6.724   5.570  19.268  0.00  0.00    +0.000 C 
ATOM      4  N   UNL     1       7.490   5.590  17.994  0.00  0.00    +0.000 NA
ATOM      5  C   UNL     1       6.893   4.583  17.083  0.00  0.00    +0.000 C 
ATOM      6  C   UNL     1       5.355   4.670  16.892  0.00  0.00    +0.000 C 
ENDROOT
BRANCH   1  12
ATOM      7  C   UNL     1       3.626   2.868  19.429  0.00  0.00    +0.000 A 
ATOM      8  C   UNL     1       2.479   2.091  19.673  0.00  0.00    +0.000 A 
ATOM      9  C   UNL     1       1.273   2.378  19.041  0.00  0.00    +0.000 A 
ATOM     10  C   UNL     1       1.203   3.439  18.153  0.00  0.00    +0.000 A 
ATOM     11  C   UNL     1       2.340   4.210  17.902  0.00  0.00    +0.000 A 
ATOM     12  C   UNL     1       3.585   3.955  18.515  0.00  0.00    +0.000 A 
BRANCH   7  14
ATOM     13  C   UNL     1       4.809   1.399  20.870  0.00  0.00    +0.000 C 
ATOM     14  O   UNL     1       4.840   2.515  19.983  0.00  0.00    +0.000 OA
ENDBRANCH   7  14
ENDBRANCH   1  12
BRANCH   4  15
ATOM     15  C   UNL     1       7.533   6.917  17.361  0.00  0.00    +0.000 C 
BRANCH  15  16
ATOM     16  C   UNL     1       8.260   7.963  18.210  0.00  0.00    +0.000 C 
BRANCH  16  17
ATOM     17  C   UNL     1       8.141   9.360  17.610  0.00  0.00    +0.000 C 
BRANCH  17  18
ATOM     18  N   UNL     1       8.455  10.374  18.593  0.00  0.00    +0.000 N 
ATOM     19  C   UNL     1       9.593  11.134  18.520  0.00  0.00    +0.000 C 
ATOM     20  O   UNL     1      10.413  11.008  17.615  0.00  0.00    +0.000 OA
ATOM     21  H   UNL     1       7.789  10.534  19.336  0.00  0.00    +0.000 HD
BRANCH  19  22
ATOM     22  C   UNL     1       9.776  12.203  19.547  0.00  0.00    +0.000 A 
ATOM     23  C   UNL     1       9.331  11.853  20.839  0.00  0.00    +0.000 A 
ATOM     24  C   UNL     1       9.439  12.740  21.910  0.00  0.00    +0.000 A 
ATOM     25  C   UNL     1       9.993  13.997  21.711  0.00  0.00    +0.000 A 
ATOM     26  C   UNL     1      10.434  14.366  20.440  0.00  0.00    +0.000 A 
ATOM     27  C   UNL     1      10.327  13.482  19.351  0.00  0.00    +0.000 A 
ATOM     28  I   UNL     1      10.974  14.280  17.514  0.00  0.00    +0.000 I 
ENDBRANCH  19  22
ENDBRANCH  17  18
ENDBRANCH  16  17
ENDBRANCH  15  16
ENDBRANCH   4  15
TORSDOF 7
ENDMDL
MODEL 4
REMARK VINA RESULT:      -7.3      4.882      7.845
REMARK  Name = 
REMARK  8 active torsions:
REMARK  status: ('A' for Active; 'I' for Inactive)
REMARK    1  A    between atoms: C_1  and  O_2
REMARK    2  A    between atoms: O_2  and  C_3
REMARK    3  A    between atoms: C_8  and  N_9
REMARK    4  A    between atoms: N_12  and  C_13
REMARK    5  A    between atoms: C_13  and  C_14
REMARK    6  A    between atoms: C_14  and  C_15
REMARK    7  A    between atoms: C_15  and  N_16
REMARK    8  A    between atoms: C_17  and  C_19
REMARK                            x       y       z     vdW  Elec       q    Type
REMARK                         _______ _______ _______ _____ _____    ______ ____
ROOT
ATOM      1  N   UNL     1       4.478   4.975  17.921  0.00  0.00    +0.000 N 
ATOM      2  C   UNL     1       3.255   5.783  17.949  0.00  0.00    +0.000 C 
ATOM      3  C   UNL     1       2.071   4.899  18.392  0.00  0.00    +0.000 C 
ATOM      4  N   UNL     1       2.258   4.245  19.714  0.00  0.00    +0.000 NA
ATOM      5  C   UNL     1       3.529   3.482  19.673  0.00  0.00    +0.000 C 
ATOM      6  C   UNL     1       4.774   4.267  19.179  0.00  0.00    +0.000 C 
ENDROOT
BRANCH   1  12
ATOM      7  C   UNL     1       6.469   5.729  16.641  0.00  0.00    +0.000 A 
ATOM      8  C   UNL     1       7.253   5.618  15.478  0.00  0.00    +0.000 A 
ATOM      9  C   UNL     1       6.936   4.695  14.486  0.00  0.00    +0.000 A 
ATOM     10  C   UNL     1       5.828   3.879  14.643  0.00  0.00    +0.000 A 
ATOM     11  C   UNL     1       5.041   3.989  15.792  0.00  0.00    +0.000 A 
ATOM     12  C   UNL     1       5.320   4.912  16.821  0.00  0.00    +0.000 A 
BRANCH   7  14
ATOM     13  C   UNL     1       7.782   6.423  18.491  0.00  0.00    +0.000 C 
ATOM     14  O   UNL     1       6.733   6.713  17.571  0.00  0.00    +0.000 OA
ENDBRANCH   7  14
ENDBRANCH   1  12
BRANCH   4  15
ATOM     15  C   UNL     1       2.243   5.191  20.840  0.00  0.00    +0.000 C 
BRANCH  15  16
ATOM     16  C   UNL     1       1.185   6.287  20.688  0.00  0.00    +0.000 C 
BRANCH  16  17
ATOM     17  C   UNL     1       1.791   7.681  20.825  0.00  0.00    +0.000 C 
BRANCH  17  18
ATOM     18  N   UNL     1       0.891   8.689  20.312  0.00  0.00    +0.000 N 
ATOM     19  C   UNL     1       1.082   9.286  19.093  0.00  0.00    +0.000 C 
ATOM     20  O   UNL     1       2.024   9.000  18.359  0.00  0.00    +0.000 OA
ATOM     21  H   UNL     1       0.083   8.929  20.870  0.00  0.00    +0.000 HD
BRANCH  19  22
ATOM     22  C   UNL     1       0.048  10.259  18.631  0.00  0.00    +0.000 A 
ATOM     23  C   UNL     1      -0.934   9.707  17.781  0.00  0.00    +0.000 A 
ATOM     24  C   UNL     1      -1.973  10.483  17.269  0.00  0.00    +0.000 A 
ATOM     25  C   UNL     1      -2.052  11.830  17.597  0.00  0.00    +0.000 A 
ATOM     26  C   UNL     1      -1.089  12.398  18.431  0.00  0.00    +0.000 A 
ATOM     27  C   UNL     1      -0.034  11.626  18.950  0.00  0.00    +0.000 A 
ATOM     28  I   UNL     1       1.348  12.708  20.112  0.00  0.00    +0.000 I 
ENDBRANCH  19  22
ENDBRANCH  17  18
ENDBRANCH  16  17
ENDBRANCH  15  16
ENDBRANCH   4  15
TORSDOF 7
ENDMDL
MODEL 5
REMARK VINA RESULT:      -7.3      1.905      2.906
REMARK  Name = 
REMARK  8 active torsions:
REMARK  status: ('A' for Active; 'I' for Inactive)
REMARK    1  A    between atoms: C_1  and  O_2
REMARK    2  A    between atoms: O_2  and  C_3
REMARK    3  A    between atoms: C_8  and  N_9
REMARK    4  A    between atoms: N_12  and  C_13
REMARK    5  A    between atoms: C_13  and  C_14
REMARK    6  A    between atoms: C_14  and  C_15
REMARK    7  A    between atoms: C_15  and  N_16
REMARK    8  A    between atoms: C_17  and  C_19
REMARK                            x       y       z     vdW  Elec       q    Type
REMARK                         _______ _______ _______ _____ _____    ______ ____
ROOT
ATOM      1  N   UNL     1       4.143   5.136  18.564  0.00  0.00    +0.000 N 
ATOM      2  C   UNL     1       5.248   5.690  19.352  0.00  0.00    +0.000 C 
ATOM      3  C   UNL     1       6.588   5.225  18.743  0.00  0.00    +0.000 C 
ATOM      4  N   UNL     1       6.771   5.594  17.314  0.00  0.00    +0.000 NA
ATOM      5  C   UNL     1       5.609   5.071  16.554  0.00  0.00    +0.000 C 
ATOM      6  C   UNL     1       4.210   5.431  17.122  0.00  0.00    +0.000 C 
ENDROOT
BRANCH   1  12
ATOM      7  C   UNL     1       2.845   3.049  18.923  0.00  0.00    +0.000 A 
ATOM      8  C   UNL     1       1.732   2.421  19.512  0.00  0.00    +0.000 A 
ATOM      9  C   UNL     1       0.854   3.134  20.323  0.00  0.00    +0.000 A 
ATOM     10  C   UNL     1       1.076   4.483  20.548  0.00  0.00    +0.000 A 
ATOM     11  C   UNL     1       2.175   5.114  19.960  0.00  0.00    +0.000 A 
ATOM     12  C   UNL     1       3.088   4.434  19.127  0.00  0.00    +0.000 A 
BRANCH   7  14
ATOM     13  C   UNL     1       3.963   1.018  18.414  0.00  0.00    +0.000 C 
ATOM     14  O   UNL     1       3.650   2.359  18.041  0.00  0.00    +0.000 OA
ENDBRANCH   7  14
ENDBRANCH   1  12
BRANCH   4  15
ATOM     15  C   UNL     1       6.935   7.041  17.103  0.00  0.00    +0.000 C 
BRANCH  15  16
ATOM     16  C   UNL     1       7.921   7.681  18.083  0.00  0.00    +0.000 C 
BRANCH  16  17
ATOM     17  C   UNL     1       8.431   9.026  17.573  0.00  0.00    +0.000 C 
BRANCH  17  18
ATOM     18  N   UNL     1       8.578   9.969  18.660  0.00  0.00    +0.000 N 
ATOM     19  C   UNL     1       9.526  10.959  18.645  0.00  0.00    +0.000 C 
ATOM     20  O   UNL     1      10.305  11.111  17.708  0.00  0.00    +0.000 OA
ATOM     21  H   UNL     1       7.933   9.900  19.435  0.00  0.00    +0.000 HD
BRANCH  19  22
ATOM     22  C   UNL     1       9.536  11.922  19.786  0.00  0.00    +0.000 A 
ATOM     23  C   UNL     1       9.148  11.367  21.023  0.00  0.00    +0.000 A 
ATOM     24  C   UNL     1       9.112  12.134  22.186  0.00  0.00    +0.000 A 
ATOM     25  C   UNL     1       9.463  13.476  22.137  0.00  0.00    +0.000 A 
ATOM     26  C   UNL     1       9.845  14.048  20.923  0.00  0.00    +0.000 A 
ATOM     27  C   UNL     1       9.881  13.285  19.742  0.00  0.00    +0.000 A 
ATOM     28  I   UNL     1      10.400  14.373  18.016  0.00  0.00    +0.000 I 
ENDBRANCH  19  22
ENDBRANCH  17  18
ENDBRANCH  16  17
ENDBRANCH  15  16
ENDBRANCH   4  15
TORSDOF 7
ENDMDL
MODEL 6
REMARK VINA RESULT:      -7.2      1.370      1.730
REMARK  Name = 
REMARK  8 active torsions:
REMARK  status: ('A' for Active; 'I' for Inactive)
REMARK    1  A    between atoms: C_1  and  O_2
REMARK    2  A    between atoms: O_2  and  C_3
REMARK    3  A    between atoms: C_8  and  N_9
REMARK    4  A    between atoms: N_12  and  C_13
REMARK    5  A    between atoms: C_13  and  C_14
REMARK    6  A    between atoms: C_14  and  C_15
REMARK    7  A    between atoms: C_15  and  N_16
REMARK    8  A    between atoms: C_17  and  C_19
REMARK                            x       y       z     vdW  Elec       q    Type
REMARK                         _______ _______ _______ _____ _____    ______ ____
ROOT
ATOM      1  N   UNL     1       4.546   5.251  18.102  0.00  0.00    +0.000 N 
ATOM      2  C   UNL     1       5.611   5.491  19.081  0.00  0.00    +0.000 C 
ATOM      3  C   UNL     1       6.971   5.529  18.354  0.00  0.00    +0.000 C 
ATOM      4  N   UNL     1       7.059   6.547  17.274  0.00  0.00    +0.000 NA
ATOM      5  C   UNL     1       5.937   6.314  16.332  0.00  0.00    +0.000 C 
ATOM      6  C   UNL     1       4.528   6.197  16.972  0.00  0.00    +0.000 C 
ENDROOT
BRANCH   1  12
ATOM      7  C   UNL     1       2.312   4.434  18.816  0.00  0.00    +0.000 A 
ATOM      8  C   UNL     1       1.422   3.351  18.945  0.00  0.00    +0.000 A 
ATOM      9  C   UNL     1       1.770   2.080  18.500  0.00  0.00    +0.000 A 
ATOM     10  C   UNL     1       3.015   1.876  17.927  0.00  0.00    +0.000 A 
ATOM     11  C   UNL     1       3.906   2.944  17.801  0.00  0.00    +0.000 A 
ATOM     12  C   UNL     1       3.599   4.248  18.243  0.00  0.00    +0.000 A 
BRANCH   7  14
ATOM     13  C   UNL     1       1.740   5.679  20.753  0.00  0.00    +0.000 C 
ATOM     14  O   UNL     1       1.996   5.666  19.350  0.00  0.00    +0.000 OA
ENDBRANCH   7  14
ENDBRANCH   1  12
BRANCH   4  15
ATOM     15  C   UNL     1       7.051   7.930  17.775  0.00  0.00    +0.000 C 
BRANCH  15  16
ATOM     16  C   UNL     1       8.368   8.667  17.518  0.00  0.00    +0.000 C 
BRANCH  16  17
ATOM     17  C   UNL     1       8.905   9.323  18.787  0.00  0.00    +0.000 C 
BRANCH  17  18
ATOM     18  N   UNL     1       8.638  10.745  18.786  0.00  0.00    +0.000 N 
ATOM     19  C   UNL     1       9.457  11.641  18.151  0.00  0.00    +0.000 C 
ATOM     20  O   UNL     1      10.463  11.296  17.538  0.00  0.00    +0.000 OA
ATOM     21  H   UNL     1       7.801  11.068  19.250  0.00  0.00    +0.000 HD
BRANCH  19  22
ATOM     22  C   UNL     1       9.042  13.076  18.152  0.00  0.00    +0.000 A 
ATOM     23  C   UNL     1       7.755  13.312  17.626  0.00  0.00    +0.000 A 
ATOM     24  C   UNL     1       7.218  14.597  17.563  0.00  0.00    +0.000 A 
ATOM     25  C   UNL     1       7.960  15.676  18.025  0.00  0.00    +0.000 A 
ATOM     26  C   UNL     1       9.238  15.467  18.544  0.00  0.00    +0.000 A 
ATOM     27  C   UNL     1       9.791  14.176  18.608  0.00  0.00    +0.000 A 
ATOM     28  I   UNL     1      11.762  14.107  19.344  0.00  0.00    +0.000 I 
ENDBRANCH  19  22
ENDBRANCH  17  18
ENDBRANCH  16  17
ENDBRANCH  15  16
ENDBRANCH   4  15
TORSDOF 7
ENDMDL
MODEL 7
REMARK VINA RESULT:      -7.1      2.467      3.484
REMARK  Name = 
REMARK  8 active torsions:
REMARK  status: ('A' for Active; 'I' for Inactive)
REMARK    1  A    between atoms: C_1  and  O_2
REMARK    2  A    between atoms: O_2  and  C_3
REMARK    3  A    between atoms: C_8  and  N_9
REMARK    4  A    between atoms: N_12  and  C_13
REMARK    5  A    between atoms: C_13  and  C_14
REMARK    6  A    between atoms: C_14  and  C_15
REMARK    7  A    between atoms: C_15  and  N_16
REMARK    8  A    between atoms: C_17  and  C_19
REMARK                            x       y       z     vdW  Elec       q    Type
REMARK                         _______ _______ _______ _____ _____    ______ ____
ROOT
ATOM      1  N   UNL     1       5.242   5.782  18.264  0.00  0.00    +0.000 N 
ATOM      2  C   UNL     1       6.340   5.460  19.181  0.00  0.00    +0.000 C 
ATOM      3  C   UNL     1       7.673   5.479  18.404  0.00  0.00    +0.000 C 
ATOM      4  N   UNL     1       7.965   6.769  17.724  0.00  0.00    +0.000 NA
ATOM      5  C   UNL     1       6.813   7.097  16.849  0.00  0.00    +0.000 C 
ATOM      6  C   UNL     1       5.415   7.043  17.521  0.00  0.00    +0.000 C 
ENDROOT
BRANCH   1  12
ATOM      7  C   UNL     1       4.018   3.841  17.314  0.00  0.00    +0.000 A 
ATOM      8  C   UNL     1       2.814   3.118  17.220  0.00  0.00    +0.000 A 
ATOM      9  C   UNL     1       1.689   3.504  17.942  0.00  0.00    +0.000 A 
ATOM     10  C   UNL     1       1.753   4.621  18.759  0.00  0.00    +0.000 A 
ATOM     11  C   UNL     1       2.943   5.347  18.851  0.00  0.00    +0.000 A 
ATOM     12  C   UNL     1       4.107   4.997  18.135  0.00  0.00    +0.000 A 
BRANCH   7  14
ATOM     13  C   UNL     1       5.161   4.180  15.262  0.00  0.00    +0.000 C 
ATOM     14  O   UNL     1       5.096   3.509  16.519  0.00  0.00    +0.000 OA
ENDBRANCH   7  14
ENDBRANCH   1  12
BRANCH   4  15
ATOM     15  C   UNL     1       8.251   7.869  18.658  0.00  0.00    +0.000 C 
BRANCH  15  16
ATOM     16  C   UNL     1       8.208   9.247  17.992  0.00  0.00    +0.000 C 
BRANCH  16  17
ATOM     17  C   UNL     1       9.339  10.146  18.483  0.00  0.00    +0.000 C 
BRANCH  17  18
ATOM     18  N   UNL     1       8.925  10.914  19.636  0.00  0.00    +0.000 N 
ATOM     19  C   UNL     1       9.827  11.445  20.522  0.00  0.00    +0.000 C 
ATOM     20  O   UNL     1      11.040  11.308  20.389  0.00  0.00    +0.000 OA
ATOM     21  H   UNL     1       7.937  11.080  19.764  0.00  0.00    +0.000 HD
BRANCH  19  22
ATOM     22  C   UNL     1       9.290  12.284  21.634  0.00  0.00    +0.000 A 
ATOM     23  C   UNL     1       8.506  11.580  22.571  0.00  0.00    +0.000 A 
ATOM     24  C   UNL     1       7.937  12.220  23.672  0.00  0.00    +0.000 A 
ATOM     25  C   UNL     1       8.141  13.580  23.858  0.00  0.00    +0.000 A 
ATOM     26  C   UNL     1       8.910  14.298  22.941  0.00  0.00    +0.000 A 
ATOM     27  C   UNL     1       9.484  13.664  21.825  0.00  0.00    +0.000 A 
ATOM     28  I   UNL     1      10.527  14.956  20.530  0.00  0.00    +0.000 I 
ENDBRANCH  19  22
ENDBRANCH  17  18
ENDBRANCH  16  17
ENDBRANCH  15  16
ENDBRANCH   4  15
TORSDOF 7
ENDMDL
MODEL 8
REMARK VINA RESULT:      -7.1      5.685      8.567
REMARK  Name = 
REMARK  8 active torsions:
REMARK  status: ('A' for Active; 'I' for Inactive)
REMARK    1  A    between atoms: C_1  and  O_2
REMARK    2  A    between atoms: O_2  and  C_3
REMARK    3  A    between atoms: C_8  and  N_9
REMARK    4  A    between atoms: N_12  and  C_13
REMARK    5  A    between atoms: C_13  and  C_14
REMARK    6  A    between atoms: C_14  and  C_15
REMARK    7  A    between atoms: C_15  and  N_16
REMARK    8  A    between atoms: C_17  and  C_19
REMARK                            x       y       z     vdW  Elec       q    Type
REMARK                         _______ _______ _______ _____ _____    ______ ____
ROOT
ATOM      1  N   UNL     1       0.958   9.460  18.964  0.00  0.00    +0.000 N 
ATOM      2  C   UNL     1       1.512   8.584  17.926  0.00  0.00    +0.000 C 
ATOM      3  C   UNL     1       2.723   7.820  18.499  0.00  0.00    +0.000 C 
ATOM      4  N   UNL     1       2.419   7.013  19.711  0.00  0.00    +0.000 NA
ATOM      5  C   UNL     1       1.808   7.913  20.719  0.00  0.00    +0.000 C 
ATOM      6  C   UNL     1       0.617   8.776  20.224  0.00  0.00    +0.000 C 
ENDROOT
BRANCH   1  12
ATOM      7  C   UNL     1      -0.561  11.387  18.577  0.00  0.00    +0.000 A 
ATOM      8  C   UNL     1      -0.704  12.770  18.358  0.00  0.00    +0.000 A 
ATOM      9  C   UNL     1       0.405  13.610  18.343  0.00  0.00    +0.000 A 
ATOM     10  C   UNL     1       1.668  13.077  18.538  0.00  0.00    +0.000 A 
ATOM     11  C   UNL     1       1.818  11.704  18.750  0.00  0.00    +0.000 A 
ATOM     12  C   UNL     1       0.724  10.812  18.769  0.00  0.00    +0.000 A 
BRANCH   7  14
ATOM     13  C   UNL     1      -2.045  10.184  17.170  0.00  0.00    +0.000 C 
ATOM     14  O   UNL     1      -1.654  10.549  18.491  0.00  0.00    +0.000 OA
ENDBRANCH   7  14
ENDBRANCH   1  12
BRANCH   4  15
ATOM     15  C   UNL     1       1.552   5.856  19.438  0.00  0.00    +0.000 C 
BRANCH  15  16
ATOM     16  C   UNL     1       1.692   4.744  20.480  0.00  0.00    +0.000 C 
BRANCH  16  17
ATOM     17  C   UNL     1       2.723   3.702  20.059  0.00  0.00    +0.000 C 
BRANCH  17  18
ATOM     18  N   UNL     1       3.466   4.147  18.901  0.00  0.00    +0.000 N 
ATOM     19  C   UNL     1       4.801   3.878  18.742  0.00  0.00    +0.000 C 
ATOM     20  O   UNL     1       5.447   3.237  19.566  0.00  0.00    +0.000 OA
ATOM     21  H   UNL     1       2.964   4.648  18.181  0.00  0.00    +0.000 HD
BRANCH  19  22
ATOM     22  C   UNL     1       5.447   4.321  17.471  0.00  0.00    +0.000 A 
ATOM     23  C   UNL     1       4.824   3.840  16.300  0.00  0.00    +0.000 A 
ATOM     24  C   UNL     1       5.304   4.170  15.033  0.00  0.00    +0.000 A 
ATOM     25  C   UNL     1       6.418   4.988  14.910  0.00  0.00    +0.000 A 
ATOM     26  C   UNL     1       7.054   5.470  16.054  0.00  0.00    +0.000 A 
ATOM     27  C   UNL     1       6.582   5.141  17.337  0.00  0.00    +0.000 A 
ATOM     28  I   UNL     1       7.745   5.907  18.917  0.00  0.00    +0.000 I 
ENDBRANCH  19  22
ENDBRANCH  17  18
ENDBRANCH  16  17
ENDBRANCH  15  16
ENDBRANCH   4  15
TORSDOF 7
ENDMDL
MODEL 9
REMARK VINA RESULT:      -7.1      1.702      2.388
REMARK  Name = 
REMARK  8 active torsions:
REMARK  status: ('A' for Active; 'I' for Inactive)
REMARK    1  A    between atoms: C_1  and  O_2
REMARK    2  A    between atoms: O_2  and  C_3
REMARK    3  A    between atoms: C_8  and  N_9
REMARK    4  A    between atoms: N_12  and  C_13
REMARK    5  A    between atoms: C_13  and  C_14
REMARK    6  A    between atoms: C_14  and  C_15
REMARK    7  A    between atoms: C_15  and  N_16
REMARK    8  A    between atoms: C_17  and  C_19
REMARK                            x       y       z     vdW  Elec       q    Type
REMARK                         _______ _______ _______ _____ _____    ______ ____
ROOT
ATOM      1  N   UNL     1       4.726   5.000  17.834  0.00  0.00    +0.000 N 
ATOM      2  C   UNL     1       5.493   5.721  18.854  0.00  0.00    +0.000 C 
ATOM      3  C   UNL     1       6.998   5.446  18.647  0.00  0.00    +0.000 C 
ATOM      4  N   UNL     1       7.506   5.815  17.300  0.00  0.00    +0.000 NA
ATOM      5  C   UNL     1       6.674   5.117  16.289  0.00  0.00    +0.000 C 
ATOM      6  C   UNL     1       5.139   5.278  16.447  0.00  0.00    +0.000 C 
ENDROOT
BRANCH   1  12
ATOM      7  C   UNL     1       2.552   4.528  18.940  0.00  0.00    +0.000 A 
ATOM      8  C   UNL     1       1.531   3.601  19.219  0.00  0.00    +0.000 A 
ATOM      9  C   UNL     1       1.574   2.311  18.701  0.00  0.00    +0.000 A 
ATOM     10  C   UNL     1       2.641   1.931  17.904  0.00  0.00    +0.000 A 
ATOM     11  C   UNL     1       3.662   2.844  17.629  0.00  0.00    +0.000 A 
ATOM     12  C   UNL     1       3.664   4.160  18.136  0.00  0.00    +0.000 A 
BRANCH   7  14
ATOM     13  C   UNL     1       1.656   5.921  20.639  0.00  0.00    +0.000 C 
ATOM     14  O   UNL     1       2.552   5.771  19.540  0.00  0.00    +0.000 OA
ENDBRANCH   7  14
ENDBRANCH   1  12
BRANCH   4  15
ATOM     15  C   UNL     1       7.523   7.266  17.060  0.00  0.00    +0.000 C 
BRANCH  15  16
ATOM     16  C   UNL     1       8.165   8.055  18.205  0.00  0.00    +0.000 C 
BRANCH  16  17
ATOM     17  C   UNL     1       8.577   9.456  17.764  0.00  0.00    +0.000 C 
BRANCH  17  18
ATOM     18  N   UNL     1       8.493  10.390  18.865  0.00  0.00    +0.000 N 
ATOM     19  C   UNL     1       9.539  11.204  19.213  0.00  0.00    +0.000 C 
ATOM     20  O   UNL     1      10.609  11.196  18.611  0.00  0.00    +0.000 OA
ATOM     21  H   UNL     1       7.617  10.453  19.366  0.00  0.00    +0.000 HD
BRANCH  19  22
ATOM     22  C   UNL     1       9.314  12.183  20.318  0.00  0.00    +0.000 A 
ATOM     23  C   UNL     1       9.135  11.598  21.589  0.00  0.00    +0.000 A 
ATOM     24  C   UNL     1       8.920  12.378  22.725  0.00  0.00    +0.000 A 
ATOM     25  C   UNL     1       8.880  13.761  22.614  0.00  0.00    +0.000 A 
ATOM     26  C   UNL     1       9.050  14.361  21.366  0.00  0.00    +0.000 A 
ATOM     27  C   UNL     1       9.263  13.585  20.212  0.00  0.00    +0.000 A 
ATOM     28  I   UNL     1       9.405  14.695  18.429  0.00  0.00    +0.000 I 
ENDBRANCH  19  22
ENDBRANCH  17  18
ENDBRANCH  16  17
ENDBRANCH  15  16
ENDBRANCH   4  15
TORSDOF 7
ENDMDL
