MODEL 1
REMARK VINA RESULT:      -6.9      0.000      0.000
REMARK  Name = 
REMARK  7 active torsions:
REMARK  status: ('A' for Active; 'I' for Inactive)
REMARK    1  A    between atoms: C_1  and  C_2
REMARK    2  A    between atoms: C_5  and  S_6
REMARK    3  A    between atoms: S_6  and  N_9
REMARK    4  A    between atoms: N_9  and  C_10
REMARK    5  A    between atoms: C_10  and  C_11
REMARK    6  A    between atoms: C_11  and  C_12
REMARK    7  A    between atoms: C_12  and  C_13
REMARK                            x       y       z     vdW  Elec       q    Type
REMARK                         _______ _______ _______ _____ _____    ______ ____
ROOT
ATOM      1  N   UNL     1       4.583   6.027  19.276  0.00  0.00    +0.000 NA
ATOM      2  H   UNL     1       5.175   6.823  19.609  0.00  0.00    +0.000 HD
ENDROOT
BRANCH   1   3
ATOM      3  S   UNL     1       5.684   4.722  18.816  0.00  0.00    +0.000 S 
ATOM      4  O   UNL     1       5.163   3.477  19.549  0.00  0.00    +0.000 OA
ATOM      5  O   UNL     1       6.989   5.018  19.570  0.00  0.00    +0.000 OA
BRANCH   3  10
ATOM      6  C   UNL     1       6.521   3.984  12.825  0.00  0.00    +0.000 C 
ATOM      7  C   UNL     1       6.327   4.163  14.300  0.00  0.00    +0.000 A 
ATOM      8  C   UNL     1       7.237   4.915  15.061  0.00  0.00    +0.000 A 
ATOM      9  C   UNL     1       7.040   5.074  16.436  0.00  0.00    +0.000 A 
ATOM     10  C   UNL     1       5.935   4.484  17.060  0.00  0.00    +0.000 A 
ATOM     11  C   UNL     1       5.024   3.736  16.306  0.00  0.00    +0.000 A 
ATOM     12  C   UNL     1       5.220   3.575  14.932  0.00  0.00    +0.000 A 
ENDBRANCH   3  10
ENDBRANCH   1   3
BRANCH   1  13
ATOM     13  C   UNL     1       3.826   6.455  18.099  0.00  0.00    +0.000 C 
BRANCH  13  14
ATOM     14  C   UNL     1       2.332   6.250  18.350  0.00  0.00    +0.000 C 
BRANCH  14  15
ATOM     15  C   UNL     1       1.825   4.950  17.718  0.00  0.00    +0.000 C 
BRANCH  15  16
ATOM     16  C   UNL     1       1.788   3.866  18.752  0.00  0.00    +0.000 A 
ATOM     17  C   UNL     1       1.882   2.508  18.519  0.00  0.00    +0.000 A 
ATOM     18  N   UNL     1       1.823   1.882  19.706  0.00  0.00    +0.000 N 
ATOM     19  C   UNL     1       1.697   2.861  20.620  0.00  0.00    +0.000 A 
ATOM     20  N   UNL     1       1.608   2.627  22.010  0.00  0.00    +0.000 N 
ATOM     21  N   UNL     1       1.670   4.092  20.076  0.00  0.00    +0.000 NA
ATOM     22  H   UNL     1       1.871   0.853  19.879  0.00  0.00    +0.000 HD
ATOM     23  H   UNL     1       1.639   1.666  22.379  0.00  0.00    +0.000 HD
ATOM     24  H   UNL     1       1.518   3.418  22.664  0.00  0.00    +0.000 HD
ENDBRANCH  15  16
ENDBRANCH  14  15
ENDBRANCH  13  14
ENDBRANCH   1  13
TORSDOF 6
ENDMDL
MODEL 2
REMARK VINA RESULT:      -6.8      2.789      6.137
REMARK  Name = 
REMARK  7 active torsions:
REMARK  status: ('A' for Active; 'I' for Inactive)
REMARK    1  A    between atoms: C_1  and  C_2
REMARK    2  A    between atoms: C_5  and  S_6
REMARK    3  A    between atoms: S_6  and  N_9
REMARK    4  A    between atoms: N_9  and  C_10
REMARK    5  A    between atoms: C_10  and  C_11
REMARK    6  A    between atoms: C_11  and  C_12
REMARK    7  A    between atoms: C_12  and  C_13
REMARK                            x       y       z     vdW  Elec       q    Type
REMARK                         _______ _______ _______ _____ _____    ______ ____
ROOT
ATOM      1  N   UNL     1       5.677   3.917  19.166  0.00  0.00    +0.000 NA
ATOM      2  H   UNL     1       6.206   3.482  18.375  0.00  0.00    +0.000 HD
ENDROOT
BRANCH   1   3
ATOM      3  S   UNL     1       3.977   3.971  18.683  0.00  0.00    +0.000 S 
ATOM      4  O   UNL     1       3.351   2.697  19.269  0.00  0.00    +0.000 OA
ATOM      5  O   UNL     1       3.982   3.667  17.177  0.00  0.00    +0.000 OA
BRANCH   3  10
ATOM      6  C   UNL     1       1.022   9.118  20.063  0.00  0.00    +0.000 C 
ATOM      7  C   UNL     1       1.744   7.853  19.713  0.00  0.00    +0.000 A 
ATOM      8  C   UNL     1       2.388   7.709  18.473  0.00  0.00    +0.000 A 
ATOM      9  C   UNL     1       3.058   6.523  18.163  0.00  0.00    +0.000 A 
ATOM     10  C   UNL     1       3.090   5.472  19.087  0.00  0.00    +0.000 A 
ATOM     11  C   UNL     1       2.453   5.611  20.324  0.00  0.00    +0.000 A 
ATOM     12  C   UNL     1       1.781   6.796  20.636  0.00  0.00    +0.000 A 
ENDBRANCH   3  10
ENDBRANCH   1   3
BRANCH   1  13
ATOM     13  C   UNL     1       6.164   5.282  19.372  0.00  0.00    +0.000 C 
BRANCH  13  14
ATOM     14  C   UNL     1       7.528   5.445  18.702  0.00  0.00    +0.000 C 
BRANCH  14  15
ATOM     15  C   UNL     1       7.473   6.444  17.542  0.00  0.00    +0.000 C 
BRANCH  15  16
ATOM     16  C   UNL     1       6.787   5.818  16.367  0.00  0.00    +0.000 A 
ATOM     17  C   UNL     1       5.583   6.209  15.817  0.00  0.00    +0.000 A 
ATOM     18  N   UNL     1       5.326   5.404  14.772  0.00  0.00    +0.000 N 
ATOM     19  C   UNL     1       6.367   4.555  14.713  0.00  0.00    +0.000 A 
ATOM     20  N   UNL     1       6.493   3.539  13.740  0.00  0.00    +0.000 N 
ATOM     21  N   UNL     1       7.284   4.773  15.674  0.00  0.00    +0.000 NA
ATOM     22  H   UNL     1       4.495   5.438  14.139  0.00  0.00    +0.000 HD
ATOM     23  H   UNL     1       5.767   3.415  13.020  0.00  0.00    +0.000 HD
ATOM     24  H   UNL     1       7.317   2.920  13.740  0.00  0.00    +0.000 HD
ENDBRANCH  15  16
ENDBRANCH  14  15
ENDBRANCH  13  14
ENDBRANCH   1  13
TORSDOF 6
ENDMDL
MODEL 3
REMARK VINA RESULT:      -6.8      5.277      8.322
REMARK  Name = 
REMARK  7 active torsions:
REMARK  status: ('A' for Active; 'I' for Inactive)
REMARK    1  A    between atoms: C_1  and  C_2
REMARK    2  A    between atoms: C_5  and  S_6
REMARK    3  A    between atoms: S_6  and  N_9
REMARK    4  A    between atoms: N_9  and  C_10
REMARK    5  A    between atoms: C_10  and  C_11
REMARK    6  A    between atoms: C_11  and  C_12
REMARK    7  A    between atoms: C_12  and  C_13
REMARK                            x       y       z     vdW  Elec       q    Type
REMARK                         _______ _______ _______ _____ _____    ______ ____
ROOT
ATOM      1  N   UNL     1       7.907   7.113  16.654  0.00  0.00    +0.000 NA
ATOM      2  H   UNL     1       7.563   7.784  15.929  0.00  0.00    +0.000 HD
ENDROOT
BRANCH   1   3
ATOM      3  S   UNL     1       6.872   5.682  16.567  0.00  0.00    +0.000 S 
ATOM      4  O   UNL     1       7.815   4.489  16.787  0.00  0.00    +0.000 OA
ATOM      5  O   UNL     1       6.513   5.541  15.080  0.00  0.00    +0.000 OA
BRANCH   3  10
ATOM      6  C   UNL     1       1.994   5.753  20.217  0.00  0.00    +0.000 C 
ATOM      7  C   UNL     1       3.187   5.735  19.310  0.00  0.00    +0.000 A 
ATOM      8  C   UNL     1       3.213   6.509  18.138  0.00  0.00    +0.000 A 
ATOM      9  C   UNL     1       4.334   6.481  17.304  0.00  0.00    +0.000 A 
ATOM     10  C   UNL     1       5.435   5.683  17.633  0.00  0.00    +0.000 A 
ATOM     11  C   UNL     1       5.414   4.911  18.800  0.00  0.00    +0.000 A 
ATOM     12  C   UNL     1       4.294   4.936  19.635  0.00  0.00    +0.000 A 
ENDBRANCH   3  10
ENDBRANCH   1   3
BRANCH   1  13
ATOM     13  C   UNL     1       7.770   7.727  17.975  0.00  0.00    +0.000 C 
BRANCH  13  14
ATOM     14  C   UNL     1       8.130   9.210  17.889  0.00  0.00    +0.000 C 
BRANCH  14  15
ATOM     15  C   UNL     1       9.070   9.632  19.023  0.00  0.00    +0.000 C 
BRANCH  15  16
ATOM     16  C   UNL     1       9.686  10.959  18.702  0.00  0.00    +0.000 A 
ATOM     17  C   UNL     1      10.880  11.450  19.192  0.00  0.00    +0.000 A 
ATOM     18  N   UNL     1      11.081  12.662  18.651  0.00  0.00    +0.000 N 
ATOM     19  C   UNL     1      10.018  12.878  17.855  0.00  0.00    +0.000 A 
ATOM     20  N   UNL     1       9.841  14.050  17.087  0.00  0.00    +0.000 N 
ATOM     21  N   UNL     1       9.138  11.859  17.860  0.00  0.00    +0.000 NA
ATOM     22  H   UNL     1      11.894  13.298  18.813  0.00  0.00    +0.000 HD
ATOM     23  H   UNL     1      10.546  14.800  17.113  0.00  0.00    +0.000 HD
ATOM     24  H   UNL     1       9.008  14.158  16.490  0.00  0.00    +0.000 HD
ENDBRANCH  15  16
ENDBRANCH  14  15
ENDBRANCH  13  14
ENDBRANCH   1  13
TORSDOF 6
ENDMDL
MODEL 4
REMARK VINA RESULT:      -6.8      5.228      8.121
REMARK  Name = 
REMARK  7 active torsions:
REMARK  status: ('A' for Active; 'I' for Inactive)
REMARK    1  A    between atoms: C_1  and  C_2
REMARK    2  A    between atoms: C_5  and  S_6
REMARK    3  A    between atoms: S_6  and  N_9
REMARK    4  A    between atoms: N_9  and  C_10
REMARK    5  A    between atoms: C_10  and  C_11
REMARK    6  A    between atoms: C_11  and  C_12
REMARK    7  A    between atoms: C_12  and  C_13
REMARK                            x       y       z     vdW  Elec       q    Type
REMARK                         _______ _______ _______ _____ _____    ______ ____
ROOT
ATOM      1  N   UNL     1       7.594   7.112  17.122  0.00  0.00    +0.000 NA
ATOM      2  H   UNL     1       6.704   7.593  16.855  0.00  0.00    +0.000 HD
ENDROOT
BRANCH   1   3
ATOM      3  S   UNL     1       7.177   5.443  17.528  0.00  0.00    +0.000 S 
ATOM      4  O   UNL     1       7.930   5.145  18.833  0.00  0.00    +0.000 OA
ATOM      5  O   UNL     1       7.942   4.583  16.510  0.00  0.00    +0.000 OA
BRANCH   3  10
ATOM      6  C   UNL     1       1.234   4.124  17.807  0.00  0.00    +0.000 C 
ATOM      7  C   UNL     1       2.693   4.459  17.735  0.00  0.00    +0.000 A 
ATOM      8  C   UNL     1       3.182   5.669  18.256  0.00  0.00    +0.000 A 
ATOM      9  C   UNL     1       4.545   5.965  18.182  0.00  0.00    +0.000 A 
ATOM     10  C   UNL     1       5.430   5.058  17.588  0.00  0.00    +0.000 A 
ATOM     11  C   UNL     1       4.949   3.851  17.069  0.00  0.00    +0.000 A 
ATOM     12  C   UNL     1       3.586   3.553  17.141  0.00  0.00    +0.000 A 
ENDBRANCH   3  10
ENDBRANCH   1   3
BRANCH   1  13
ATOM     13  C   UNL     1       8.155   7.769  18.303  0.00  0.00    +0.000 C 
BRANCH  13  14
ATOM     14  C   UNL     1       8.376   9.252  18.006  0.00  0.00    +0.000 C 
BRANCH  14  15
ATOM     15  C   UNL     1       9.143   9.948  19.135  0.00  0.00    +0.000 C 
BRANCH  15  16
ATOM     16  C   UNL     1       9.599  11.300  18.680  0.00  0.00    +0.000 A 
ATOM     17  C   UNL     1      10.575  11.562  17.739  0.00  0.00    +0.000 A 
ATOM     18  N   UNL     1      10.672  12.895  17.606  0.00  0.00    +0.000 N 
ATOM     19  C   UNL     1       9.764  13.405  18.458  0.00  0.00    +0.000 A 
ATOM     20  N   UNL     1       9.538  14.789  18.623  0.00  0.00    +0.000 N 
ATOM     21  N   UNL     1       9.087  12.461  19.137  0.00  0.00    +0.000 NA
ATOM     22  H   UNL     1      11.314  13.420  16.971  0.00  0.00    +0.000 HD
ATOM     23  H   UNL     1      10.079  15.474  18.076  0.00  0.00    +0.000 HD
ATOM     24  H   UNL     1       8.824  15.122  19.287  0.00  0.00    +0.000 HD
ENDBRANCH  15  16
ENDBRANCH  14  15
ENDBRANCH  13  14
ENDBRANCH   1  13
TORSDOF 6
ENDMDL
MODEL 5
REMARK VINA RESULT:      -6.8      2.581      5.962
REMARK  Name = 
REMARK  7 active torsions:
REMARK  status: ('A' for Active; 'I' for Inactive)
REMARK    1  A    between atoms: C_1  and  C_2
REMARK    2  A    between atoms: C_5  and  S_6
REMARK    3  A    between atoms: S_6  and  N_9
REMARK    4  A    between atoms: N_9  and  C_10
REMARK    5  A    between atoms: C_10  and  C_11
REMARK    6  A    between atoms: C_11  and  C_12
REMARK    7  A    between atoms: C_12  and  C_13
REMARK                            x       y       z     vdW  Elec       q    Type
REMARK                         _______ _______ _______ _____ _____    ______ ____
ROOT
ATOM      1  N   UNL     1       4.671   2.858  17.439  0.00  0.00    +0.000 NA
ATOM      2  H   UNL     1       4.566   1.887  17.064  0.00  0.00    +0.000 HD
ENDROOT
BRANCH   1   3
ATOM      3  S   UNL     1       3.930   2.874  19.045  0.00  0.00    +0.000 S 
ATOM      4  O   UNL     1       5.023   2.371  19.998  0.00  0.00    +0.000 OA
ATOM      5  O   UNL     1       2.940   1.699  19.038  0.00  0.00    +0.000 OA
BRANCH   3  10
ATOM      6  C   UNL     1       1.300   8.110  20.716  0.00  0.00    +0.000 C 
ATOM      7  C   UNL     1       1.946   6.819  20.316  0.00  0.00    +0.000 A 
ATOM      8  C   UNL     1       1.429   5.588  20.754  0.00  0.00    +0.000 A 
ATOM      9  C   UNL     1       2.042   4.393  20.370  0.00  0.00    +0.000 A 
ATOM     10  C   UNL     1       3.174   4.416  19.548  0.00  0.00    +0.000 A 
ATOM     11  C   UNL     1       3.692   5.639  19.108  0.00  0.00    +0.000 A 
ATOM     12  C   UNL     1       3.081   6.836  19.491  0.00  0.00    +0.000 A 
ENDBRANCH   3  10
ENDBRANCH   1   3
BRANCH   1  13
ATOM     13  C   UNL     1       3.951   3.786  16.567  0.00  0.00    +0.000 C 
BRANCH  13  14
ATOM     14  C   UNL     1       4.953   4.635  15.785  0.00  0.00    +0.000 C 
BRANCH  14  15
ATOM     15  C   UNL     1       6.395   4.190  16.044  0.00  0.00    +0.000 C 
BRANCH  15  16
ATOM     16  C   UNL     1       6.983   4.998  17.160  0.00  0.00    +0.000 A 
ATOM     17  C   UNL     1       7.275   6.347  17.130  0.00  0.00    +0.000 A 
ATOM     18  N   UNL     1       7.771   6.688  18.331  0.00  0.00    +0.000 N 
ATOM     19  C   UNL     1       7.768   5.553  19.053  0.00  0.00    +0.000 A 
ATOM     20  N   UNL     1       8.210   5.477  20.392  0.00  0.00    +0.000 N 
ATOM     21  N   UNL     1       7.294   4.494  18.371  0.00  0.00    +0.000 NA
ATOM     22  H   UNL     1       8.086   7.636  18.636  0.00  0.00    +0.000 HD
ATOM     23  H   UNL     1       8.559   6.318  20.873  0.00  0.00    +0.000 HD
ATOM     24  H   UNL     1       8.179   4.580  20.898  0.00  0.00    +0.000 HD
ENDBRANCH  15  16
ENDBRANCH  14  15
ENDBRANCH  13  14
ENDBRANCH   1  13
TORSDOF 6
ENDMDL
MODEL 6
REMARK VINA RESULT:      -6.7      1.862      2.335
REMARK  Name = 
REMARK  7 active torsions:
REMARK  status: ('A' for Active; 'I' for Inactive)
REMARK    1  A    between atoms: C_1  and  C_2
REMARK    2  A    between atoms: C_5  and  S_6
REMARK    3  A    between atoms: S_6  and  N_9
REMARK    4  A    between atoms: N_9  and  C_10
REMARK    5  A    between atoms: C_10  and  C_11
REMARK    6  A    between atoms: C_11  and  C_12
REMARK    7  A    between atoms: C_12  and  C_13
REMARK                            x       y       z     vdW  Elec       q    Type
REMARK                         _______ _______ _______ _____ _____    ______ ____
ROOT
ATOM      1  N   UNL     1       5.722   5.888  18.261  0.00  0.00    +0.000 NA
ATOM      2  H   UNL     1       6.044   6.640  18.912  0.00  0.00    +0.000 HD
ENDROOT
BRANCH   1   3
ATOM      3  S   UNL     1       7.058   5.558  17.151  0.00  0.00    +0.000 S 
ATOM      4  O   UNL     1       8.053   4.710  17.958  0.00  0.00    +0.000 OA
ATOM      5  O   UNL     1       7.805   6.895  17.020  0.00  0.00    +0.000 OA
BRANCH   3  10
ATOM      6  C   UNL     1       5.564   3.089  11.784  0.00  0.00    +0.000 C 
ATOM      7  C   UNL     1       5.920   3.699  13.106  0.00  0.00    +0.000 A 
ATOM      8  C   UNL     1       5.154   3.433  14.253  0.00  0.00    +0.000 A 
ATOM      9  C   UNL     1       5.500   4.009  15.478  0.00  0.00    +0.000 A 
ATOM     10  C   UNL     1       6.613   4.853  15.568  0.00  0.00    +0.000 A 
ATOM     11  C   UNL     1       7.381   5.119  14.429  0.00  0.00    +0.000 A 
ATOM     12  C   UNL     1       7.036   4.545  13.203  0.00  0.00    +0.000 A 
ENDBRANCH   3  10
ENDBRANCH   1   3
BRANCH   1  13
ATOM     13  C   UNL     1       4.572   6.377  17.499  0.00  0.00    +0.000 C 
BRANCH  13  14
ATOM     14  C   UNL     1       3.317   6.312  18.369  0.00  0.00    +0.000 C 
BRANCH  14  15
ATOM     15  C   UNL     1       2.420   5.132  17.982  0.00  0.00    +0.000 C 
BRANCH  15  16
ATOM     16  C   UNL     1       3.086   3.845  18.360  0.00  0.00    +0.000 A 
ATOM     17  C   UNL     1       3.042   2.660  17.653  0.00  0.00    +0.000 A 
ATOM     18  N   UNL     1       3.779   1.755  18.319  0.00  0.00    +0.000 N 
ATOM     19  C   UNL     1       4.247   2.403  19.401  0.00  0.00    +0.000 A 
ATOM     20  N   UNL     1       5.080   1.805  20.371  0.00  0.00    +0.000 N 
ATOM     21  N   UNL     1       3.844   3.686  19.465  0.00  0.00    +0.000 NA
ATOM     22  H   UNL     1       3.953   0.761  18.048  0.00  0.00    +0.000 HD
ATOM     23  H   UNL     1       5.367   0.820  20.276  0.00  0.00    +0.000 HD
ATOM     24  H   UNL     1       5.414   2.353  21.178  0.00  0.00    +0.000 HD
ENDBRANCH  15  16
ENDBRANCH  14  15
ENDBRANCH  13  14
ENDBRANCH   1  13
TORSDOF 6
ENDMDL
MODEL 7
REMARK VINA RESULT:      -6.7      2.063      4.004
REMARK  Name = 
REMARK  7 active torsions:
REMARK  status: ('A' for Active; 'I' for Inactive)
REMARK    1  A    between atoms: C_1  and  C_2
REMARK    2  A    between atoms: C_5  and  S_6
REMARK    3  A    between atoms: S_6  and  N_9
REMARK    4  A    between atoms: N_9  and  C_10
REMARK    5  A    between atoms: C_10  and  C_11
REMARK    6  A    between atoms: C_11  and  C_12
REMARK    7  A    between atoms: C_12  and  C_13
REMARK                            x       y       z     vdW  Elec       q    Type
REMARK                         _______ _______ _______ _____ _____    ______ ____
ROOT
ATOM      1  N   UNL     1       5.201   3.392  18.091  0.00  0.00    +0.000 NA
ATOM      2  H   UNL     1       4.477   3.095  18.787  0.00  0.00    +0.000 HD
ENDROOT
BRANCH   1   3
ATOM      3  S   UNL     1       5.621   5.068  18.466  0.00  0.00    +0.000 S 
ATOM      4  O   UNL     1       6.743   5.431  17.482  0.00  0.00    +0.000 OA
ATOM      5  O   UNL     1       6.374   4.999  19.803  0.00  0.00    +0.000 OA
BRANCH   3  10
ATOM      6  C   UNL     1       1.049   9.095  18.568  0.00  0.00    +0.000 C 
ATOM      7  C   UNL     1       2.172   8.103  18.531  0.00  0.00    +0.000 A 
ATOM      8  C   UNL     1       3.142   8.150  17.517  0.00  0.00    +0.000 A 
ATOM      9  C   UNL     1       4.184   7.218  17.498  0.00  0.00    +0.000 A 
ATOM     10  C   UNL     1       4.265   6.235  18.490  0.00  0.00    +0.000 A 
ATOM     11  C   UNL     1       3.302   6.185  19.504  0.00  0.00    +0.000 A 
ATOM     12  C   UNL     1       2.259   7.115  19.524  0.00  0.00    +0.000 A 
ENDBRANCH   3  10
ENDBRANCH   1   3
BRANCH   1  13
ATOM     13  C   UNL     1       4.625   3.328  16.747  0.00  0.00    +0.000 C 
BRANCH  13  14
ATOM     14  C   UNL     1       3.099   3.321  16.845  0.00  0.00    +0.000 C 
BRANCH  14  15
ATOM     15  C   UNL     1       2.586   2.086  17.592  0.00  0.00    +0.000 C 
BRANCH  15  16
ATOM     16  C   UNL     1       2.013   2.497  18.914  0.00  0.00    +0.000 A 
ATOM     17  C   UNL     1       0.696   2.821  19.172  0.00  0.00    +0.000 A 
ATOM     18  N   UNL     1       0.593   3.115  20.479  0.00  0.00    +0.000 N 
ATOM     19  C   UNL     1       1.833   2.965  20.977  0.00  0.00    +0.000 A 
ATOM     20  N   UNL     1       2.161   3.175  22.335  0.00  0.00    +0.000 N 
ATOM     21  N   UNL     1       2.734   2.588  20.050  0.00  0.00    +0.000 NA
ATOM     22  H   UNL     1      -0.271   3.396  20.995  0.00  0.00    +0.000 HD
ATOM     23  H   UNL     1       1.435   3.458  23.008  0.00  0.00    +0.000 HD
ATOM     24  H   UNL     1       3.129   3.039  22.661  0.00  0.00    +0.000 HD
ENDBRANCH  15  16
ENDBRANCH  14  15
ENDBRANCH  13  14
ENDBRANCH   1  13
TORSDOF 6
ENDMDL
MODEL 8
REMARK VINA RESULT:      -6.7      1.206      1.733
REMARK  Name = 
REMARK  7 active torsions:
REMARK  status: ('A' for Active; 'I' for Inactive)
REMARK    1  A    between atoms: C_1  and  C_2
REMARK    2  A    between atoms: C_5  and  S_6
REMARK    3  A    between atoms: S_6  and  N_9
REMARK    4  A    between atoms: N_9  and  C_10
REMARK    5  A    between atoms: C_10  and  C_11
REMARK    6  A    between atoms: C_11  and  C_12
REMARK    7  A    between atoms: C_12  and  C_13
REMARK                            x       y       z     vdW  Elec       q    Type
REMARK                         _______ _______ _______ _____ _____    ______ ____
ROOT
ATOM      1  N   UNL     1       4.412   6.054  19.599  0.00  0.00    +0.000 NA
ATOM      2  H   UNL     1       4.540   6.919  19.025  0.00  0.00    +0.000 HD
ENDROOT
BRANCH   1   3
ATOM      3  S   UNL     1       5.697   4.931  19.136  0.00  0.00    +0.000 S 
ATOM      4  O   UNL     1       5.431   3.656  19.951  0.00  0.00    +0.000 OA
ATOM      5  O   UNL     1       6.966   5.482  19.803  0.00  0.00    +0.000 OA
BRANCH   3  10
ATOM      6  C   UNL     1       6.384   4.035  13.148  0.00  0.00    +0.000 C 
ATOM      7  C   UNL     1       6.226   4.252  14.622  0.00  0.00    +0.000 A 
ATOM      8  C   UNL     1       7.243   4.861  15.375  0.00  0.00    +0.000 A 
ATOM      9  C   UNL     1       7.079   5.057  16.749  0.00  0.00    +0.000 A 
ATOM     10  C   UNL     1       5.900   4.646  17.381  0.00  0.00    +0.000 A 
ATOM     11  C   UNL     1       4.883   4.041  16.635  0.00  0.00    +0.000 A 
ATOM     12  C   UNL     1       5.045   3.843  15.262  0.00  0.00    +0.000 A 
ENDBRANCH   3  10
ENDBRANCH   1   3
BRANCH   1  13
ATOM     13  C   UNL     1       3.113   5.458  19.280  0.00  0.00    +0.000 C 
BRANCH  13  14
ATOM     14  C   UNL     1       2.317   5.250  20.568  0.00  0.00    +0.000 C 
BRANCH  14  15
ATOM     15  C   UNL     1       1.328   4.087  20.440  0.00  0.00    +0.000 C 
BRANCH  15  16
ATOM     16  C   UNL     1       1.876   3.058  19.499  0.00  0.00    +0.000 A 
ATOM     17  C   UNL     1       1.389   2.752  18.244  0.00  0.00    +0.000 A 
ATOM     18  N   UNL     1       2.168   1.789  17.723  0.00  0.00    +0.000 N 
ATOM     19  C   UNL     1       3.098   1.536  18.662  0.00  0.00    +0.000 A 
ATOM     20  N   UNL     1       4.126   0.581  18.507  0.00  0.00    +0.000 N 
ATOM     21  N   UNL     1       2.953   2.291  19.767  0.00  0.00    +0.000 NA
ATOM     22  H   UNL     1       2.071   1.339  16.786  0.00  0.00    +0.000 HD
ATOM     23  H   UNL     1       4.199   0.031  17.639  0.00  0.00    +0.000 HD
ATOM     24  H   UNL     1       4.815   0.434  19.259  0.00  0.00    +0.000 HD
ENDBRANCH  15  16
ENDBRANCH  14  15
ENDBRANCH  13  14
ENDBRANCH   1  13
TORSDOF 6
ENDMDL
MODEL 9
REMARK VINA RESULT:      -6.6      4.795      7.597
REMARK  Name = 
REMARK  7 active torsions:
REMARK  status: ('A' for Active; 'I' for Inactive)
REMARK    1  A    between atoms: C_1  and  C_2
REMARK    2  A    between atoms: C_5  and  S_6
REMARK    3  A    between atoms: S_6  and  N_9
REMARK    4  A    between atoms: N_9  and  C_10
REMARK    5  A    between atoms: C_10  and  C_11
REMARK    6  A    between atoms: C_11  and  C_12
REMARK    7  A    between atoms: C_12  and  C_13
REMARK                            x       y       z     vdW  Elec       q    Type
REMARK                         _______ _______ _______ _____ _____    ______ ____
ROOT
ATOM      1  N   UNL     1       7.681   6.651  16.826  0.00  0.00    +0.000 NA
ATOM      2  H   UNL     1       7.180   6.571  15.911  0.00  0.00    +0.000 HD
ENDROOT
BRANCH   1   3
ATOM      3  S   UNL     1       7.288   5.201  17.759  0.00  0.00    +0.000 S 
ATOM      4  O   UNL     1       7.992   5.389  19.111  0.00  0.00    +0.000 OA
ATOM      5  O   UNL     1       8.115   4.078  17.116  0.00  0.00    +0.000 OA
BRANCH   3  10
ATOM      6  C   UNL     1       1.385   3.775  18.264  0.00  0.00    +0.000 C 
ATOM      7  C   UNL     1       2.834   4.136  18.143  0.00  0.00    +0.000 A 
ATOM      8  C   UNL     1       3.475   4.888  19.142  0.00  0.00    +0.000 A 
ATOM      9  C   UNL     1       4.828   5.215  19.015  0.00  0.00    +0.000 A 
ATOM     10  C   UNL     1       5.550   4.797  17.892  0.00  0.00    +0.000 A 
ATOM     11  C   UNL     1       4.916   4.046  16.895  0.00  0.00    +0.000 A 
ATOM     12  C   UNL     1       3.564   3.718  17.019  0.00  0.00    +0.000 A 
ENDBRANCH   3  10
ENDBRANCH   1   3
BRANCH   1  13
ATOM     13  C   UNL     1       7.189   7.831  17.538  0.00  0.00    +0.000 C 
BRANCH  13  14
ATOM     14  C   UNL     1       8.360   8.552  18.204  0.00  0.00    +0.000 C 
BRANCH  14  15
ATOM     15  C   UNL     1       8.468  10.007  17.738  0.00  0.00    +0.000 C 
BRANCH  15  16
ATOM     16  C   UNL     1       9.314  10.785  18.699  0.00  0.00    +0.000 A 
ATOM     17  C   UNL     1      10.490  11.446  18.408  0.00  0.00    +0.000 A 
ATOM     18  N   UNL     1      10.926  12.030  19.536  0.00  0.00    +0.000 N 
ATOM     19  C   UNL     1      10.014  11.715  20.475  0.00  0.00    +0.000 A 
ATOM     20  N   UNL     1      10.095  12.144  21.818  0.00  0.00    +0.000 N 
ATOM     21  N   UNL     1       9.011  10.952  20.003  0.00  0.00    +0.000 NA
ATOM     22  H   UNL     1      11.787  12.609  19.654  0.00  0.00    +0.000 HD
ATOM     23  H   UNL     1      10.881  12.733  22.130  0.00  0.00    +0.000 HD
ATOM     24  H   UNL     1       9.363  11.877  22.492  0.00  0.00    +0.000 HD
ENDBRANCH  15  16
ENDBRANCH  14  15
ENDBRANCH  13  14
ENDBRANCH   1  13
TORSDOF 6
ENDMDL
