MODEL 1
REMARK VINA RESULT:      -7.2      0.000      0.000
REMARK  Name = 
REMARK  4 active torsions:
REMARK  status: ('A' for Active; 'I' for Inactive)
REMARK    1  A    between atoms: C_1  and  N_2
REMARK    2  A    between atoms: N_2  and  C_16
REMARK    3  A    between atoms: C_3  and  C_5
REMARK    4  A    between atoms: C_5  and  C_6
REMARK                            x       y       z     vdW  Elec       q    Type
REMARK                         _______ _______ _______ _____ _____    ______ ____
ROOT
ATOM      1  C   UNL     1       6.105   4.995  18.297  0.00  0.00    +0.000 C 
ENDROOT
BRANCH   1   2
ATOM      2  C   UNL     1       6.086   4.713  16.810  0.00  0.00    +0.000 A 
ATOM      3  C   UNL     1       5.088   3.901  16.249  0.00  0.00    +0.000 A 
ATOM      4  C   UNL     1       5.084   3.616  14.882  0.00  0.00    +0.000 A 
ATOM      5  C   UNL     1       6.089   4.124  14.070  0.00  0.00    +0.000 A 
ATOM      6  C   UNL     1       7.071   4.961  14.605  0.00  0.00    +0.000 A 
ATOM      7  C   UNL     1       7.074   5.251  15.972  0.00  0.00    +0.000 A 
ATOM      8  O   UNL     1       8.083   5.512  13.861  0.00  0.00    +0.000 OA
ATOM      9  C   UNL     1       7.839   5.371  12.456  0.00  0.00    +0.000 C 
ATOM     10  C   UNL     1       7.331   3.978  12.134  0.00  0.00    +0.000 C 
ATOM     11  O   UNL     1       6.059   3.755  12.747  0.00  0.00    +0.000 OA
ENDBRANCH   1   2
BRANCH   1  14
ATOM     12  C   UNL     1       4.661   2.953  19.805  0.00  0.00    +0.000 C 
ATOM     13  N   UNL     1       4.008   4.227  19.522  0.00  0.00    +0.000 N 
ATOM     14  C   UNL     1       4.709   5.256  18.864  0.00  0.00    +0.000 C 
ATOM     15  O   UNL     1       4.229   6.386  18.726  0.00  0.00    +0.000 OA
BRANCH  13  16
ATOM     16  C   UNL     1       2.816   4.624  20.341  0.00  0.00    +0.000 C 
ATOM     17  C   UNL     1       1.568   4.986  19.506  0.00  0.00    +0.000 C 
ATOM     18  C   UNL     1       1.089   3.774  18.722  0.00  0.00    +0.000 C 
ATOM     19  C   UNL     1       0.619   2.684  19.678  0.00  0.00    +0.000 C 
ATOM     20  C   UNL     1       1.632   2.359  20.776  0.00  0.00    +0.000 C 
ATOM     21  C   UNL     1       2.336   3.584  21.384  0.00  0.00    +0.000 C 
ENDBRANCH  13  16
ENDBRANCH   1  14
TORSDOF 3
ENDMDL
MODEL 2
REMARK VINA RESULT:      -7.2      4.006      7.061
REMARK  Name = 
REMARK  4 active torsions:
REMARK  status: ('A' for Active; 'I' for Inactive)
REMARK    1  A    between atoms: C_1  and  N_2
REMARK    2  A    between atoms: N_2  and  C_16
REMARK    3  A    between atoms: C_3  and  C_5
REMARK    4  A    between atoms: C_5  and  C_6
REMARK                            x       y       z     vdW  Elec       q    Type
REMARK                         _______ _______ _______ _____ _____    ______ ____
ROOT
ATOM      1  C   UNL     1       3.395   6.944  17.798  0.00  0.00    +0.000 C 
ENDROOT
BRANCH   1   2
ATOM      2  C   UNL     1       2.430   7.897  18.471  0.00  0.00    +0.000 A 
ATOM      3  C   UNL     1       1.859   8.961  17.754  0.00  0.00    +0.000 A 
ATOM      4  C   UNL     1       0.992   9.859  18.379  0.00  0.00    +0.000 A 
ATOM      5  C   UNL     1       0.703   9.710  19.728  0.00  0.00    +0.000 A 
ATOM      6  C   UNL     1       1.234   8.638  20.449  0.00  0.00    +0.000 A 
ATOM      7  C   UNL     1       2.100   7.736  19.824  0.00  0.00    +0.000 A 
ATOM      8  O   UNL     1       0.980   8.419  21.779  0.00  0.00    +0.000 OA
ATOM      9  C   UNL     1      -0.106   9.229  22.246  0.00  0.00    +0.000 C 
ATOM     10  C   UNL     1       0.012  10.646  21.718  0.00  0.00    +0.000 C 
ATOM     11  O   UNL     1      -0.110  10.663  20.294  0.00  0.00    +0.000 OA
ENDBRANCH   1   2
BRANCH   1  14
ATOM     12  C   UNL     1       1.590   4.655  17.627  0.00  0.00    +0.000 C 
ATOM     13  N   UNL     1       2.704   4.617  18.568  0.00  0.00    +0.000 N 
ATOM     14  C   UNL     1       3.634   5.673  18.616  0.00  0.00    +0.000 C 
ATOM     15  O   UNL     1       4.656   5.612  19.306  0.00  0.00    +0.000 OA
BRANCH  13  16
ATOM     16  C   UNL     1       3.148   3.289  19.106  0.00  0.00    +0.000 C 
ATOM     17  C   UNL     1       3.531   3.310  20.603  0.00  0.00    +0.000 C 
ATOM     18  C   UNL     1       2.319   3.664  21.451  0.00  0.00    +0.000 C 
ATOM     19  C   UNL     1       1.260   2.575  21.331  0.00  0.00    +0.000 C 
ATOM     20  C   UNL     1       0.925   2.207  19.886  0.00  0.00    +0.000 C 
ATOM     21  C   UNL     1       2.140   2.123  18.946  0.00  0.00    +0.000 C 
ENDBRANCH  13  16
ENDBRANCH   1  14
TORSDOF 3
ENDMDL
MODEL 3
REMARK VINA RESULT:      -7.1      1.128      1.468
REMARK  Name = 
REMARK  4 active torsions:
REMARK  status: ('A' for Active; 'I' for Inactive)
REMARK    1  A    between atoms: C_1  and  N_2
REMARK    2  A    between atoms: N_2  and  C_16
REMARK    3  A    between atoms: C_3  and  C_5
REMARK    4  A    between atoms: C_5  and  C_6
REMARK                            x       y       z     vdW  Elec       q    Type
REMARK                         _______ _______ _______ _____ _____    ______ ____
ROOT
ATOM      1  C   UNL     1       5.444   5.736  18.229  0.00  0.00    +0.000 C 
ENDROOT
BRANCH   1   2
ATOM      2  C   UNL     1       5.560   5.243  16.802  0.00  0.00    +0.000 A 
ATOM      3  C   UNL     1       4.579   4.401  16.255  0.00  0.00    +0.000 A 
ATOM      4  C   UNL     1       4.698   3.921  14.949  0.00  0.00    +0.000 A 
ATOM      5  C   UNL     1       5.806   4.265  14.188  0.00  0.00    +0.000 A 
ATOM      6  C   UNL     1       6.775   5.129  14.703  0.00  0.00    +0.000 A 
ATOM      7  C   UNL     1       6.657   5.614  16.010  0.00  0.00    +0.000 A 
ATOM      8  O   UNL     1       7.887   5.525  14.004  0.00  0.00    +0.000 OA
ATOM      9  C   UNL     1       7.778   5.192  12.614  0.00  0.00    +0.000 C 
ATOM     10  C   UNL     1       7.227   3.790  12.436  0.00  0.00    +0.000 C 
ATOM     11  O   UNL     1       5.890   3.710  12.934  0.00  0.00    +0.000 OA
ENDBRANCH   1   2
BRANCH   1  14
ATOM     12  C   UNL     1       2.723   5.681  19.287  0.00  0.00    +0.000 C 
ATOM     13  N   UNL     1       3.687   4.686  19.745  0.00  0.00    +0.000 N 
ATOM     14  C   UNL     1       4.982   4.642  19.194  0.00  0.00    +0.000 C 
ATOM     15  O   UNL     1       5.775   3.735  19.465  0.00  0.00    +0.000 OA
BRANCH  13  16
ATOM     16  C   UNL     1       3.177   3.436  20.398  0.00  0.00    +0.000 C 
ATOM     17  C   UNL     1       1.733   3.548  20.935  0.00  0.00    +0.000 C 
ATOM     18  C   UNL     1       0.762   3.787  19.789  0.00  0.00    +0.000 C 
ATOM     19  C   UNL     1       0.742   2.580  18.859  0.00  0.00    +0.000 C 
ATOM     20  C   UNL     1       2.134   2.131  18.415  0.00  0.00    +0.000 C 
ATOM     21  C   UNL     1       3.201   2.157  19.523  0.00  0.00    +0.000 C 
ENDBRANCH  13  16
ENDBRANCH   1  14
TORSDOF 3
ENDMDL
MODEL 4
REMARK VINA RESULT:      -7.1      4.015      6.978
REMARK  Name = 
REMARK  4 active torsions:
REMARK  status: ('A' for Active; 'I' for Inactive)
REMARK    1  A    between atoms: C_1  and  N_2
REMARK    2  A    between atoms: N_2  and  C_16
REMARK    3  A    between atoms: C_3  and  C_5
REMARK    4  A    between atoms: C_5  and  C_6
REMARK                            x       y       z     vdW  Elec       q    Type
REMARK                         _______ _______ _______ _____ _____    ______ ____
ROOT
ATOM      1  C   UNL     1       3.373   6.523  17.915  0.00  0.00    +0.000 C 
ENDROOT
BRANCH   1   2
ATOM      2  C   UNL     1       2.470   7.573  18.527  0.00  0.00    +0.000 A 
ATOM      3  C   UNL     1       1.993   8.644  17.755  0.00  0.00    +0.000 A 
ATOM      4  C   UNL     1       1.184   9.629  18.324  0.00  0.00    +0.000 A 
ATOM      5  C   UNL     1       0.861   9.561  19.673  0.00  0.00    +0.000 A 
ATOM      6  C   UNL     1       1.298   8.484  20.448  0.00  0.00    +0.000 A 
ATOM      7  C   UNL     1       2.105   7.494  19.879  0.00  0.00    +0.000 A 
ATOM      8  O   UNL     1       1.005   8.342  21.780  0.00  0.00    +0.000 OA
ATOM      9  C   UNL     1      -0.026   9.249  22.191  0.00  0.00    +0.000 C 
ATOM     10  C   UNL     1       0.207  10.630  21.607  0.00  0.00    +0.000 C 
ATOM     11  O   UNL     1       0.112  10.594  20.181  0.00  0.00    +0.000 OA
ENDBRANCH   1   2
BRANCH   1  14
ATOM     12  C   UNL     1       4.681   4.226  19.155  0.00  0.00    +0.000 C 
ATOM     13  N   UNL     1       3.424   4.032  18.441  0.00  0.00    +0.000 N 
ATOM     14  C   UNL     1       2.734   5.133  17.900  0.00  0.00    +0.000 C 
ATOM     15  O   UNL     1       1.608   5.018  17.405  0.00  0.00    +0.000 OA
BRANCH  13  16
ATOM     16  C   UNL     1       2.629   2.788  18.706  0.00  0.00    +0.000 C 
ATOM     17  C   UNL     1       3.200   1.903  19.837  0.00  0.00    +0.000 C 
ATOM     18  C   UNL     1       3.164   2.653  21.160  0.00  0.00    +0.000 C 
ATOM     19  C   UNL     1       1.722   2.929  21.568  0.00  0.00    +0.000 C 
ATOM     20  C   UNL     1       0.890   3.576  20.460  0.00  0.00    +0.000 C 
ATOM     21  C   UNL     1       1.135   3.002  19.054  0.00  0.00    +0.000 C 
ENDBRANCH  13  16
ENDBRANCH   1  14
TORSDOF 3
ENDMDL
MODEL 5
REMARK VINA RESULT:      -6.9      4.046      6.817
REMARK  Name = 
REMARK  4 active torsions:
REMARK  status: ('A' for Active; 'I' for Inactive)
REMARK    1  A    between atoms: C_1  and  N_2
REMARK    2  A    between atoms: N_2  and  C_16
REMARK    3  A    between atoms: C_3  and  C_5
REMARK    4  A    between atoms: C_5  and  C_6
REMARK                            x       y       z     vdW  Elec       q    Type
REMARK                         _______ _______ _______ _____ _____    ______ ____
ROOT
ATOM      1  C   UNL     1       3.190   6.457  17.825  0.00  0.00    +0.000 C 
ENDROOT
BRANCH   1   2
ATOM      2  C   UNL     1       2.421   7.419  18.705  0.00  0.00    +0.000 A 
ATOM      3  C   UNL     1       2.135   7.093  20.041  0.00  0.00    +0.000 A 
ATOM      4  C   UNL     1       1.402   7.966  20.847  0.00  0.00    +0.000 A 
ATOM      5  C   UNL     1       0.934   9.161  20.319  0.00  0.00    +0.000 A 
ATOM      6  C   UNL     1       1.238   9.518  19.003  0.00  0.00    +0.000 A 
ATOM      7  C   UNL     1       1.976   8.647  18.195  0.00  0.00    +0.000 A 
ATOM      8  O   UNL     1       0.824  10.689  18.420  0.00  0.00    +0.000 OA
ATOM      9  C   UNL     1       0.314  11.608  19.394  0.00  0.00    +0.000 C 
ATOM     10  C   UNL     1      -0.582  10.896  20.390  0.00  0.00    +0.000 C 
ATOM     11  O   UNL     1       0.168   9.944  21.148  0.00  0.00    +0.000 OA
ENDBRANCH   1   2
BRANCH   1  14
ATOM     12  C   UNL     1       4.591   4.246  19.121  0.00  0.00    +0.000 C 
ATOM     13  N   UNL     1       3.341   3.983  18.415  0.00  0.00    +0.000 N 
ATOM     14  C   UNL     1       2.607   5.043  17.848  0.00  0.00    +0.000 C 
ATOM     15  O   UNL     1       1.485   4.870  17.360  0.00  0.00    +0.000 OA
BRANCH  13  16
ATOM     16  C   UNL     1       2.596   2.717  18.715  0.00  0.00    +0.000 C 
ATOM     17  C   UNL     1       3.213   1.877  19.856  0.00  0.00    +0.000 C 
ATOM     18  C   UNL     1       3.166   2.650  21.164  0.00  0.00    +0.000 C 
ATOM     19  C   UNL     1       1.720   2.881  21.585  0.00  0.00    +0.000 C 
ATOM     20  C   UNL     1       0.851   3.474  20.476  0.00  0.00    +0.000 C 
ATOM     21  C   UNL     1       1.099   2.882  19.078  0.00  0.00    +0.000 C 
ENDBRANCH  13  16
ENDBRANCH   1  14
TORSDOF 3
ENDMDL
MODEL 6
REMARK VINA RESULT:      -6.8      1.300      2.355
REMARK  Name = 
REMARK  4 active torsions:
REMARK  status: ('A' for Active; 'I' for Inactive)
REMARK    1  A    between atoms: C_1  and  N_2
REMARK    2  A    between atoms: N_2  and  C_16
REMARK    3  A    between atoms: C_3  and  C_5
REMARK    4  A    between atoms: C_5  and  C_6
REMARK                            x       y       z     vdW  Elec       q    Type
REMARK                         _______ _______ _______ _____ _____    ______ ____
ROOT
ATOM      1  C   UNL     1       4.973   5.704  17.693  0.00  0.00    +0.000 C 
ENDROOT
BRANCH   1   2
ATOM      2  C   UNL     1       5.716   5.356  16.421  0.00  0.00    +0.000 A 
ATOM      3  C   UNL     1       7.056   5.740  16.247  0.00  0.00    +0.000 A 
ATOM      4  C   UNL     1       7.735   5.445  15.064  0.00  0.00    +0.000 A 
ATOM      5  C   UNL     1       7.076   4.781  14.039  0.00  0.00    +0.000 A 
ATOM      6  C   UNL     1       5.755   4.360  14.207  0.00  0.00    +0.000 A 
ATOM      7  C   UNL     1       5.073   4.651  15.393  0.00  0.00    +0.000 A 
ATOM      8  O   UNL     1       5.046   3.686  13.245  0.00  0.00    +0.000 OA
ATOM      9  C   UNL     1       5.902   3.215  12.197  0.00  0.00    +0.000 C 
ATOM     10  C   UNL     1       6.901   4.283  11.795  0.00  0.00    +0.000 C 
ATOM     11  O   UNL     1       7.784   4.576  12.880  0.00  0.00    +0.000 OA
ENDBRANCH   1   2
BRANCH   1  14
ATOM     12  C   UNL     1       2.270   4.609  17.857  0.00  0.00    +0.000 C 
ATOM     13  N   UNL     1       3.331   4.016  18.664  0.00  0.00    +0.000 N 
ATOM     14  C   UNL     1       4.658   4.474  18.546  0.00  0.00    +0.000 C 
ATOM     15  O   UNL     1       5.596   3.908  19.116  0.00  0.00    +0.000 OA
BRANCH  13  16
ATOM     16  C   UNL     1       3.129   2.637  19.218  0.00  0.00    +0.000 C 
ATOM     17  C   UNL     1       3.448   2.509  20.725  0.00  0.00    +0.000 C 
ATOM     18  C   UNL     1       2.500   3.376  21.539  0.00  0.00    +0.000 C 
ATOM     19  C   UNL     1       1.071   2.867  21.396  0.00  0.00    +0.000 C 
ATOM     20  C   UNL     1       0.640   2.663  19.943  0.00  0.00    +0.000 C 
ATOM     21  C   UNL     1       1.713   2.036  19.037  0.00  0.00    +0.000 C 
ENDBRANCH  13  16
ENDBRANCH   1  14
TORSDOF 3
ENDMDL
MODEL 7
REMARK VINA RESULT:      -6.7      4.887      7.757
REMARK  Name = 
REMARK  4 active torsions:
REMARK  status: ('A' for Active; 'I' for Inactive)
REMARK    1  A    between atoms: C_1  and  N_2
REMARK    2  A    between atoms: N_2  and  C_16
REMARK    3  A    between atoms: C_3  and  C_5
REMARK    4  A    between atoms: C_5  and  C_6
REMARK                            x       y       z     vdW  Elec       q    Type
REMARK                         _______ _______ _______ _____ _____    ______ ____
ROOT
ATOM      1  C   UNL     1       2.472   8.245  17.843  0.00  0.00    +0.000 C 
ENDROOT
BRANCH   1   2
ATOM      2  C   UNL     1       1.568   9.431  18.107  0.00  0.00    +0.000 A 
ATOM      3  C   UNL     1       2.110  10.683  18.437  0.00  0.00    +0.000 A 
ATOM      4  C   UNL     1       1.278  11.771  18.709  0.00  0.00    +0.000 A 
ATOM      5  C   UNL     1      -0.100  11.611  18.671  0.00  0.00    +0.000 A 
ATOM      6  C   UNL     1      -0.656  10.381  18.310  0.00  0.00    +0.000 A 
ATOM      7  C   UNL     1       0.174   9.291  18.034  0.00  0.00    +0.000 A 
ATOM      8  O   UNL     1      -2.007  10.154  18.235  0.00  0.00    +0.000 OA
ATOM      9  C   UNL     1      -2.749  11.379  18.276  0.00  0.00    +0.000 C 
ATOM     10  C   UNL     1      -2.192  12.311  19.336  0.00  0.00    +0.000 C 
ATOM     11  O   UNL     1      -0.859  12.705  19.007  0.00  0.00    +0.000 OA
ENDBRANCH   1   2
BRANCH   1  14
ATOM     12  C   UNL     1       3.449   5.516  17.488  0.00  0.00    +0.000 C 
ATOM     13  N   UNL     1       2.883   5.910  18.774  0.00  0.00    +0.000 N 
ATOM     14  C   UNL     1       2.476   7.240  18.996  0.00  0.00    +0.000 C 
ATOM     15  O   UNL     1       2.115   7.633  20.110  0.00  0.00    +0.000 OA
BRANCH  13  16
ATOM     16  C   UNL     1       3.189   5.076  19.982  0.00  0.00    +0.000 C 
ATOM     17  C   UNL     1       1.963   4.790  20.878  0.00  0.00    +0.000 C 
ATOM     18  C   UNL     1       0.933   3.970  20.116  0.00  0.00    +0.000 C 
ATOM     19  C   UNL     1       1.502   2.597  19.778  0.00  0.00    +0.000 C 
ATOM     20  C   UNL     1       2.875   2.655  19.109  0.00  0.00    +0.000 C 
ATOM     21  C   UNL     1       3.837   3.697  19.705  0.00  0.00    +0.000 C 
ENDBRANCH  13  16
ENDBRANCH   1  14
TORSDOF 3
ENDMDL
MODEL 8
REMARK VINA RESULT:      -6.7      4.051      7.021
REMARK  Name = 
REMARK  4 active torsions:
REMARK  status: ('A' for Active; 'I' for Inactive)
REMARK    1  A    between atoms: C_1  and  N_2
REMARK    2  A    between atoms: N_2  and  C_16
REMARK    3  A    between atoms: C_3  and  C_5
REMARK    4  A    between atoms: C_5  and  C_6
REMARK                            x       y       z     vdW  Elec       q    Type
REMARK                         _______ _______ _______ _____ _____    ______ ____
ROOT
ATOM      1  C   UNL     1       3.215   7.069  17.865  0.00  0.00    +0.000 C 
ENDROOT
BRANCH   1   2
ATOM      2  C   UNL     1       2.339   7.984  18.695  0.00  0.00    +0.000 A 
ATOM      3  C   UNL     1       2.012   7.654  20.020  0.00  0.00    +0.000 A 
ATOM      4  C   UNL     1       1.182   8.482  20.777  0.00  0.00    +0.000 A 
ATOM      5  C   UNL     1       0.658   9.636  20.211  0.00  0.00    +0.000 A 
ATOM      6  C   UNL     1       1.000   9.998  18.906  0.00  0.00    +0.000 A 
ATOM      7  C   UNL     1       1.834   9.172  18.146  0.00  0.00    +0.000 A 
ATOM      8  O   UNL     1       0.534  11.130  18.287  0.00  0.00    +0.000 OA
ATOM      9  C   UNL     1      -0.085  12.022  19.222  0.00  0.00    +0.000 C 
ATOM     10  C   UNL     1      -0.976  11.261  20.185  0.00  0.00    +0.000 C 
ATOM     11  O   UNL     1      -0.199  10.372  20.992  0.00  0.00    +0.000 OA
ENDBRANCH   1   2
BRANCH   1  14
ATOM     12  C   UNL     1       1.451   4.752  17.643  0.00  0.00    +0.000 C 
ATOM     13  N   UNL     1       2.621   4.677  18.511  0.00  0.00    +0.000 N 
ATOM     14  C   UNL     1       3.529   5.751  18.577  0.00  0.00    +0.000 C 
ATOM     15  O   UNL     1       4.593   5.668  19.200  0.00  0.00    +0.000 OA
BRANCH  13  16
ATOM     16  C   UNL     1       3.125   3.327  18.927  0.00  0.00    +0.000 C 
ATOM     17  C   UNL     1       3.597   3.255  20.397  0.00  0.00    +0.000 C 
ATOM     18  C   UNL     1       2.432   3.520  21.338  0.00  0.00    +0.000 C 
ATOM     19  C   UNL     1       1.390   2.416  21.205  0.00  0.00    +0.000 C 
ATOM     20  C   UNL     1       0.976   2.139  19.760  0.00  0.00    +0.000 C 
ATOM     21  C   UNL     1       2.134   2.150  18.747  0.00  0.00    +0.000 C 
ENDBRANCH  13  16
ENDBRANCH   1  14
TORSDOF 3
ENDMDL
MODEL 9
REMARK VINA RESULT:      -6.6      2.205      3.577
REMARK  Name = 
REMARK  4 active torsions:
REMARK  status: ('A' for Active; 'I' for Inactive)
REMARK    1  A    between atoms: C_1  and  N_2
REMARK    2  A    between atoms: N_2  and  C_16
REMARK    3  A    between atoms: C_3  and  C_5
REMARK    4  A    between atoms: C_5  and  C_6
REMARK                            x       y       z     vdW  Elec       q    Type
REMARK                         _______ _______ _______ _____ _____    ______ ____
ROOT
ATOM      1  C   UNL     1       2.429   6.707  19.511  0.00  0.00    +0.000 C 
ENDROOT
BRANCH   1   2
ATOM      2  C   UNL     1       3.620   6.533  18.593  0.00  0.00    +0.000 A 
ATOM      3  C   UNL     1       3.750   7.312  17.433  0.00  0.00    +0.000 A 
ATOM      4  C   UNL     1       4.832   7.134  16.570  0.00  0.00    +0.000 A 
ATOM      5  C   UNL     1       5.783   6.163  16.850  0.00  0.00    +0.000 A 
ATOM      6  C   UNL     1       5.690   5.401  18.017  0.00  0.00    +0.000 A 
ATOM      7  C   UNL     1       4.608   5.581  18.886  0.00  0.00    +0.000 A 
ATOM      8  O   UNL     1       6.600   4.437  18.368  0.00  0.00    +0.000 OA
ATOM      9  C   UNL     1       7.784   4.516  17.564  0.00  0.00    +0.000 C 
ATOM     10  C   UNL     1       7.432   4.735  16.105  0.00  0.00    +0.000 C 
ATOM     11  O   UNL     1       6.789   5.999  15.929  0.00  0.00    +0.000 OA
ENDBRANCH   1   2
BRANCH   1  14
ATOM     12  C   UNL     1       1.341   4.586  17.824  0.00  0.00    +0.000 C 
ATOM     13  N   UNL     1       1.355   4.410  19.273  0.00  0.00    +0.000 N 
ATOM     14  C   UNL     1       1.943   5.383  20.103  0.00  0.00    +0.000 C 
ATOM     15  O   UNL     1       2.087   5.204  21.317  0.00  0.00    +0.000 OA
BRANCH  13  16
ATOM     16  C   UNL     1       1.215   3.026  19.833  0.00  0.00    +0.000 C 
ATOM     17  C   UNL     1       1.140   1.916  18.760  0.00  0.00    +0.000 C 
ATOM     18  C   UNL     1       2.435   1.863  17.966  0.00  0.00    +0.000 C 
ATOM     19  C   UNL     1       3.590   1.455  18.873  0.00  0.00    +0.000 C 
ATOM     20  C   UNL     1       3.676   2.280  20.157  0.00  0.00    +0.000 C 
ATOM     21  C   UNL     1       2.322   2.580  20.821  0.00  0.00    +0.000 C 
ENDBRANCH  13  16
ENDBRANCH   1  14
TORSDOF 3
ENDMDL
