MODEL 1
REMARK VINA RESULT:      -7.3      0.000      0.000
REMARK  Name = 
REMARK  8 active torsions:
REMARK  status: ('A' for Active; 'I' for Inactive)
REMARK    1  A    between atoms: C_1  and  C_2
REMARK    2  A    between atoms: C_2  and  S_3
REMARK    3  A    between atoms: S_3  and  N_6
REMARK    4  A    between atoms: N_6  and  C_7
REMARK    5  A    between atoms: N_6  and  C_19
REMARK    6  A    between atoms: C_7  and  C_8
REMARK    7  A    between atoms: C_13  and  C_14
REMARK    8  A    between atoms: C_27  and  C_28
REMARK                            x       y       z     vdW  Elec       q    Type
REMARK                         _______ _______ _______ _____ _____    ______ ____
ROOT
ATOM      1  N   UNL     1       0.351  11.611  19.050  0.00  0.00    +0.000 N 
ENDROOT
BRANCH   1   2
ATOM      2  C   UNL     1      -1.058  11.589  18.720  0.00  0.00    +0.000 A 
ATOM      3  S   UNL     1      -1.674  11.056  17.228  0.00  0.00    +0.000 S 
ATOM      4  C   UNL     1      -3.286  11.472  17.657  0.00  0.00    +0.000 A 
ATOM      5  C   UNL     1      -4.432  11.373  16.835  0.00  0.00    +0.000 A 
ATOM      6  C   UNL     1      -5.675  11.741  17.355  0.00  0.00    +0.000 A 
ATOM      7  C   UNL     1      -5.787  12.176  18.665  0.00  0.00    +0.000 A 
ATOM      8  C   UNL     1      -4.652  12.261  19.477  0.00  0.00    +0.000 A 
ATOM      9  C   UNL     1      -3.363  11.937  18.974  0.00  0.00    +0.000 A 
ATOM     10  C   UNL     1      -2.050  12.005  19.598  0.00  0.00    +0.000 A 
BRANCH  10  11
ATOM     11  C   UNL     1      -1.746  12.508  20.943  0.00  0.00    +0.000 A 
ATOM     12  C   UNL     1      -1.923  13.823  21.322  0.00  0.00    +0.000 A 
ATOM     13  N   UNL     1      -1.726  14.306  22.567  0.00  0.00    +0.000 NA
ATOM     14  C   UNL     1      -1.329  13.409  23.474  0.00  0.00    +0.000 A 
ATOM     15  N   UNL     1      -1.102  12.107  23.240  0.00  0.00    +0.000 NA
ATOM     16  C   UNL     1      -1.321  11.689  21.972  0.00  0.00    +0.000 A 
ENDBRANCH  10  11
ENDBRANCH   1   2
BRANCH   1  17
ATOM     17  S   UNL     1       1.032  13.192  19.129  0.00  0.00    +0.000 S 
ATOM     18  O   UNL     1       1.400  13.440  20.509  0.00  0.00    +0.000 OA
ATOM     19  O   UNL     1       0.123  14.085  18.443  0.00  0.00    +0.000 OA
BRANCH  17  21
ATOM     20  C   UNL     1       3.314  14.415  18.149  0.00  0.00    +0.000 C 
ATOM     21  C   UNL     1       2.541  13.111  18.150  0.00  0.00    +0.000 C 
ENDBRANCH  17  21
ENDBRANCH   1  17
BRANCH   1  22
ATOM     22  C   UNL     1       1.224  10.613  18.344  0.00  0.00    +0.000 C 
BRANCH  22  23
ATOM     23  C   UNL     1       1.369   9.293  19.080  0.00  0.00    +0.000 A 
ATOM     24  C   UNL     1       0.845   9.118  20.371  0.00  0.00    +0.000 A 
ATOM     25  C   UNL     1       1.105   7.953  21.093  0.00  0.00    +0.000 A 
ATOM     26  C   UNL     1       1.858   6.935  20.519  0.00  0.00    +0.000 A 
ATOM     27  F   UNL     1       2.104   5.839  21.249  0.00  0.00    +0.000 F 
ATOM     28  C   UNL     1       2.339   7.045  19.219  0.00  0.00    +0.000 A 
ATOM     29  C   UNL     1       2.085   8.231  18.503  0.00  0.00    +0.000 A 
BRANCH  28  30
ATOM     30  C   UNL     1       3.102   5.927  18.577  0.00  0.00    +0.000 C 
ATOM     31  F   UNL     1       3.581   6.190  17.330  0.00  0.00    +0.000 F 
ATOM     32  F   UNL     1       4.192   5.571  19.319  0.00  0.00    +0.000 F 
ATOM     33  F   UNL     1       2.362   4.790  18.453  0.00  0.00    +0.000 F 
ENDBRANCH  28  30
ENDBRANCH  22  23
ENDBRANCH   1  22
TORSDOF 7
ENDMDL
MODEL 2
REMARK VINA RESULT:      -7.0      0.758      1.073
REMARK  Name = 
REMARK  8 active torsions:
REMARK  status: ('A' for Active; 'I' for Inactive)
REMARK    1  A    between atoms: C_1  and  C_2
REMARK    2  A    between atoms: C_2  and  S_3
REMARK    3  A    between atoms: S_3  and  N_6
REMARK    4  A    between atoms: N_6  and  C_7
REMARK    5  A    between atoms: N_6  and  C_19
REMARK    6  A    between atoms: C_7  and  C_8
REMARK    7  A    between atoms: C_13  and  C_14
REMARK    8  A    between atoms: C_27  and  C_28
REMARK                            x       y       z     vdW  Elec       q    Type
REMARK                         _______ _______ _______ _____ _____    ______ ____
ROOT
ATOM      1  N   UNL     1       0.354  11.707  18.811  0.00  0.00    +0.000 N 
ENDROOT
BRANCH   1   2
ATOM      2  C   UNL     1      -1.070  11.640  18.563  0.00  0.00    +0.000 A 
ATOM      3  S   UNL     1      -1.754  11.122  17.095  0.00  0.00    +0.000 S 
ATOM      4  C   UNL     1      -3.352  11.467  17.627  0.00  0.00    +0.000 A 
ATOM      5  C   UNL     1      -4.540  11.346  16.871  0.00  0.00    +0.000 A 
ATOM      6  C   UNL     1      -5.762  11.654  17.472  0.00  0.00    +0.000 A 
ATOM      7  C   UNL     1      -5.813  12.052  18.797  0.00  0.00    +0.000 A 
ATOM      8  C   UNL     1      -4.636  12.159  19.544  0.00  0.00    +0.000 A 
ATOM      9  C   UNL     1      -3.367  11.896  18.959  0.00  0.00    +0.000 A 
ATOM     10  C   UNL     1      -2.024  11.998  19.507  0.00  0.00    +0.000 A 
BRANCH  10  11
ATOM     11  C   UNL     1      -1.660  12.479  20.845  0.00  0.00    +0.000 A 
ATOM     12  C   UNL     1      -1.871  13.774  21.272  0.00  0.00    +0.000 A 
ATOM     13  N   UNL     1      -1.619  14.233  22.517  0.00  0.00    +0.000 NA
ATOM     14  C   UNL     1      -1.126  13.332  23.371  0.00  0.00    +0.000 A 
ATOM     15  N   UNL     1      -0.856  12.048  23.086  0.00  0.00    +0.000 NA
ATOM     16  C   UNL     1      -1.135  11.654  21.822  0.00  0.00    +0.000 A 
ENDBRANCH  10  11
ENDBRANCH   1   2
BRANCH   1  17
ATOM     17  S   UNL     1       1.013  13.296  18.711  0.00  0.00    +0.000 S 
ATOM     18  O   UNL     1      -0.082  14.206  18.441  0.00  0.00    +0.000 OA
ATOM     19  O   UNL     1       2.149  13.233  17.816  0.00  0.00    +0.000 OA
BRANCH  17  21
ATOM     20  C   UNL     1       2.900  14.509  20.334  0.00  0.00    +0.000 C 
ATOM     21  C   UNL     1       1.649  13.653  20.357  0.00  0.00    +0.000 C 
ENDBRANCH  17  21
ENDBRANCH   1  17
BRANCH   1  22
ATOM     22  C   UNL     1       1.202  10.658  18.150  0.00  0.00    +0.000 C 
BRANCH  22  23
ATOM     23  C   UNL     1       1.331   9.376  18.953  0.00  0.00    +0.000 A 
ATOM     24  C   UNL     1       0.796   9.270  20.246  0.00  0.00    +0.000 A 
ATOM     25  C   UNL     1       1.041   8.140  21.027  0.00  0.00    +0.000 A 
ATOM     26  C   UNL     1       1.791   7.089  20.511  0.00  0.00    +0.000 A 
ATOM     27  F   UNL     1       2.023   6.029  21.297  0.00  0.00    +0.000 F 
ATOM     28  C   UNL     1       2.283   7.131  19.211  0.00  0.00    +0.000 A 
ATOM     29  C   UNL     1       2.044   8.282  18.435  0.00  0.00    +0.000 A 
BRANCH  28  30
ATOM     30  C   UNL     1       3.043   5.977  18.632  0.00  0.00    +0.000 C 
ATOM     31  F   UNL     1       2.322   4.837  18.453  0.00  0.00    +0.000 F 
ATOM     32  F   UNL     1       3.559   6.280  17.404  0.00  0.00    +0.000 F 
ATOM     33  F   UNL     1       4.113   5.618  19.395  0.00  0.00    +0.000 F 
ENDBRANCH  28  30
ENDBRANCH  22  23
ENDBRANCH   1  22
TORSDOF 7
ENDMDL
MODEL 3
REMARK VINA RESULT:      -7.0      6.635      9.479
REMARK  Name = 
REMARK  8 active torsions:
REMARK  status: ('A' for Active; 'I' for Inactive)
REMARK    1  A    between atoms: C_1  and  C_2
REMARK    2  A    between atoms: C_2  and  S_3
REMARK    3  A    between atoms: S_3  and  N_6
REMARK    4  A    between atoms: N_6  and  C_7
REMARK    5  A    between atoms: N_6  and  C_19
REMARK    6  A    between atoms: C_7  and  C_8
REMARK    7  A    between atoms: C_13  and  C_14
REMARK    8  A    between atoms: C_27  and  C_28
REMARK                            x       y       z     vdW  Elec       q    Type
REMARK                         _______ _______ _______ _____ _____    ______ ____
ROOT
ATOM      1  N   UNL     1       5.267   5.657  16.878  0.00  0.00    +0.000 N 
ENDROOT
BRANCH   1   2
ATOM      2  C   UNL     1       4.209   6.113  17.754  0.00  0.00    +0.000 A 
ATOM      3  S   UNL     1       3.692   7.729  17.855  0.00  0.00    +0.000 S 
ATOM      4  C   UNL     1       2.590   7.379  19.127  0.00  0.00    +0.000 A 
ATOM      5  C   UNL     1       1.786   8.306  19.829  0.00  0.00    +0.000 A 
ATOM      6  C   UNL     1       0.928   7.842  20.829  0.00  0.00    +0.000 A 
ATOM      7  C   UNL     1       0.849   6.490  21.114  0.00  0.00    +0.000 A 
ATOM      8  C   UNL     1       1.638   5.576  20.409  0.00  0.00    +0.000 A 
ATOM      9  C   UNL     1       2.555   6.010  19.414  0.00  0.00    +0.000 A 
ATOM     10  C   UNL     1       3.509   5.267  18.605  0.00  0.00    +0.000 A 
BRANCH  10  11
ATOM     11  C   UNL     1       3.791   3.829  18.686  0.00  0.00    +0.000 A 
ATOM     12  C   UNL     1       4.526   3.253  19.702  0.00  0.00    +0.000 A 
ATOM     13  N   UNL     1       4.743   1.929  19.851  0.00  0.00    +0.000 NA
ATOM     14  C   UNL     1       4.185   1.149  18.921  0.00  0.00    +0.000 A 
ATOM     15  N   UNL     1       3.462   1.574  17.873  0.00  0.00    +0.000 NA
ATOM     16  C   UNL     1       3.282   2.912  17.785  0.00  0.00    +0.000 A 
ENDBRANCH  10  11
ENDBRANCH   1   2
BRANCH   1  17
ATOM     17  S   UNL     1       6.825   5.626  17.612  0.00  0.00    +0.000 S 
ATOM     18  O   UNL     1       7.545   4.494  17.063  0.00  0.00    +0.000 OA
ATOM     19  O   UNL     1       6.628   5.744  19.041  0.00  0.00    +0.000 OA
BRANCH  17  21
ATOM     20  C   UNL     1       8.137   7.991  18.208  0.00  0.00    +0.000 C 
ATOM     21  C   UNL     1       7.642   7.133  17.060  0.00  0.00    +0.000 C 
ENDBRANCH  17  21
ENDBRANCH   1  17
BRANCH   1  22
ATOM     22  C   UNL     1       5.268   6.208  15.481  0.00  0.00    +0.000 C 
BRANCH  22  23
ATOM     23  C   UNL     1       5.798   5.239  14.438  0.00  0.00    +0.000 A 
ATOM     24  C   UNL     1       7.176   5.026  14.277  0.00  0.00    +0.000 A 
ATOM     25  C   UNL     1       7.657   4.244  13.226  0.00  0.00    +0.000 A 
ATOM     26  C   UNL     1       6.765   3.637  12.349  0.00  0.00    +0.000 A 
ATOM     27  F   UNL     1       7.263   2.910  11.340  0.00  0.00    +0.000 F 
ATOM     28  C   UNL     1       5.391   3.773  12.516  0.00  0.00    +0.000 A 
ATOM     29  C   UNL     1       4.915   4.577  13.570  0.00  0.00    +0.000 A 
BRANCH  28  30
ATOM     30  C   UNL     1       4.426   3.074  11.607  0.00  0.00    +0.000 C 
ATOM     31  F   UNL     1       4.194   3.694  10.418  0.00  0.00    +0.000 F 
ATOM     32  F   UNL     1       4.857   1.818  11.286  0.00  0.00    +0.000 F 
ATOM     33  F   UNL     1       3.200   2.902  12.176  0.00  0.00    +0.000 F 
ENDBRANCH  28  30
ENDBRANCH  22  23
ENDBRANCH   1  22
TORSDOF 7
ENDMDL
MODEL 4
REMARK VINA RESULT:      -7.0      0.927      1.483
REMARK  Name = 
REMARK  8 active torsions:
REMARK  status: ('A' for Active; 'I' for Inactive)
REMARK    1  A    between atoms: C_1  and  C_2
REMARK    2  A    between atoms: C_2  and  S_3
REMARK    3  A    between atoms: S_3  and  N_6
REMARK    4  A    between atoms: N_6  and  C_7
REMARK    5  A    between atoms: N_6  and  C_19
REMARK    6  A    between atoms: C_7  and  C_8
REMARK    7  A    between atoms: C_13  and  C_14
REMARK    8  A    between atoms: C_27  and  C_28
REMARK                            x       y       z     vdW  Elec       q    Type
REMARK                         _______ _______ _______ _____ _____    ______ ____
ROOT
ATOM      1  N   UNL     1       0.236  12.008  18.961  0.00  0.00    +0.000 N 
ENDROOT
BRANCH   1   2
ATOM      2  C   UNL     1      -1.179  11.859  18.694  0.00  0.00    +0.000 A 
ATOM      3  S   UNL     1      -1.813  11.318  17.212  0.00  0.00    +0.000 S 
ATOM      4  C   UNL     1      -3.435  11.561  17.728  0.00  0.00    +0.000 A 
ATOM      5  C   UNL     1      -4.605  11.378  16.956  0.00  0.00    +0.000 A 
ATOM      6  C   UNL     1      -5.850  11.606  17.545  0.00  0.00    +0.000 A 
ATOM      7  C   UNL     1      -5.940  11.985  18.873  0.00  0.00    +0.000 A 
ATOM      8  C   UNL     1      -4.781  12.153  19.636  0.00  0.00    +0.000 A 
ATOM      9  C   UNL     1      -3.492  11.973  19.064  0.00  0.00    +0.000 A 
ATOM     10  C   UNL     1      -2.163  12.149  19.631  0.00  0.00    +0.000 A 
BRANCH  10  11
ATOM     11  C   UNL     1      -1.845  12.635  20.978  0.00  0.00    +0.000 A 
ATOM     12  C   UNL     1      -1.200  11.871  21.930  0.00  0.00    +0.000 A 
ATOM     13  N   UNL     1      -0.824  12.306  23.151  0.00  0.00    +0.000 NA
ATOM     14  C   UNL     1      -1.117  13.581  23.421  0.00  0.00    +0.000 A 
ATOM     15  N   UNL     1      -1.754  14.429  22.598  0.00  0.00    +0.000 NA
ATOM     16  C   UNL     1      -2.100  13.929  21.389  0.00  0.00    +0.000 A 
ENDBRANCH  10  11
ENDBRANCH   1   2
BRANCH   1  17
ATOM     17  S   UNL     1       0.807  13.630  18.851  0.00  0.00    +0.000 S 
ATOM     18  O   UNL     1      -0.330  14.473  18.538  0.00  0.00    +0.000 OA
ATOM     19  O   UNL     1       1.968  13.618  17.987  0.00  0.00    +0.000 OA
BRANCH  17  21
ATOM     20  C   UNL     1       1.248  15.525  20.821  0.00  0.00    +0.000 C 
ATOM     21  C   UNL     1       1.377  14.047  20.507  0.00  0.00    +0.000 C 
ENDBRANCH  17  21
ENDBRANCH   1  17
BRANCH   1  22
ATOM     22  C   UNL     1       1.150  11.001  18.323  0.00  0.00    +0.000 C 
BRANCH  22  23
ATOM     23  C   UNL     1       1.241   9.688  19.080  0.00  0.00    +0.000 A 
ATOM     24  C   UNL     1       0.687   9.546  20.361  0.00  0.00    +0.000 A 
ATOM     25  C   UNL     1       0.898   8.384  21.104  0.00  0.00    +0.000 A 
ATOM     26  C   UNL     1       1.632   7.337  20.558  0.00  0.00    +0.000 A 
ATOM     27  F   UNL     1       1.831   6.243  21.307  0.00  0.00    +0.000 F 
ATOM     28  C   UNL     1       2.141   7.415  19.267  0.00  0.00    +0.000 A 
ATOM     29  C   UNL     1       1.937   8.598  18.531  0.00  0.00    +0.000 A 
BRANCH  28  30
ATOM     30  C   UNL     1       2.884   6.266  18.655  0.00  0.00    +0.000 C 
ATOM     31  F   UNL     1       3.911   5.774  19.400  0.00  0.00    +0.000 F 
ATOM     32  F   UNL     1       2.061   5.202  18.420  0.00  0.00    +0.000 F 
ATOM     33  F   UNL     1       3.426   6.578  17.444  0.00  0.00    +0.000 F 
ENDBRANCH  28  30
ENDBRANCH  22  23
ENDBRANCH   1  22
TORSDOF 7
ENDMDL
MODEL 5
REMARK VINA RESULT:      -6.9      2.143      4.854
REMARK  Name = 
REMARK  8 active torsions:
REMARK  status: ('A' for Active; 'I' for Inactive)
REMARK    1  A    between atoms: C_1  and  C_2
REMARK    2  A    between atoms: C_2  and  S_3
REMARK    3  A    between atoms: S_3  and  N_6
REMARK    4  A    between atoms: N_6  and  C_7
REMARK    5  A    between atoms: N_6  and  C_19
REMARK    6  A    between atoms: C_7  and  C_8
REMARK    7  A    between atoms: C_13  and  C_14
REMARK    8  A    between atoms: C_27  and  C_28
REMARK                            x       y       z     vdW  Elec       q    Type
REMARK                         _______ _______ _______ _____ _____    ______ ____
ROOT
ATOM      1  N   UNL     1      -0.487  11.675  20.122  0.00  0.00    +0.000 N 
ENDROOT
BRANCH   1   2
ATOM      2  C   UNL     1      -0.534  12.639  21.201  0.00  0.00    +0.000 A 
ATOM      3  S   UNL     1      -1.515  12.473  22.579  0.00  0.00    +0.000 S 
ATOM      4  C   UNL     1      -1.050  14.011  23.192  0.00  0.00    +0.000 A 
ATOM      5  C   UNL     1      -1.541  14.641  24.358  0.00  0.00    +0.000 A 
ATOM      6  C   UNL     1      -1.036  15.892  24.719  0.00  0.00    +0.000 A 
ATOM      7  C   UNL     1      -0.050  16.497  23.958  0.00  0.00    +0.000 A 
ATOM      8  C   UNL     1       0.440  15.865  22.811  0.00  0.00    +0.000 A 
ATOM      9  C   UNL     1      -0.077  14.611  22.385  0.00  0.00    +0.000 A 
ATOM     10  C   UNL     1       0.225  13.803  21.214  0.00  0.00    +0.000 A 
BRANCH  10  11
ATOM     11  C   UNL     1       1.142  14.152  20.123  0.00  0.00    +0.000 A 
ATOM     12  C   UNL     1       0.892  15.158  19.211  0.00  0.00    +0.000 A 
ATOM     13  N   UNL     1       1.743  15.558  18.242  0.00  0.00    +0.000 NA
ATOM     14  C   UNL     1       2.907  14.902  18.195  0.00  0.00    +0.000 A 
ATOM     15  N   UNL     1       3.272  13.896  19.005  0.00  0.00    +0.000 NA
ATOM     16  C   UNL     1       2.374  13.548  19.955  0.00  0.00    +0.000 A 
ENDBRANCH  10  11
ENDBRANCH   1   2
BRANCH   1  17
ATOM     17  S   UNL     1      -1.708  11.897  18.927  0.00  0.00    +0.000 S 
ATOM     18  O   UNL     1      -1.108  12.612  17.818  0.00  0.00    +0.000 OA
ATOM     19  O   UNL     1      -2.873  12.432  19.598  0.00  0.00    +0.000 OA
BRANCH  17  21
ATOM     20  C   UNL     1      -2.155  10.117  16.853  0.00  0.00    +0.000 C 
ATOM     21  C   UNL     1      -2.130  10.239  18.364  0.00  0.00    +0.000 C 
ENDBRANCH  17  21
ENDBRANCH   1  17
BRANCH   1  22
ATOM     22  C   UNL     1      -0.276  10.240  20.511  0.00  0.00    +0.000 C 
BRANCH  22  23
ATOM     23  C   UNL     1       0.811   9.541  19.713  0.00  0.00    +0.000 A 
ATOM     24  C   UNL     1       1.399  10.151  18.594  0.00  0.00    +0.000 A 
ATOM     25  C   UNL     1       2.292   9.446  17.786  0.00  0.00    +0.000 A 
ATOM     26  C   UNL     1       2.637   8.139  18.110  0.00  0.00    +0.000 A 
ATOM     27  F   UNL     1       3.482   7.487  17.301  0.00  0.00    +0.000 F 
ATOM     28  C   UNL     1       2.125   7.524  19.247  0.00  0.00    +0.000 A 
ATOM     29  C   UNL     1       1.211   8.237  20.048  0.00  0.00    +0.000 A 
BRANCH  28  30
ATOM     30  C   UNL     1       2.537   6.135  19.631  0.00  0.00    +0.000 C 
ATOM     31  F   UNL     1       2.196   5.161  18.744  0.00  0.00    +0.000 F 
ATOM     32  F   UNL     1       3.891   6.036  19.779  0.00  0.00    +0.000 F 
ATOM     33  F   UNL     1       2.013   5.743  20.826  0.00  0.00    +0.000 F 
ENDBRANCH  28  30
ENDBRANCH  22  23
ENDBRANCH   1  22
TORSDOF 7
ENDMDL
MODEL 6
REMARK VINA RESULT:      -6.9      2.128      4.945
REMARK  Name = 
REMARK  8 active torsions:
REMARK  status: ('A' for Active; 'I' for Inactive)
REMARK    1  A    between atoms: C_1  and  C_2
REMARK    2  A    between atoms: C_2  and  S_3
REMARK    3  A    between atoms: S_3  and  N_6
REMARK    4  A    between atoms: N_6  and  C_7
REMARK    5  A    between atoms: N_6  and  C_19
REMARK    6  A    between atoms: C_7  and  C_8
REMARK    7  A    between atoms: C_13  and  C_14
REMARK    8  A    between atoms: C_27  and  C_28
REMARK                            x       y       z     vdW  Elec       q    Type
REMARK                         _______ _______ _______ _____ _____    ______ ____
ROOT
ATOM      1  N   UNL     1      -0.500  11.696  20.164  0.00  0.00    +0.000 N 
ENDROOT
BRANCH   1   2
ATOM      2  C   UNL     1      -0.563  12.646  21.255  0.00  0.00    +0.000 A 
ATOM      3  S   UNL     1      -1.571  12.467  22.611  0.00  0.00    +0.000 S 
ATOM      4  C   UNL     1      -1.110  13.993  23.253  0.00  0.00    +0.000 A 
ATOM      5  C   UNL     1      -1.621  14.610  24.418  0.00  0.00    +0.000 A 
ATOM      6  C   UNL     1      -1.116  15.853  24.806  0.00  0.00    +0.000 A 
ATOM      7  C   UNL     1      -0.113  16.464  24.072  0.00  0.00    +0.000 A 
ATOM      8  C   UNL     1       0.396  15.844  22.927  0.00  0.00    +0.000 A 
ATOM      9  C   UNL     1      -0.119  14.599  22.474  0.00  0.00    +0.000 A 
ATOM     10  C   UNL     1       0.202  13.805  21.298  0.00  0.00    +0.000 A 
BRANCH  10  11
ATOM     11  C   UNL     1       1.141  14.164  20.229  0.00  0.00    +0.000 A 
ATOM     12  C   UNL     1       2.333  13.505  20.010  0.00  0.00    +0.000 A 
ATOM     13  N   UNL     1       3.186  13.757  18.994  0.00  0.00    +0.000 NA
ATOM     14  C   UNL     1       2.810  14.730  18.158  0.00  0.00    +0.000 A 
ATOM     15  N   UNL     1       1.690  15.462  18.262  0.00  0.00    +0.000 NA
ATOM     16  C   UNL     1       0.879  15.155  19.301  0.00  0.00    +0.000 A 
ENDBRANCH  10  11
ENDBRANCH   1   2
BRANCH   1  17
ATOM     17  S   UNL     1      -1.695  11.941  18.948  0.00  0.00    +0.000 S 
ATOM     18  O   UNL     1      -1.062  12.641  17.848  0.00  0.00    +0.000 OA
ATOM     19  O   UNL     1      -2.860  12.502  19.598  0.00  0.00    +0.000 OA
BRANCH  17  21
ATOM     20  C   UNL     1      -2.119  10.160  16.870  0.00  0.00    +0.000 C 
ATOM     21  C   UNL     1      -2.143  10.291  18.381  0.00  0.00    +0.000 C 
ENDBRANCH  17  21
ENDBRANCH   1  17
BRANCH   1  22
ATOM     22  C   UNL     1      -0.304  10.255  20.537  0.00  0.00    +0.000 C 
BRANCH  22  23
ATOM     23  C   UNL     1       0.783   9.555  19.739  0.00  0.00    +0.000 A 
ATOM     24  C   UNL     1       1.362  10.160  18.613  0.00  0.00    +0.000 A 
ATOM     25  C   UNL     1       2.255   9.454  17.806  0.00  0.00    +0.000 A 
ATOM     26  C   UNL     1       2.607   8.151  18.138  0.00  0.00    +0.000 A 
ATOM     27  F   UNL     1       3.452   7.497  17.329  0.00  0.00    +0.000 F 
ATOM     28  C   UNL     1       2.104   7.542  19.282  0.00  0.00    +0.000 A 
ATOM     29  C   UNL     1       1.191   8.256  20.081  0.00  0.00    +0.000 A 
BRANCH  28  30
ATOM     30  C   UNL     1       2.526   6.158  19.673  0.00  0.00    +0.000 C 
ATOM     31  F   UNL     1       2.017   5.706  20.852  0.00  0.00    +0.000 F 
ATOM     32  F   UNL     1       2.153   5.235  18.738  0.00  0.00    +0.000 F 
ATOM     33  F   UNL     1       3.878   6.034  19.785  0.00  0.00    +0.000 F 
ENDBRANCH  28  30
ENDBRANCH  22  23
ENDBRANCH   1  22
TORSDOF 7
ENDMDL
MODEL 7
REMARK VINA RESULT:      -6.8      4.381      6.824
REMARK  Name = 
REMARK  8 active torsions:
REMARK  status: ('A' for Active; 'I' for Inactive)
REMARK    1  A    between atoms: C_1  and  C_2
REMARK    2  A    between atoms: C_2  and  S_3
REMARK    3  A    between atoms: S_3  and  N_6
REMARK    4  A    between atoms: N_6  and  C_7
REMARK    5  A    between atoms: N_6  and  C_19
REMARK    6  A    between atoms: C_7  and  C_8
REMARK    7  A    between atoms: C_13  and  C_14
REMARK    8  A    between atoms: C_27  and  C_28
REMARK                            x       y       z     vdW  Elec       q    Type
REMARK                         _______ _______ _______ _____ _____    ______ ____
ROOT
ATOM      1  N   UNL     1       0.029  11.679  19.503  0.00  0.00    +0.000 N 
ENDROOT
BRANCH   1   2
ATOM      2  C   UNL     1       0.878  12.807  19.182  0.00  0.00    +0.000 A 
ATOM      3  S   UNL     1       2.187  12.731  18.101  0.00  0.00    +0.000 S 
ATOM      4  C   UNL     1       2.644  14.358  18.417  0.00  0.00    +0.000 A 
ATOM      5  C   UNL     1       3.768  15.038  17.894  0.00  0.00    +0.000 A 
ATOM      6  C   UNL     1       3.978  16.373  18.246  0.00  0.00    +0.000 A 
ATOM      7  C   UNL     1       3.087  17.029  19.077  0.00  0.00    +0.000 A 
ATOM      8  C   UNL     1       1.970  16.356  19.583  0.00  0.00    +0.000 A 
ATOM      9  C   UNL     1       1.742  14.985  19.284  0.00  0.00    +0.000 A 
ATOM     10  C   UNL     1       0.704  14.070  19.734  0.00  0.00    +0.000 A 
BRANCH  10  11
ATOM     11  C   UNL     1      -0.364  14.365  20.697  0.00  0.00    +0.000 A 
ATOM     12  C   UNL     1      -1.667  14.631  20.330  0.00  0.00    +0.000 A 
ATOM     13  N   UNL     1      -2.690  14.832  21.187  0.00  0.00    +0.000 NA
ATOM     14  C   UNL     1      -2.374  14.760  22.484  0.00  0.00    +0.000 A 
ATOM     15  N   UNL     1      -1.149  14.527  22.979  0.00  0.00    +0.000 NA
ATOM     16  C   UNL     1      -0.171  14.332  22.065  0.00  0.00    +0.000 A 
ENDBRANCH  10  11
ENDBRANCH   1   2
BRANCH   1  17
ATOM     17  S   UNL     1       0.566  10.756  20.855  0.00  0.00    +0.000 S 
ATOM     18  O   UNL     1       1.705  11.443  21.429  0.00  0.00    +0.000 OA
ATOM     19  O   UNL     1       0.686   9.382  20.415  0.00  0.00    +0.000 OA
BRANCH  17  21
ATOM     20  C   UNL     1      -0.602   9.855  23.199  0.00  0.00    +0.000 C 
ATOM     21  C   UNL     1      -0.786  10.819  22.043  0.00  0.00    +0.000 C 
ENDBRANCH  17  21
ENDBRANCH   1  17
BRANCH   1  22
ATOM     22  C   UNL     1      -0.443  10.843  18.349  0.00  0.00    +0.000 C 
BRANCH  22  23
ATOM     23  C   UNL     1      -1.912  11.030  18.014  0.00  0.00    +0.000 A 
ATOM     24  C   UNL     1      -2.407  10.755  16.730  0.00  0.00    +0.000 A 
ATOM     25  C   UNL     1      -3.725  11.064  16.394  0.00  0.00    +0.000 A 
ATOM     26  C   UNL     1      -4.574  11.613  17.348  0.00  0.00    +0.000 A 
ATOM     27  F   UNL     1      -5.828  11.915  16.985  0.00  0.00    +0.000 F 
ATOM     28  C   UNL     1      -4.138  11.839  18.649  0.00  0.00    +0.000 A 
ATOM     29  C   UNL     1      -2.801  11.539  18.975  0.00  0.00    +0.000 A 
BRANCH  28  30
ATOM     30  C   UNL     1      -5.065  12.378  19.696  0.00  0.00    +0.000 C 
ATOM     31  F   UNL     1      -5.461  13.667  19.514  0.00  0.00    +0.000 F 
ATOM     32  F   UNL     1      -6.218  11.649  19.770  0.00  0.00    +0.000 F 
ATOM     33  F   UNL     1      -4.528  12.332  20.947  0.00  0.00    +0.000 F 
ENDBRANCH  28  30
ENDBRANCH  22  23
ENDBRANCH   1  22
TORSDOF 7
ENDMDL
MODEL 8
REMARK VINA RESULT:      -6.8      0.911      1.052
REMARK  Name = 
REMARK  8 active torsions:
REMARK  status: ('A' for Active; 'I' for Inactive)
REMARK    1  A    between atoms: C_1  and  C_2
REMARK    2  A    between atoms: C_2  and  S_3
REMARK    3  A    between atoms: S_3  and  N_6
REMARK    4  A    between atoms: N_6  and  C_7
REMARK    5  A    between atoms: N_6  and  C_19
REMARK    6  A    between atoms: C_7  and  C_8
REMARK    7  A    between atoms: C_13  and  C_14
REMARK    8  A    between atoms: C_27  and  C_28
REMARK                            x       y       z     vdW  Elec       q    Type
REMARK                         _______ _______ _______ _____ _____    ______ ____
ROOT
ATOM      1  N   UNL     1       0.334  11.734  18.989  0.00  0.00    +0.000 N 
ENDROOT
BRANCH   1   2
ATOM      2  C   UNL     1      -1.084  11.686  18.702  0.00  0.00    +0.000 A 
ATOM      3  S   UNL     1      -1.735  11.181  17.215  0.00  0.00    +0.000 S 
ATOM      4  C   UNL     1      -3.342  11.546  17.705  0.00  0.00    +0.000 A 
ATOM      5  C   UNL     1      -4.510  11.443  16.917  0.00  0.00    +0.000 A 
ATOM      6  C   UNL     1      -5.744  11.766  17.485  0.00  0.00    +0.000 A 
ATOM      7  C   UNL     1      -5.826  12.160  18.810  0.00  0.00    +0.000 A 
ATOM      8  C   UNL     1      -4.668  12.250  19.589  0.00  0.00    +0.000 A 
ATOM      9  C   UNL     1      -3.388  11.972  19.037  0.00  0.00    +0.000 A 
ATOM     10  C   UNL     1      -2.058  12.054  19.622  0.00  0.00    +0.000 A 
BRANCH  10  11
ATOM     11  C   UNL     1      -1.724  12.526  20.971  0.00  0.00    +0.000 A 
ATOM     12  C   UNL     1      -2.002  13.800  21.422  0.00  0.00    +0.000 A 
ATOM     13  N   UNL     1      -1.778  14.247  22.676  0.00  0.00    +0.000 NA
ATOM     14  C   UNL     1      -1.245  13.355  23.516  0.00  0.00    +0.000 A 
ATOM     15  N   UNL     1      -0.910  12.092  23.207  0.00  0.00    +0.000 NA
ATOM     16  C   UNL     1      -1.163  11.709  21.934  0.00  0.00    +0.000 A 
ENDBRANCH  10  11
ENDBRANCH   1   2
BRANCH   1  17
ATOM     17  S   UNL     1       1.001  13.322  18.983  0.00  0.00    +0.000 S 
ATOM     18  O   UNL     1       2.077  13.340  18.012  0.00  0.00    +0.000 OA
ATOM     19  O   UNL     1       1.254  13.686  20.361  0.00  0.00    +0.000 OA
BRANCH  17  21
ATOM     20  C   UNL     1      -0.133  15.840  18.786  0.00  0.00    +0.000 C 
ATOM     21  C   UNL     1      -0.317  14.391  18.381  0.00  0.00    +0.000 C 
ENDBRANCH  17  21
ENDBRANCH   1  17
BRANCH   1  22
ATOM     22  C   UNL     1       1.194  10.714  18.299  0.00  0.00    +0.000 C 
BRANCH  22  23
ATOM     23  C   UNL     1       1.322   9.404  19.056  0.00  0.00    +0.000 A 
ATOM     24  C   UNL     1       0.788   9.253  20.345  0.00  0.00    +0.000 A 
ATOM     25  C   UNL     1       1.033   8.097  21.087  0.00  0.00    +0.000 A 
ATOM     26  C   UNL     1       1.781   7.064  20.533  0.00  0.00    +0.000 A 
ATOM     27  F   UNL     1       2.013   5.977  21.282  0.00  0.00    +0.000 F 
ATOM     28  C   UNL     1       2.273   7.151  19.235  0.00  0.00    +0.000 A 
ATOM     29  C   UNL     1       2.034   8.329  18.500  0.00  0.00    +0.000 A 
BRANCH  28  30
ATOM     30  C   UNL     1       3.032   6.017  18.616  0.00  0.00    +0.000 C 
ATOM     31  F   UNL     1       3.575   6.279  17.395  0.00  0.00    +0.000 F 
ATOM     32  F   UNL     1       4.076   5.621  19.403  0.00  0.00    +0.000 F 
ATOM     33  F   UNL     1       2.265   4.904  18.445  0.00  0.00    +0.000 F 
ENDBRANCH  28  30
ENDBRANCH  22  23
ENDBRANCH   1  22
TORSDOF 7
ENDMDL
MODEL 9
REMARK VINA RESULT:      -6.8      4.041      6.746
REMARK  Name = 
REMARK  8 active torsions:
REMARK  status: ('A' for Active; 'I' for Inactive)
REMARK    1  A    between atoms: C_1  and  C_2
REMARK    2  A    between atoms: C_2  and  S_3
REMARK    3  A    between atoms: S_3  and  N_6
REMARK    4  A    between atoms: N_6  and  C_7
REMARK    5  A    between atoms: N_6  and  C_19
REMARK    6  A    between atoms: C_7  and  C_8
REMARK    7  A    between atoms: C_13  and  C_14
REMARK    8  A    between atoms: C_27  and  C_28
REMARK                            x       y       z     vdW  Elec       q    Type
REMARK                         _______ _______ _______ _____ _____    ______ ____
ROOT
ATOM      1  N   UNL     1      -0.104  10.976  19.667  0.00  0.00    +0.000 N 
ENDROOT
BRANCH   1   2
ATOM      2  C   UNL     1       0.729  12.123  19.374  0.00  0.00    +0.000 A 
ATOM      3  S   UNL     1       2.087  12.072  18.354  0.00  0.00    +0.000 S 
ATOM      4  C   UNL     1       2.486  13.714  18.674  0.00  0.00    +0.000 A 
ATOM      5  C   UNL     1       3.615  14.418  18.197  0.00  0.00    +0.000 A 
ATOM      6  C   UNL     1       3.774  15.761  18.544  0.00  0.00    +0.000 A 
ATOM      7  C   UNL     1       2.828  16.402  19.326  0.00  0.00    +0.000 A 
ATOM      8  C   UNL     1       1.708  15.703  19.787  0.00  0.00    +0.000 A 
ATOM      9  C   UNL     1       1.529  14.324  19.492  0.00  0.00    +0.000 A 
ATOM     10  C   UNL     1       0.496  13.386  19.904  0.00  0.00    +0.000 A 
BRANCH  10  11
ATOM     11  C   UNL     1      -0.622  13.661  20.813  0.00  0.00    +0.000 A 
ATOM     12  C   UNL     1      -0.584  13.399  22.167  0.00  0.00    +0.000 A 
ATOM     13  N   UNL     1      -1.562  13.706  23.046  0.00  0.00    +0.000 NA
ATOM     14  C   UNL     1      -2.633  14.309  22.524  0.00  0.00    +0.000 A 
ATOM     15  N   UNL     1      -2.810  14.608  21.228  0.00  0.00    +0.000 NA
ATOM     16  C   UNL     1      -1.791  14.275  20.402  0.00  0.00    +0.000 A 
ENDBRANCH  10  11
ENDBRANCH   1   2
BRANCH   1  17
ATOM     17  S   UNL     1       0.497   9.974  20.933  0.00  0.00    +0.000 S 
ATOM     18  O   UNL     1      -0.642   9.343  21.569  0.00  0.00    +0.000 OA
ATOM     19  O   UNL     1       1.419  10.773  21.711  0.00  0.00    +0.000 OA
BRANCH  17  21
ATOM     20  C   UNL     1       1.455   7.377  20.860  0.00  0.00    +0.000 C 
ATOM     21  C   UNL     1       1.462   8.695  20.110  0.00  0.00    +0.000 C 
ENDBRANCH  17  21
ENDBRANCH   1  17
BRANCH   1  22
ATOM     22  C   UNL     1      -0.633  10.209  18.489  0.00  0.00    +0.000 C 
BRANCH  22  23
ATOM     23  C   UNL     1      -2.014  10.651  18.037  0.00  0.00    +0.000 A 
ATOM     24  C   UNL     1      -2.388  10.600  16.685  0.00  0.00    +0.000 A 
ATOM     25  C   UNL     1      -3.604  11.139  16.262  0.00  0.00    +0.000 A 
ATOM     26  C   UNL     1      -4.474  11.699  17.190  0.00  0.00    +0.000 A 
ATOM     27  F   UNL     1      -5.623  12.225  16.745  0.00  0.00    +0.000 F 
ATOM     28  C   UNL     1      -4.166  11.710  18.546  0.00  0.00    +0.000 A 
ATOM     29  C   UNL     1      -2.930  11.178  18.962  0.00  0.00    +0.000 A 
BRANCH  28  30
ATOM     30  C   UNL     1      -5.126  12.262  19.556  0.00  0.00    +0.000 C 
ATOM     31  F   UNL     1      -4.720  12.177  20.852  0.00  0.00    +0.000 F 
ATOM     32  F   UNL     1      -5.379  13.586  19.338  0.00  0.00    +0.000 F 
ATOM     33  F   UNL     1      -6.343  11.649  19.511  0.00  0.00    +0.000 F 
ENDBRANCH  28  30
ENDBRANCH  22  23
ENDBRANCH   1  22
TORSDOF 7
ENDMDL
