MODEL 1
REMARK VINA RESULT:      -8.1      0.000      0.000
REMARK  Name = 
REMARK  6 active torsions:
REMARK  status: ('A' for Active; 'I' for Inactive)
REMARK    1  A    between atoms: C_1  and  N_2
REMARK    2  A    between atoms: N_2  and  C_3
REMARK    3  A    between atoms: N_8  and  S_9
REMARK    4  A    between atoms: S_9  and  C_12
REMARK    5  A    between atoms: C_12  and  C_13
REMARK    6  A    between atoms: C_13  and  C_14
REMARK                            x       y       z     vdW  Elec       q    Type
REMARK                         _______ _______ _______ _____ _____    ______ ____
ROOT
ATOM      1  S   UNL     1       7.220   5.562  18.017  0.00  0.00    +0.000 S 
ATOM      2  O   UNL     1       7.901   6.839  18.084  0.00  0.00    +0.000 OA
ATOM      3  O   UNL     1       7.971   4.320  17.991  0.00  0.00    +0.000 OA
ENDROOT
BRANCH   1  11
ATOM      4  C   UNL     1       1.373   4.414  17.846  0.00  0.00    +0.000 C 
ATOM      5  N   UNL     1       2.057   3.377  18.589  0.00  0.00    +0.000 N 
ATOM      6  C   UNL     1       1.444   2.063  18.680  0.00  0.00    +0.000 C 
ATOM      7  C   UNL     1       3.354   3.520  18.935  0.00  0.00    +0.000 A 
ATOM      8  N   UNL     1       4.156   2.546  19.382  0.00  0.00    +0.000 NA
ATOM      9  N   UNL     1       5.323   3.189  19.527  0.00  0.00    +0.000 N 
ATOM     10  C   UNL     1       5.189   4.507  19.219  0.00  0.00    +0.000 A 
ATOM     11  N   UNL     1       6.173   5.513  19.344  0.00  0.00    +0.000 N 
ATOM     12  N   UNL     1       3.959   4.755  18.853  0.00  0.00    +0.000 NA
ATOM     13  H   UNL     1       6.134   2.701  19.889  0.00  0.00    +0.000 HD
ATOM     14  H   UNL     1       5.758   6.428  19.510  0.00  0.00    +0.000 HD
ENDBRANCH   1  11
BRANCH   1  15
ATOM     15  C   UNL     1       6.105   5.606  16.597  0.00  0.00    +0.000 C 
BRANCH  15  16
ATOM     16  C   UNL     1       6.064   4.258  15.888  0.00  0.00    +0.000 C 
BRANCH  16  17
ATOM     17  C   UNL     1       6.462   4.336  14.438  0.00  0.00    +0.000 A 
ATOM     18  C   UNL     1       5.906   3.457  13.497  0.00  0.00    +0.000 A 
ATOM     19  C   UNL     1       6.315   3.496  12.161  0.00  0.00    +0.000 A 
ATOM     20  C   UNL     1       7.277   4.418  11.753  0.00  0.00    +0.000 A 
ATOM     21  C   UNL     1       7.817   5.299  12.683  0.00  0.00    +0.000 A 
ATOM     22  F   UNL     1       8.745   6.184  12.293  0.00  0.00    +0.000 F 
ATOM     23  C   UNL     1       7.417   5.269  14.016  0.00  0.00    +0.000 A 
ENDBRANCH  16  17
ENDBRANCH  15  16
ENDBRANCH   1  15
TORSDOF 4
ENDMDL
MODEL 2
REMARK VINA RESULT:      -8.0      3.782      6.897
REMARK  Name = 
REMARK  6 active torsions:
REMARK  status: ('A' for Active; 'I' for Inactive)
REMARK    1  A    between atoms: C_1  and  N_2
REMARK    2  A    between atoms: N_2  and  C_3
REMARK    3  A    between atoms: N_8  and  S_9
REMARK    4  A    between atoms: S_9  and  C_12
REMARK    5  A    between atoms: C_12  and  C_13
REMARK    6  A    between atoms: C_13  and  C_14
REMARK                            x       y       z     vdW  Elec       q    Type
REMARK                         _______ _______ _______ _____ _____    ______ ____
ROOT
ATOM      1  S   UNL     1       5.599   5.497  18.012  0.00  0.00    +0.000 S 
ATOM      2  O   UNL     1       5.458   5.136  19.408  0.00  0.00    +0.000 OA
ATOM      3  O   UNL     1       6.024   6.832  17.630  0.00  0.00    +0.000 OA
ENDROOT
BRANCH   1  11
ATOM      4  C   UNL     1       5.327   3.170  12.531  0.00  0.00    +0.000 C 
ATOM      5  N   UNL     1       6.523   3.974  12.666  0.00  0.00    +0.000 N 
ATOM      6  C   UNL     1       7.123   4.539  11.470  0.00  0.00    +0.000 C 
ATOM      7  C   UNL     1       6.907   4.438  13.874  0.00  0.00    +0.000 A 
ATOM      8  N   UNL     1       7.825   5.389  14.091  0.00  0.00    +0.000 NA
ATOM      9  N   UNL     1       7.794   5.509  15.425  0.00  0.00    +0.000 N 
ATOM     10  C   UNL     1       6.918   4.622  15.969  0.00  0.00    +0.000 A 
ATOM     11  N   UNL     1       6.687   4.389  17.343  0.00  0.00    +0.000 N 
ATOM     12  N   UNL     1       6.349   3.922  15.023  0.00  0.00    +0.000 NA
ATOM     13  H   UNL     1       8.420   6.152  15.895  0.00  0.00    +0.000 HD
ATOM     14  H   UNL     1       6.381   3.433  17.518  0.00  0.00    +0.000 HD
ENDBRANCH   1  11
BRANCH   1  15
ATOM     15  C   UNL     1       4.040   5.116  17.184  0.00  0.00    +0.000 C 
BRANCH  15  16
ATOM     16  C   UNL     1       2.860   5.739  17.919  0.00  0.00    +0.000 C 
BRANCH  16  17
ATOM     17  C   UNL     1       2.137   4.768  18.815  0.00  0.00    +0.000 A 
ATOM     18  C   UNL     1       2.147   4.937  20.207  0.00  0.00    +0.000 A 
ATOM     19  C   UNL     1       1.519   4.006  21.040  0.00  0.00    +0.000 A 
ATOM     20  C   UNL     1       0.871   2.903  20.488  0.00  0.00    +0.000 A 
ATOM     21  C   UNL     1       0.849   2.744  19.107  0.00  0.00    +0.000 A 
ATOM     22  F   UNL     1       0.229   1.681  18.575  0.00  0.00    +0.000 F 
ATOM     23  C   UNL     1       1.470   3.664  18.268  0.00  0.00    +0.000 A 
ENDBRANCH  16  17
ENDBRANCH  15  16
ENDBRANCH   1  15
TORSDOF 4
ENDMDL
MODEL 3
REMARK VINA RESULT:      -8.0      3.830      6.865
REMARK  Name = 
REMARK  6 active torsions:
REMARK  status: ('A' for Active; 'I' for Inactive)
REMARK    1  A    between atoms: C_1  and  N_2
REMARK    2  A    between atoms: N_2  and  C_3
REMARK    3  A    between atoms: N_8  and  S_9
REMARK    4  A    between atoms: S_9  and  C_12
REMARK    5  A    between atoms: C_12  and  C_13
REMARK    6  A    between atoms: C_13  and  C_14
REMARK                            x       y       z     vdW  Elec       q    Type
REMARK                         _______ _______ _______ _____ _____    ______ ____
ROOT
ATOM      1  S   UNL     1       5.314   5.664  17.993  0.00  0.00    +0.000 S 
ATOM      2  O   UNL     1       5.259   5.508  19.432  0.00  0.00    +0.000 OA
ATOM      3  O   UNL     1       5.732   6.921  17.397  0.00  0.00    +0.000 OA
ENDROOT
BRANCH   1  11
ATOM      4  C   UNL     1       5.215   3.239  12.548  0.00  0.00    +0.000 C 
ATOM      5  N   UNL     1       6.466   3.935  12.755  0.00  0.00    +0.000 N 
ATOM      6  C   UNL     1       7.197   4.414  11.595  0.00  0.00    +0.000 C 
ATOM      7  C   UNL     1       6.806   4.392  13.979  0.00  0.00    +0.000 A 
ATOM      8  N   UNL     1       7.789   5.261  14.244  0.00  0.00    +0.000 NA
ATOM      9  N   UNL     1       7.676   5.416  15.570  0.00  0.00    +0.000 N 
ATOM     10  C   UNL     1       6.687   4.624  16.065  0.00  0.00    +0.000 A 
ATOM     11  N   UNL     1       6.340   4.447  17.423  0.00  0.00    +0.000 N 
ATOM     12  N   UNL     1       6.124   3.956  15.093  0.00  0.00    +0.000 NA
ATOM     13  H   UNL     1       8.324   6.011  16.072  0.00  0.00    +0.000 HD
ATOM     14  H   UNL     1       5.937   3.527  17.593  0.00  0.00    +0.000 HD
ENDBRANCH   1  11
BRANCH   1  15
ATOM     15  C   UNL     1       3.699   5.206  17.326  0.00  0.00    +0.000 C 
BRANCH  15  16
ATOM     16  C   UNL     1       3.421   3.722  17.528  0.00  0.00    +0.000 C 
BRANCH  16  17
ATOM     17  C   UNL     1       2.670   3.425  18.799  0.00  0.00    +0.000 A 
ATOM     18  C   UNL     1       1.324   3.793  18.935  0.00  0.00    +0.000 A 
ATOM     19  C   UNL     1       0.643   3.562  20.134  0.00  0.00    +0.000 A 
ATOM     20  C   UNL     1       1.300   2.957  21.203  0.00  0.00    +0.000 A 
ATOM     21  C   UNL     1       2.630   2.579  21.063  0.00  0.00    +0.000 A 
ATOM     22  F   UNL     1       3.265   2.001  22.091  0.00  0.00    +0.000 F 
ATOM     23  C   UNL     1       3.318   2.803  19.874  0.00  0.00    +0.000 A 
ENDBRANCH  16  17
ENDBRANCH  15  16
ENDBRANCH   1  15
TORSDOF 4
ENDMDL
MODEL 4
REMARK VINA RESULT:      -8.0      1.390      1.739
REMARK  Name = 
REMARK  6 active torsions:
REMARK  status: ('A' for Active; 'I' for Inactive)
REMARK    1  A    between atoms: C_1  and  N_2
REMARK    2  A    between atoms: N_2  and  C_3
REMARK    3  A    between atoms: N_8  and  S_9
REMARK    4  A    between atoms: S_9  and  C_12
REMARK    5  A    between atoms: C_12  and  C_13
REMARK    6  A    between atoms: C_13  and  C_14
REMARK                            x       y       z     vdW  Elec       q    Type
REMARK                         _______ _______ _______ _____ _____    ______ ____
ROOT
ATOM      1  S   UNL     1       7.063   5.929  17.174  0.00  0.00    +0.000 S 
ATOM      2  O   UNL     1       7.815   7.161  17.045  0.00  0.00    +0.000 OA
ATOM      3  O   UNL     1       7.730   4.641  17.098  0.00  0.00    +0.000 OA
ENDROOT
BRANCH   1  11
ATOM      4  C   UNL     1       1.458   4.208  18.247  0.00  0.00    +0.000 C 
ATOM      5  N   UNL     1       2.379   3.393  19.009  0.00  0.00    +0.000 N 
ATOM      6  C   UNL     1       1.958   2.063  19.418  0.00  0.00    +0.000 C 
ATOM      7  C   UNL     1       3.685   3.720  19.088  0.00  0.00    +0.000 A 
ATOM      8  N   UNL     1       4.666   2.923  19.532  0.00  0.00    +0.000 NA
ATOM      9  N   UNL     1       5.750   3.692  19.360  0.00  0.00    +0.000 N 
ATOM     10  C   UNL     1       5.403   4.914  18.875  0.00  0.00    +0.000 A 
ATOM     11  N   UNL     1       6.259   6.017  18.658  0.00  0.00    +0.000 N 
ATOM     12  N   UNL     1       4.109   4.973  18.702  0.00  0.00    +0.000 NA
ATOM     13  H   UNL     1       6.664   3.357  19.642  0.00  0.00    +0.000 HD
ATOM     14  H   UNL     1       5.764   6.903  18.748  0.00  0.00    +0.000 HD
ENDBRANCH   1  11
BRANCH   1  15
ATOM     15  C   UNL     1       5.725   5.970  15.961  0.00  0.00    +0.000 C 
BRANCH  15  16
ATOM     16  C   UNL     1       5.379   4.569  15.476  0.00  0.00    +0.000 C 
BRANCH  16  17
ATOM     17  C   UNL     1       5.938   4.255  14.113  0.00  0.00    +0.000 A 
ATOM     18  C   UNL     1       7.097   4.898  13.652  0.00  0.00    +0.000 A 
ATOM     19  C   UNL     1       7.586   4.645  12.368  0.00  0.00    +0.000 A 
ATOM     20  C   UNL     1       6.925   3.742  11.536  0.00  0.00    +0.000 A 
ATOM     21  C   UNL     1       5.786   3.094  11.999  0.00  0.00    +0.000 A 
ATOM     22  F   UNL     1       5.147   2.230  11.199  0.00  0.00    +0.000 F 
ATOM     23  C   UNL     1       5.290   3.339  13.276  0.00  0.00    +0.000 A 
ENDBRANCH  16  17
ENDBRANCH  15  16
ENDBRANCH   1  15
TORSDOF 4
ENDMDL
MODEL 5
REMARK VINA RESULT:      -7.9      1.424      1.725
REMARK  Name = 
REMARK  6 active torsions:
REMARK  status: ('A' for Active; 'I' for Inactive)
REMARK    1  A    between atoms: C_1  and  N_2
REMARK    2  A    between atoms: N_2  and  C_3
REMARK    3  A    between atoms: N_8  and  S_9
REMARK    4  A    between atoms: S_9  and  C_12
REMARK    5  A    between atoms: C_12  and  C_13
REMARK    6  A    between atoms: C_13  and  C_14
REMARK                            x       y       z     vdW  Elec       q    Type
REMARK                         _______ _______ _______ _____ _____    ______ ____
ROOT
ATOM      1  S   UNL     1       6.215   5.984  17.773  0.00  0.00    +0.000 S 
ATOM      2  O   UNL     1       6.815   7.085  17.047  0.00  0.00    +0.000 OA
ATOM      3  O   UNL     1       6.486   5.793  19.188  0.00  0.00    +0.000 OA
ENDROOT
BRANCH   1  11
ATOM      4  C   UNL     1       2.120   1.846  19.051  0.00  0.00    +0.000 C 
ATOM      5  N   UNL     1       1.936   3.001  19.903  0.00  0.00    +0.000 N 
ATOM      6  C   UNL     1       1.273   2.824  21.184  0.00  0.00    +0.000 C 
ATOM      7  C   UNL     1       2.612   4.145  19.667  0.00  0.00    +0.000 A 
ATOM      8  N   UNL     1       2.727   5.175  20.516  0.00  0.00    +0.000 NA
ATOM      9  N   UNL     1       3.520   6.012  19.833  0.00  0.00    +0.000 N 
ATOM     10  C   UNL     1       3.816   5.504  18.607  0.00  0.00    +0.000 A 
ATOM     11  N   UNL     1       4.544   6.140  17.577  0.00  0.00    +0.000 N 
ATOM     12  N   UNL     1       3.252   4.334  18.462  0.00  0.00    +0.000 NA
ATOM     13  H   UNL     1       3.765   6.915  20.222  0.00  0.00    +0.000 HD
ATOM     14  H   UNL     1       4.257   5.814  16.655  0.00  0.00    +0.000 HD
ENDBRANCH   1  11
BRANCH   1  15
ATOM     15  C   UNL     1       6.609   4.460  16.888  0.00  0.00    +0.000 C 
BRANCH  15  16
ATOM     16  C   UNL     1       5.590   4.183  15.791  0.00  0.00    +0.000 C 
BRANCH  16  17
ATOM     17  C   UNL     1       6.169   4.275  14.404  0.00  0.00    +0.000 A 
ATOM     18  C   UNL     1       5.640   3.507  13.356  0.00  0.00    +0.000 A 
ATOM     19  C   UNL     1       6.211   3.556  12.081  0.00  0.00    +0.000 A 
ATOM     20  C   UNL     1       7.312   4.377  11.842  0.00  0.00    +0.000 A 
ATOM     21  C   UNL     1       7.827   5.149  12.877  0.00  0.00    +0.000 A 
ATOM     22  F   UNL     1       8.887   5.935  12.649  0.00  0.00    +0.000 F 
ATOM     23  C   UNL     1       7.266   5.109  14.150  0.00  0.00    +0.000 A 
ENDBRANCH  16  17
ENDBRANCH  15  16
ENDBRANCH   1  15
TORSDOF 4
ENDMDL
MODEL 6
REMARK VINA RESULT:      -7.8      1.721      2.115
REMARK  Name = 
REMARK  6 active torsions:
REMARK  status: ('A' for Active; 'I' for Inactive)
REMARK    1  A    between atoms: C_1  and  N_2
REMARK    2  A    between atoms: N_2  and  C_3
REMARK    3  A    between atoms: N_8  and  S_9
REMARK    4  A    between atoms: S_9  and  C_12
REMARK    5  A    between atoms: C_12  and  C_13
REMARK    6  A    between atoms: C_13  and  C_14
REMARK                            x       y       z     vdW  Elec       q    Type
REMARK                         _______ _______ _______ _____ _____    ______ ____
ROOT
ATOM      1  S   UNL     1       6.442   5.577  18.300  0.00  0.00    +0.000 S 
ATOM      2  O   UNL     1       5.142   6.207  18.187  0.00  0.00    +0.000 OA
ATOM      3  O   UNL     1       7.501   6.196  19.078  0.00  0.00    +0.000 OA
ENDROOT
BRANCH   1  11
ATOM      4  C   UNL     1       1.413   3.655  20.858  0.00  0.00    +0.000 C 
ATOM      5  N   UNL     1       1.662   2.913  19.641  0.00  0.00    +0.000 N 
ATOM      6  C   UNL     1       0.537   2.299  18.955  0.00  0.00    +0.000 C 
ATOM      7  C   UNL     1       2.840   3.027  18.994  0.00  0.00    +0.000 A 
ATOM      8  N   UNL     1       3.092   2.608  17.747  0.00  0.00    +0.000 NA
ATOM      9  N   UNL     1       4.362   2.998  17.572  0.00  0.00    +0.000 N 
ATOM     10  C   UNL     1       4.847   3.583  18.700  0.00  0.00    +0.000 A 
ATOM     11  N   UNL     1       6.168   4.031  18.925  0.00  0.00    +0.000 N 
ATOM     12  N   UNL     1       3.920   3.609  19.621  0.00  0.00    +0.000 NA
ATOM     13  H   UNL     1       4.847   2.786  16.708  0.00  0.00    +0.000 HD
ATOM     14  H   UNL     1       6.417   3.991  19.911  0.00  0.00    +0.000 HD
ENDBRANCH   1  11
BRANCH   1  15
ATOM     15  C   UNL     1       7.048   5.261  16.628  0.00  0.00    +0.000 C 
BRANCH  15  16
ATOM     16  C   UNL     1       5.910   5.283  15.616  0.00  0.00    +0.000 C 
BRANCH  16  17
ATOM     17  C   UNL     1       6.307   4.753  14.264  0.00  0.00    +0.000 A 
ATOM     18  C   UNL     1       7.455   5.234  13.617  0.00  0.00    +0.000 A 
ATOM     19  C   UNL     1       7.794   4.779  12.340  0.00  0.00    +0.000 A 
ATOM     20  C   UNL     1       6.992   3.835  11.701  0.00  0.00    +0.000 A 
ATOM     21  C   UNL     1       5.863   3.348  12.348  0.00  0.00    +0.000 A 
ATOM     22  F   UNL     1       5.089   2.443  11.733  0.00  0.00    +0.000 F 
ATOM     23  C   UNL     1       5.516   3.793  13.620  0.00  0.00    +0.000 A 
ENDBRANCH  16  17
ENDBRANCH  15  16
ENDBRANCH   1  15
TORSDOF 4
ENDMDL
MODEL 7
REMARK VINA RESULT:      -7.7      1.773      2.276
REMARK  Name = 
REMARK  6 active torsions:
REMARK  status: ('A' for Active; 'I' for Inactive)
REMARK    1  A    between atoms: C_1  and  N_2
REMARK    2  A    between atoms: N_2  and  C_3
REMARK    3  A    between atoms: N_8  and  S_9
REMARK    4  A    between atoms: S_9  and  C_12
REMARK    5  A    between atoms: C_12  and  C_13
REMARK    6  A    between atoms: C_13  and  C_14
REMARK                            x       y       z     vdW  Elec       q    Type
REMARK                         _______ _______ _______ _____ _____    ______ ____
ROOT
ATOM      1  S   UNL     1       6.258   6.007  17.987  0.00  0.00    +0.000 S 
ATOM      2  O   UNL     1       6.876   7.231  17.520  0.00  0.00    +0.000 OA
ATOM      3  O   UNL     1       6.466   5.542  19.347  0.00  0.00    +0.000 OA
ENDROOT
BRANCH   1  11
ATOM      4  C   UNL     1       2.072   1.885  18.998  0.00  0.00    +0.000 C 
ATOM      5  N   UNL     1       1.877   3.014  19.882  0.00  0.00    +0.000 N 
ATOM      6  C   UNL     1       1.172   2.804  21.136  0.00  0.00    +0.000 C 
ATOM      7  C   UNL     1       2.574   4.155  19.706  0.00  0.00    +0.000 A 
ATOM      8  N   UNL     1       2.676   5.155  20.592  0.00  0.00    +0.000 NA
ATOM      9  N   UNL     1       3.500   6.003  19.963  0.00  0.00    +0.000 N 
ATOM     10  C   UNL     1       3.828   5.532  18.730  0.00  0.00    +0.000 A 
ATOM     11  N   UNL     1       4.596   6.192  17.744  0.00  0.00    +0.000 N 
ATOM     12  N   UNL     1       3.254   4.375  18.528  0.00  0.00    +0.000 NA
ATOM     13  H   UNL     1       3.745   6.889  20.389  0.00  0.00    +0.000 HD
ATOM     14  H   UNL     1       4.334   5.900  16.804  0.00  0.00    +0.000 HD
ENDBRANCH   1  11
BRANCH   1  15
ATOM     15  C   UNL     1       6.712   4.687  16.840  0.00  0.00    +0.000 C 
BRANCH  15  16
ATOM     16  C   UNL     1       5.623   4.465  15.799  0.00  0.00    +0.000 C 
BRANCH  16  17
ATOM     17  C   UNL     1       6.160   4.308  14.400  0.00  0.00    +0.000 A 
ATOM     18  C   UNL     1       7.259   5.065  13.969  0.00  0.00    +0.000 A 
ATOM     19  C   UNL     1       7.724   4.956  12.655  0.00  0.00    +0.000 A 
ATOM     20  C   UNL     1       7.099   4.086  11.764  0.00  0.00    +0.000 A 
ATOM     21  C   UNL     1       6.019   3.325  12.197  0.00  0.00    +0.000 A 
ATOM     22  F   UNL     1       5.414   2.491  11.340  0.00  0.00    +0.000 F 
ATOM     23  C   UNL     1       5.548   3.425  13.502  0.00  0.00    +0.000 A 
ENDBRANCH  16  17
ENDBRANCH  15  16
ENDBRANCH   1  15
TORSDOF 4
ENDMDL
MODEL 8
REMARK VINA RESULT:      -7.6      1.183      1.329
REMARK  Name = 
REMARK  6 active torsions:
REMARK  status: ('A' for Active; 'I' for Inactive)
REMARK    1  A    between atoms: C_1  and  N_2
REMARK    2  A    between atoms: N_2  and  C_3
REMARK    3  A    between atoms: N_8  and  S_9
REMARK    4  A    between atoms: S_9  and  C_12
REMARK    5  A    between atoms: C_12  and  C_13
REMARK    6  A    between atoms: C_13  and  C_14
REMARK                            x       y       z     vdW  Elec       q    Type
REMARK                         _______ _______ _______ _____ _____    ______ ____
ROOT
ATOM      1  S   UNL     1       6.456   6.029  17.559  0.00  0.00    +0.000 S 
ATOM      2  O   UNL     1       5.113   6.265  17.069  0.00  0.00    +0.000 OA
ATOM      3  O   UNL     1       7.469   7.066  17.476  0.00  0.00    +0.000 OA
ENDROOT
BRANCH   1  11
ATOM      4  C   UNL     1       1.340   5.027  20.450  0.00  0.00    +0.000 C 
ATOM      5  N   UNL     1       2.116   3.807  20.384  0.00  0.00    +0.000 N 
ATOM      6  C   UNL     1       1.423   2.533  20.473  0.00  0.00    +0.000 C 
ATOM      7  C   UNL     1       3.396   3.828  19.957  0.00  0.00    +0.000 A 
ATOM      8  N   UNL     1       4.122   2.758  19.608  0.00  0.00    +0.000 NA
ATOM      9  N   UNL     1       5.277   3.317  19.222  0.00  0.00    +0.000 N 
ATOM     10  C   UNL     1       5.239   4.666  19.387  0.00  0.00    +0.000 A 
ATOM     11  N   UNL     1       6.297   5.579  19.180  0.00  0.00    +0.000 N 
ATOM     12  N   UNL     1       4.073   5.023  19.859  0.00  0.00    +0.000 NA
ATOM     13  H   UNL     1       6.051   2.736  18.923  0.00  0.00    +0.000 HD
ATOM     14  H   UNL     1       6.209   6.400  19.776  0.00  0.00    +0.000 HD
ENDBRANCH   1  11
BRANCH   1  15
ATOM     15  C   UNL     1       7.079   4.534  16.760  0.00  0.00    +0.000 C 
BRANCH  15  16
ATOM     16  C   UNL     1       6.060   3.968  15.779  0.00  0.00    +0.000 C 
BRANCH  16  17
ATOM     17  C   UNL     1       6.450   4.164  14.338  0.00  0.00    +0.000 A 
ATOM     18  C   UNL     1       5.896   3.358  13.332  0.00  0.00    +0.000 A 
ATOM     19  C   UNL     1       6.297   3.507  12.002  0.00  0.00    +0.000 A 
ATOM     20  C   UNL     1       7.249   4.467  11.664  0.00  0.00    +0.000 A 
ATOM     21  C   UNL     1       7.787   5.276  12.658  0.00  0.00    +0.000 A 
ATOM     22  F   UNL     1       8.705   6.196  12.336  0.00  0.00    +0.000 F 
ATOM     23  C   UNL     1       7.395   5.136  13.986  0.00  0.00    +0.000 A 
ENDBRANCH  16  17
ENDBRANCH  15  16
ENDBRANCH   1  15
TORSDOF 4
ENDMDL
MODEL 9
REMARK VINA RESULT:      -7.5      4.062      7.055
REMARK  Name = 
REMARK  6 active torsions:
REMARK  status: ('A' for Active; 'I' for Inactive)
REMARK    1  A    between atoms: C_1  and  N_2
REMARK    2  A    between atoms: N_2  and  C_3
REMARK    3  A    between atoms: N_8  and  S_9
REMARK    4  A    between atoms: S_9  and  C_12
REMARK    5  A    between atoms: C_12  and  C_13
REMARK    6  A    between atoms: C_13  and  C_14
REMARK                            x       y       z     vdW  Elec       q    Type
REMARK                         _______ _______ _______ _____ _____    ______ ____
ROOT
ATOM      1  S   UNL     1       5.255   5.987  17.664  0.00  0.00    +0.000 S 
ATOM      2  O   UNL     1       6.089   7.169  17.739  0.00  0.00    +0.000 OA
ATOM      3  O   UNL     1       4.085   5.956  16.804  0.00  0.00    +0.000 OA
ENDROOT
BRANCH   1  11
ATOM      4  C   UNL     1       5.213   3.144  12.425  0.00  0.00    +0.000 C 
ATOM      5  N   UNL     1       6.471   3.837  12.600  0.00  0.00    +0.000 N 
ATOM      6  C   UNL     1       7.230   4.214  11.419  0.00  0.00    +0.000 C 
ATOM      7  C   UNL     1       6.797   4.384  13.790  0.00  0.00    +0.000 A 
ATOM      8  N   UNL     1       7.789   5.258  14.004  0.00  0.00    +0.000 NA
ATOM      9  N   UNL     1       7.654   5.518  15.312  0.00  0.00    +0.000 N 
ATOM     10  C   UNL     1       6.646   4.781  15.849  0.00  0.00    +0.000 A 
ATOM     11  N   UNL     1       6.272   4.715  17.211  0.00  0.00    +0.000 N 
ATOM     12  N   UNL     1       6.089   4.046  14.923  0.00  0.00    +0.000 NA
ATOM     13  H   UNL     1       8.302   6.142  15.778  0.00  0.00    +0.000 HD
ATOM     14  H   UNL     1       5.853   3.817  17.444  0.00  0.00    +0.000 HD
ENDBRANCH   1  11
BRANCH   1  15
ATOM     15  C   UNL     1       4.759   5.555  19.347  0.00  0.00    +0.000 C 
BRANCH  15  16
ATOM     16  C   UNL     1       3.291   5.883  19.588  0.00  0.00    +0.000 C 
BRANCH  16  17
ATOM     17  C   UNL     1       2.418   4.660  19.688  0.00  0.00    +0.000 A 
ATOM     18  C   UNL     1       1.832   4.106  18.540  0.00  0.00    +0.000 A 
ATOM     19  C   UNL     1       0.981   3.002  18.639  0.00  0.00    +0.000 A 
ATOM     20  C   UNL     1       0.713   2.439  19.886  0.00  0.00    +0.000 A 
ATOM     21  C   UNL     1       1.305   2.979  21.021  0.00  0.00    +0.000 A 
ATOM     22  F   UNL     1       1.045   2.441  22.221  0.00  0.00    +0.000 F 
ATOM     23  C   UNL     1       2.155   4.078  20.934  0.00  0.00    +0.000 A 
ENDBRANCH  16  17
ENDBRANCH  15  16
ENDBRANCH   1  15
TORSDOF 4
ENDMDL
