MODEL 1
REMARK VINA RESULT:      -8.3      0.000      0.000
REMARK  Name = 
REMARK  5 active torsions:
REMARK  status: ('A' for Active; 'I' for Inactive)
REMARK    1  A    between atoms: C_1  and  C_2
REMARK    2  A    between atoms: C_4  and  O_5
REMARK    3  A    between atoms: C_8  and  O_9
REMARK    4  A    between atoms: C_11  and  C_12
REMARK    5  A    between atoms: C_12  and  C_14
REMARK                            x       y       z     vdW  Elec       q    Type
REMARK                         _______ _______ _______ _____ _____    ______ ____
ROOT
ATOM      1  C   UNL     1       2.465   3.974  17.410  0.00  0.00    +0.000 C 
ATOM      2  C   UNL     1       3.766   4.723  17.308  0.00  0.00    +0.000 A 
ATOM      3  C   UNL     1       4.803   4.006  16.587  0.00  0.00    +0.000 A 
ATOM      4  C   UNL     1       5.994   3.909  17.211  0.00  0.00    +0.000 A 
ATOM      5  C   UNL     1       6.849   4.948  16.578  0.00  0.00    +0.000 A 
ATOM      6  O   UNL     1       7.808   4.663  15.874  0.00  0.00    +0.000 OA
ATOM      7  C   UNL     1       6.457   6.366  16.933  0.00  0.00    +0.000 A 
ATOM      8  C   UNL     1       5.257   6.730  17.439  0.00  0.00    +0.000 A 
ATOM      9  C   UNL     1       4.054   5.959  17.834  0.00  0.00    +0.000 A 
ENDROOT
BRANCH   4  10
ATOM     10  O   UNL     1       6.091   3.782  18.598  0.00  0.00    +0.000 OA
ATOM     11  H   UNL     1       5.355   4.286  18.998  0.00  0.00    +0.000 HD
ENDBRANCH   4  10
BRANCH   7  12
ATOM     12  O   UNL     1       7.427   7.328  16.682  0.00  0.00    +0.000 OA
ATOM     13  H   UNL     1       7.673   7.289  15.744  0.00  0.00    +0.000 HD
ENDBRANCH   7  12
BRANCH   9  14
ATOM     14  C   UNL     1       3.140   6.393  18.977  0.00  0.00    +0.000 C 
ATOM     15  O   UNL     1       3.134   5.718  20.014  0.00  0.00    +0.000 OA
BRANCH  14  16
ATOM     16  C   UNL     1       2.247   7.593  19.016  0.00  0.00    +0.000 A 
ATOM     17  C   UNL     1       1.964   8.467  17.962  0.00  0.00    +0.000 A 
ATOM     18  C   UNL     1       1.129   9.578  18.144  0.00  0.00    +0.000 A 
ATOM     19  C   UNL     1       0.605   9.868  19.400  0.00  0.00    +0.000 A 
ATOM     20  C   UNL     1       0.923   9.046  20.474  0.00  0.00    +0.000 A 
ATOM     21 BR   UNL     1       0.279   9.468  22.200  0.00  0.00    +0.000 Br
ATOM     22  C   UNL     1       1.726   7.922  20.287  0.00  0.00    +0.000 A 
ENDBRANCH  14  16
ENDBRANCH   9  14
TORSDOF 4
ENDMDL
MODEL 2
REMARK VINA RESULT:      -7.6      3.816      6.942
REMARK  Name = 
REMARK  5 active torsions:
REMARK  status: ('A' for Active; 'I' for Inactive)
REMARK    1  A    between atoms: C_1  and  C_2
REMARK    2  A    between atoms: C_4  and  O_5
REMARK    3  A    between atoms: C_8  and  O_9
REMARK    4  A    between atoms: C_11  and  C_12
REMARK    5  A    between atoms: C_12  and  C_14
REMARK                            x       y       z     vdW  Elec       q    Type
REMARK                         _______ _______ _______ _____ _____    ______ ____
ROOT
ATOM      1  C   UNL     1       4.699   7.044  16.657  0.00  0.00    +0.000 C 
ATOM      2  C   UNL     1       4.123   5.739  17.136  0.00  0.00    +0.000 A 
ATOM      3  C   UNL     1       3.010   5.888  18.056  0.00  0.00    +0.000 A 
ATOM      4  C   UNL     1       3.097   5.189  19.205  0.00  0.00    +0.000 A 
ATOM      5  C   UNL     1       2.231   3.998  19.000  0.00  0.00    +0.000 A 
ATOM      6  O   UNL     1       1.188   3.837  19.618  0.00  0.00    +0.000 OA
ATOM      7  C   UNL     1       2.789   2.995  18.014  0.00  0.00    +0.000 A 
ATOM      8  C   UNL     1       3.752   3.263  17.103  0.00  0.00    +0.000 A 
ATOM      9  C   UNL     1       4.555   4.475  16.813  0.00  0.00    +0.000 A 
ENDROOT
BRANCH   4  10
ATOM     10  O   UNL     1       4.320   4.968  19.841  0.00  0.00    +0.000 OA
ATOM     11  H   UNL     1       4.613   4.061  19.625  0.00  0.00    +0.000 HD
ENDBRANCH   4  10
BRANCH   7  12
ATOM     12  O   UNL     1       2.221   1.728  18.074  0.00  0.00    +0.000 OA
ATOM     13  H   UNL     1       1.639   1.681  18.849  0.00  0.00    +0.000 HD
ENDBRANCH   7  12
BRANCH   9  14
ATOM     14  C   UNL     1       5.990   4.404  16.297  0.00  0.00    +0.000 C 
ATOM     15  O   UNL     1       6.906   4.295  17.121  0.00  0.00    +0.000 OA
BRANCH  14  16
ATOM     16  C   UNL     1       6.440   4.416  14.870  0.00  0.00    +0.000 A 
ATOM     17  C   UNL     1       7.544   5.091  14.340  0.00  0.00    +0.000 A 
ATOM     18  C   UNL     1       7.836   5.042  12.970  0.00  0.00    +0.000 A 
ATOM     19  C   UNL     1       6.997   4.361  12.094  0.00  0.00    +0.000 A 
ATOM     20  C   UNL     1       5.862   3.734  12.592  0.00  0.00    +0.000 A 
ATOM     21 BR   UNL     1       4.674   2.867  11.405  0.00  0.00    +0.000 Br
ATOM     22  C   UNL     1       5.589   3.754  13.959  0.00  0.00    +0.000 A 
ENDBRANCH  14  16
ENDBRANCH   9  14
TORSDOF 4
ENDMDL
MODEL 3
REMARK VINA RESULT:      -7.6      1.030      1.127
REMARK  Name = 
REMARK  5 active torsions:
REMARK  status: ('A' for Active; 'I' for Inactive)
REMARK    1  A    between atoms: C_1  and  C_2
REMARK    2  A    between atoms: C_4  and  O_5
REMARK    3  A    between atoms: C_8  and  O_9
REMARK    4  A    between atoms: C_11  and  C_12
REMARK    5  A    between atoms: C_12  and  C_14
REMARK                            x       y       z     vdW  Elec       q    Type
REMARK                         _______ _______ _______ _____ _____    ______ ____
ROOT
ATOM      1  C   UNL     1       1.376   3.976  18.322  0.00  0.00    +0.000 C 
ATOM      2  C   UNL     1       2.668   4.500  17.757  0.00  0.00    +0.000 A 
ATOM      3  C   UNL     1       3.354   3.563  16.886  0.00  0.00    +0.000 A 
ATOM      4  C   UNL     1       4.655   3.347  17.161  0.00  0.00    +0.000 A 
ATOM      5  C   UNL     1       5.403   4.172  16.176  0.00  0.00    +0.000 A 
ATOM      6  O   UNL     1       6.071   3.673  15.281  0.00  0.00    +0.000 OA
ATOM      7  C   UNL     1       5.304   5.661  16.422  0.00  0.00    +0.000 A 
ATOM      8  C   UNL     1       4.358   6.256  17.184  0.00  0.00    +0.000 A 
ATOM      9  C   UNL     1       3.243   5.724  18.003  0.00  0.00    +0.000 A 
ENDROOT
BRANCH   4  10
ATOM     10  O   UNL     1       5.141   3.347  18.470  0.00  0.00    +0.000 OA
ATOM     11  H   UNL     1       4.972   4.230  18.853  0.00  0.00    +0.000 HD
ENDBRANCH   4  10
BRANCH   7  12
ATOM     12  O   UNL     1       6.264   6.432  15.778  0.00  0.00    +0.000 OA
ATOM     13  H   UNL     1       6.009   6.539  14.847  0.00  0.00    +0.000 HD
ENDBRANCH   7  12
BRANCH   9  14
ATOM     14  C   UNL     1       2.764   6.407  19.281  0.00  0.00    +0.000 C 
ATOM     15  O   UNL     1       3.034   5.878  20.367  0.00  0.00    +0.000 OA
BRANCH  14  16
ATOM     16  C   UNL     1       2.016   7.698  19.392  0.00  0.00    +0.000 A 
ATOM     17  C   UNL     1       1.892   8.687  18.411  0.00  0.00    +0.000 A 
ATOM     18  C   UNL     1       1.183   9.871  18.658  0.00  0.00    +0.000 A 
ATOM     19  C   UNL     1       0.631  10.113  19.912  0.00  0.00    +0.000 A 
ATOM     20  C   UNL     1       0.794   9.170  20.919  0.00  0.00    +0.000 A 
ATOM     21 BR   UNL     1       0.114   9.517  22.647  0.00  0.00    +0.000 Br
ATOM     22  C   UNL     1       1.471   7.977  20.664  0.00  0.00    +0.000 A 
ENDBRANCH  14  16
ENDBRANCH   9  14
TORSDOF 4
ENDMDL
MODEL 4
REMARK VINA RESULT:      -7.4      2.946      5.764
REMARK  Name = 
REMARK  5 active torsions:
REMARK  status: ('A' for Active; 'I' for Inactive)
REMARK    1  A    between atoms: C_1  and  C_2
REMARK    2  A    between atoms: C_4  and  O_5
REMARK    3  A    between atoms: C_8  and  O_9
REMARK    4  A    between atoms: C_11  and  C_12
REMARK    5  A    between atoms: C_12  and  C_14
REMARK                            x       y       z     vdW  Elec       q    Type
REMARK                         _______ _______ _______ _____ _____    ______ ____
ROOT
ATOM      1  C   UNL     1       2.963   7.619  17.873  0.00  0.00    +0.000 C 
ATOM      2  C   UNL     1       2.852   6.124  18.000  0.00  0.00    +0.000 A 
ATOM      3  C   UNL     1       1.844   5.687  18.950  0.00  0.00    +0.000 A 
ATOM      4  C   UNL     1       2.252   4.790  19.869  0.00  0.00    +0.000 A 
ATOM      5  C   UNL     1       1.761   3.477  19.373  0.00  0.00    +0.000 A 
ATOM      6  O   UNL     1       0.880   2.851  19.948  0.00  0.00    +0.000 OA
ATOM      7  C   UNL     1       2.486   2.974  18.145  0.00  0.00    +0.000 A 
ATOM      8  C   UNL     1       3.228   3.745  17.318  0.00  0.00    +0.000 A 
ATOM      9  C   UNL     1       3.603   5.179  17.343  0.00  0.00    +0.000 A 
ENDROOT
BRANCH   4  10
ATOM     10  O   UNL     1       3.543   4.813  20.399  0.00  0.00    +0.000 OA
ATOM     11  H   UNL     1       3.547   5.433  21.154  0.00  0.00    +0.000 HD
ENDBRANCH   4  10
BRANCH   7  12
ATOM     12  O   UNL     1       2.328   1.619  17.878  0.00  0.00    +0.000 OA
ATOM     13  H   UNL     1       1.850   1.518  17.039  0.00  0.00    +0.000 HD
ENDBRANCH   7  12
BRANCH   9  14
ATOM     14  C   UNL     1       4.934   5.690  16.798  0.00  0.00    +0.000 C 
ATOM     15  O   UNL     1       5.031   5.893  15.581  0.00  0.00    +0.000 OA
BRANCH  14  16
ATOM     16  C   UNL     1       6.165   6.021  17.580  0.00  0.00    +0.000 A 
ATOM     17  C   UNL     1       6.792   5.224  18.542  0.00  0.00    +0.000 A 
ATOM     18  C   UNL     1       7.930   5.672  19.228  0.00  0.00    +0.000 A 
ATOM     19  C   UNL     1       8.430   6.951  19.003  0.00  0.00    +0.000 A 
ATOM     20  C   UNL     1       7.786   7.781  18.095  0.00  0.00    +0.000 A 
ATOM     21 BR   UNL     1       8.409   9.546  17.834  0.00  0.00    +0.000 Br
ATOM     22  C   UNL     1       6.674   7.324  17.388  0.00  0.00    +0.000 A 
ENDBRANCH  14  16
ENDBRANCH   9  14
TORSDOF 4
ENDMDL
MODEL 5
REMARK VINA RESULT:      -7.4      2.099      3.396
REMARK  Name = 
REMARK  5 active torsions:
REMARK  status: ('A' for Active; 'I' for Inactive)
REMARK    1  A    between atoms: C_1  and  C_2
REMARK    2  A    between atoms: C_4  and  O_5
REMARK    3  A    between atoms: C_8  and  O_9
REMARK    4  A    between atoms: C_11  and  C_12
REMARK    5  A    between atoms: C_12  and  C_14
REMARK                            x       y       z     vdW  Elec       q    Type
REMARK                         _______ _______ _______ _____ _____    ______ ____
ROOT
ATOM      1  C   UNL     1       6.184   5.083  19.411  0.00  0.00    +0.000 C 
ATOM      2  C   UNL     1       6.140   4.794  17.935  0.00  0.00    +0.000 A 
ATOM      3  C   UNL     1       7.235   5.384  17.186  0.00  0.00    +0.000 A 
ATOM      4  C   UNL     1       6.887   6.100  16.099  0.00  0.00    +0.000 A 
ATOM      5  C   UNL     1       7.130   5.195  14.944  0.00  0.00    +0.000 A 
ATOM      6  O   UNL     1       8.016   5.406  14.127  0.00  0.00    +0.000 OA
ATOM      7  C   UNL     1       6.155   4.043  14.850  0.00  0.00    +0.000 A 
ATOM      8  C   UNL     1       5.379   3.605  15.868  0.00  0.00    +0.000 A 
ATOM      9  C   UNL     1       5.184   4.073  17.260  0.00  0.00    +0.000 A 
ENDROOT
BRANCH   4  10
ATOM     10  O   UNL     1       5.715   6.857  16.061  0.00  0.00    +0.000 OA
ATOM     11  H   UNL     1       5.651   7.355  16.900  0.00  0.00    +0.000 HD
ENDBRANCH   4  10
BRANCH   7  12
ATOM     12  O   UNL     1       6.106   3.408  13.615  0.00  0.00    +0.000 OA
ATOM     13  H   UNL     1       6.950   3.550  13.156  0.00  0.00    +0.000 HD
ENDBRANCH   7  12
BRANCH   9  14
ATOM     14  C   UNL     1       3.849   3.947  17.990  0.00  0.00    +0.000 C 
ATOM     15  O   UNL     1       3.262   2.859  17.958  0.00  0.00    +0.000 OA
BRANCH  14  16
ATOM     16  C   UNL     1       3.155   5.000  18.796  0.00  0.00    +0.000 A 
ATOM     17  C   UNL     1       2.567   4.847  20.054  0.00  0.00    +0.000 A 
ATOM     18  C   UNL     1       1.918   5.916  20.689  0.00  0.00    +0.000 A 
ATOM     19  C   UNL     1       1.798   7.146  20.050  0.00  0.00    +0.000 A 
ATOM     20  C   UNL     1       2.323   7.302  18.774  0.00  0.00    +0.000 A 
ATOM     21 BR   UNL     1       2.102   8.943  17.864  0.00  0.00    +0.000 Br
ATOM     22  C   UNL     1       2.998   6.249  18.156  0.00  0.00    +0.000 A 
ENDBRANCH  14  16
ENDBRANCH   9  14
TORSDOF 4
ENDMDL
MODEL 6
REMARK VINA RESULT:      -7.4      4.177      6.408
REMARK  Name = 
REMARK  5 active torsions:
REMARK  status: ('A' for Active; 'I' for Inactive)
REMARK    1  A    between atoms: C_1  and  C_2
REMARK    2  A    between atoms: C_4  and  O_5
REMARK    3  A    between atoms: C_8  and  O_9
REMARK    4  A    between atoms: C_11  and  C_12
REMARK    5  A    between atoms: C_12  and  C_14
REMARK                            x       y       z     vdW  Elec       q    Type
REMARK                         _______ _______ _______ _____ _____    ______ ____
ROOT
ATOM      1  C   UNL     1       1.227   4.644  17.441  0.00  0.00    +0.000 C 
ATOM      2  C   UNL     1       2.168   4.039  18.448  0.00  0.00    +0.000 A 
ATOM      3  C   UNL     1       1.502   3.439  19.590  0.00  0.00    +0.000 A 
ATOM      4  C   UNL     1       1.953   3.821  20.802  0.00  0.00    +0.000 A 
ATOM      5  C   UNL     1       2.833   2.712  21.255  0.00  0.00    +0.000 A 
ATOM      6  O   UNL     1       2.537   1.988  22.196  0.00  0.00    +0.000 OA
ATOM      7  C   UNL     1       4.133   2.606  20.489  0.00  0.00    +0.000 A 
ATOM      8  C   UNL     1       4.362   3.165  19.279  0.00  0.00    +0.000 A 
ATOM      9  C   UNL     1       3.541   4.028  18.395  0.00  0.00    +0.000 A 
ENDROOT
BRANCH   4  10
ATOM     10  O   UNL     1       2.410   5.118  21.042  0.00  0.00    +0.000 OA
ATOM     11  H   UNL     1       3.014   5.364  20.313  0.00  0.00    +0.000 HD
ENDBRANCH   4  10
BRANCH   7  12
ATOM     12  O   UNL     1       5.123   1.852  21.105  0.00  0.00    +0.000 OA
ATOM     13  H   UNL     1       5.706   1.481  20.423  0.00  0.00    +0.000 HD
ENDBRANCH   7  12
BRANCH   9  14
ATOM     14  C   UNL     1       4.153   5.092  17.488  0.00  0.00    +0.000 C 
ATOM     15  O   UNL     1       3.736   6.252  17.579  0.00  0.00    +0.000 OA
BRANCH  14  16
ATOM     16  C   UNL     1       5.256   4.907  16.493  0.00  0.00    +0.000 A 
ATOM     17  C   UNL     1       6.588   5.309  16.629  0.00  0.00    +0.000 A 
ATOM     18  C   UNL     1       7.517   5.101  15.600  0.00  0.00    +0.000 A 
ATOM     19  C   UNL     1       7.118   4.536  14.393  0.00  0.00    +0.000 A 
ATOM     20  C   UNL     1       5.786   4.185  14.216  0.00  0.00    +0.000 A 
ATOM     21 BR   UNL     1       5.214   3.486  12.556  0.00  0.00    +0.000 Br
ATOM     22  C   UNL     1       4.868   4.361  15.251  0.00  0.00    +0.000 A 
ENDBRANCH  14  16
ENDBRANCH   9  14
TORSDOF 4
ENDMDL
MODEL 7
REMARK VINA RESULT:      -7.2      1.499      2.456
REMARK  Name = 
REMARK  5 active torsions:
REMARK  status: ('A' for Active; 'I' for Inactive)
REMARK    1  A    between atoms: C_1  and  C_2
REMARK    2  A    between atoms: C_4  and  O_5
REMARK    3  A    between atoms: C_8  and  O_9
REMARK    4  A    between atoms: C_11  and  C_12
REMARK    5  A    between atoms: C_12  and  C_14
REMARK                            x       y       z     vdW  Elec       q    Type
REMARK                         _______ _______ _______ _____ _____    ______ ____
ROOT
ATOM      1  C   UNL     1       6.048   5.183  19.655  0.00  0.00    +0.000 C 
ATOM      2  C   UNL     1       5.890   5.030  18.167  0.00  0.00    +0.000 A 
ATOM      3  C   UNL     1       7.128   5.188  17.424  0.00  0.00    +0.000 A 
ATOM      4  C   UNL     1       7.087   6.052  16.390  0.00  0.00    +0.000 A 
ATOM      5  C   UNL     1       6.952   5.201  15.178  0.00  0.00    +0.000 A 
ATOM      6  O   UNL     1       7.847   5.098  14.351  0.00  0.00    +0.000 OA
ATOM      7  C   UNL     1       5.601   4.534  15.044  0.00  0.00    +0.000 A 
ATOM      8  C   UNL     1       4.717   4.372  16.056  0.00  0.00    +0.000 A 
ATOM      9  C   UNL     1       4.726   4.789  17.478  0.00  0.00    +0.000 A 
ENDROOT
BRANCH   4  10
ATOM     10  O   UNL     1       6.308   7.210  16.428  0.00  0.00    +0.000 OA
ATOM     11  H   UNL     1       6.340   7.623  15.543  0.00  0.00    +0.000 HD
ENDBRANCH   4  10
BRANCH   7  12
ATOM     12  O   UNL     1       5.303   4.050  13.776  0.00  0.00    +0.000 OA
ATOM     13  H   UNL     1       5.033   4.793  13.212  0.00  0.00    +0.000 HD
ENDBRANCH   7  12
BRANCH   9  14
ATOM     14  C   UNL     1       3.451   5.151  18.235  0.00  0.00    +0.000 C 
ATOM     15  O   UNL     1       2.847   4.253  18.833  0.00  0.00    +0.000 OA
BRANCH  14  16
ATOM     16  C   UNL     1       2.840   6.509  18.380  0.00  0.00    +0.000 A 
ATOM     17  C   UNL     1       2.843   7.539  17.435  0.00  0.00    +0.000 A 
ATOM     18  C   UNL     1       2.257   8.782  17.713  0.00  0.00    +0.000 A 
ATOM     19  C   UNL     1       1.704   9.037  18.964  0.00  0.00    +0.000 A 
ATOM     20  C   UNL     1       1.745   8.047  19.937  0.00  0.00    +0.000 A 
ATOM     21 BR   UNL     1       1.066   8.403  21.665  0.00  0.00    +0.000 Br
ATOM     22  C   UNL     1       2.298   6.799  19.651  0.00  0.00    +0.000 A 
ENDBRANCH  14  16
ENDBRANCH   9  14
TORSDOF 4
ENDMDL
MODEL 8
REMARK VINA RESULT:      -7.2      4.402      6.920
REMARK  Name = 
REMARK  5 active torsions:
REMARK  status: ('A' for Active; 'I' for Inactive)
REMARK    1  A    between atoms: C_1  and  C_2
REMARK    2  A    between atoms: C_4  and  O_5
REMARK    3  A    between atoms: C_8  and  O_9
REMARK    4  A    between atoms: C_11  and  C_12
REMARK    5  A    between atoms: C_12  and  C_14
REMARK                            x       y       z     vdW  Elec       q    Type
REMARK                         _______ _______ _______ _____ _____    ______ ____
ROOT
ATOM      1  C   UNL     1       7.131   5.942  18.804  0.00  0.00    +0.000 C 
ATOM      2  C   UNL     1       5.917   5.185  18.339  0.00  0.00    +0.000 A 
ATOM      3  C   UNL     1       4.909   5.000  19.368  0.00  0.00    +0.000 A 
ATOM      4  C   UNL     1       4.467   3.738  19.538  0.00  0.00    +0.000 A 
ATOM      5  C   UNL     1       3.160   3.686  18.830  0.00  0.00    +0.000 A 
ATOM      6  O   UNL     1       2.100   3.559  19.427  0.00  0.00    +0.000 OA
ATOM      7  C   UNL     1       3.276   3.746  17.323  0.00  0.00    +0.000 A 
ATOM      8  C   UNL     1       4.364   4.185  16.650  0.00  0.00    +0.000 A 
ATOM      9  C   UNL     1       5.698   4.657  17.089  0.00  0.00    +0.000 A 
ENDROOT
BRANCH   4  10
ATOM     10  O   UNL     1       5.307   2.635  19.377  0.00  0.00    +0.000 OA
ATOM     11  H   UNL     1       5.222   2.073  20.171  0.00  0.00    +0.000 HD
ENDBRANCH   4  10
BRANCH   7  12
ATOM     12  O   UNL     1       2.148   3.330  16.626  0.00  0.00    +0.000 OA
ATOM     13  H   UNL     1       1.361   3.509  17.166  0.00  0.00    +0.000 HD
ENDBRANCH   7  12
BRANCH   9  14
ATOM     14  C   UNL     1       6.961   4.434  16.262  0.00  0.00    +0.000 C 
ATOM     15  O   UNL     1       7.997   4.097  16.850  0.00  0.00    +0.000 OA
BRANCH  14  16
ATOM     16  C   UNL     1       7.100   4.539  14.776  0.00  0.00    +0.000 A 
ATOM     17  C   UNL     1       7.929   5.414  14.068  0.00  0.00    +0.000 A 
ATOM     18  C   UNL     1       7.939   5.430  12.665  0.00  0.00    +0.000 A 
ATOM     19  C   UNL     1       7.078   4.607  11.945  0.00  0.00    +0.000 A 
ATOM     20  C   UNL     1       6.205   3.774  12.631  0.00  0.00    +0.000 A 
ATOM     21 BR   UNL     1       4.979   2.705  11.668  0.00  0.00    +0.000 Br
ATOM     22  C   UNL     1       6.217   3.733  14.025  0.00  0.00    +0.000 A 
ENDBRANCH  14  16
ENDBRANCH   9  14
TORSDOF 4
ENDMDL
MODEL 9
REMARK VINA RESULT:      -7.1      1.198      1.629
REMARK  Name = 
REMARK  5 active torsions:
REMARK  status: ('A' for Active; 'I' for Inactive)
REMARK    1  A    between atoms: C_1  and  C_2
REMARK    2  A    between atoms: C_4  and  O_5
REMARK    3  A    between atoms: C_8  and  O_9
REMARK    4  A    between atoms: C_11  and  C_12
REMARK    5  A    between atoms: C_12  and  C_14
REMARK                            x       y       z     vdW  Elec       q    Type
REMARK                         _______ _______ _______ _____ _____    ______ ____
ROOT
ATOM      1  C   UNL     1       2.476   3.911  17.354  0.00  0.00    +0.000 C 
ATOM      2  C   UNL     1       3.705   4.776  17.299  0.00  0.00    +0.000 A 
ATOM      3  C   UNL     1       4.687   4.345  16.321  0.00  0.00    +0.000 A 
ATOM      4  C   UNL     1       5.950   4.213  16.772  0.00  0.00    +0.000 A 
ATOM      5  C   UNL     1       6.653   5.443  16.324  0.00  0.00    +0.000 A 
ATOM      6  O   UNL     1       7.533   5.418  15.475  0.00  0.00    +0.000 OA
ATOM      7  C   UNL     1       6.221   6.697  17.052  0.00  0.00    +0.000 A 
ATOM      8  C   UNL     1       5.072   6.823  17.755  0.00  0.00    +0.000 A 
ATOM      9  C   UNL     1       3.978   5.876  18.077  0.00  0.00    +0.000 A 
ENDROOT
BRANCH   4  10
ATOM     10  O   UNL     1       6.226   3.774  18.069  0.00  0.00    +0.000 OA
ATOM     11  H   UNL     1       6.511   2.840  18.016  0.00  0.00    +0.000 HD
ENDBRANCH   4  10
BRANCH   7  12
ATOM     12  O   UNL     1       7.090   7.775  16.941  0.00  0.00    +0.000 OA
ATOM     13  H   UNL     1       6.854   8.440  17.609  0.00  0.00    +0.000 HD
ENDBRANCH   7  12
BRANCH   9  14
ATOM     14  C   UNL     1       3.188   5.947  19.381  0.00  0.00    +0.000 C 
ATOM     15  O   UNL     1       3.292   5.010  20.182  0.00  0.00    +0.000 OA
BRANCH  14  16
ATOM     16  C   UNL     1       2.303   7.061  19.843  0.00  0.00    +0.000 A 
ATOM     17  C   UNL     1       1.517   7.088  20.999  0.00  0.00    +0.000 A 
ATOM     18  C   UNL     1       0.703   8.190  21.299  0.00  0.00    +0.000 A 
ATOM     19  C   UNL     1       0.620   9.264  20.419  0.00  0.00    +0.000 A 
ATOM     20  C   UNL     1       1.346   9.230  19.236  0.00  0.00    +0.000 A 
ATOM     21 BR   UNL     1       1.186  10.648  17.997  0.00  0.00    +0.000 Br
ATOM     22  C   UNL     1       2.181   8.149  18.953  0.00  0.00    +0.000 A 
ENDBRANCH  14  16
ENDBRANCH   9  14
TORSDOF 4
ENDMDL
