MODEL 1
REMARK VINA RESULT:      -8.1      0.000      0.000
REMARK  Name = 
REMARK  6 active torsions:
REMARK  status: ('A' for Active; 'I' for Inactive)
REMARK    1  A    between atoms: C_1  and  C_2
REMARK    2  A    between atoms: C_5  and  C_6
REMARK    3  A    between atoms: C_6  and  N_7
REMARK    4  A    between atoms: N_7  and  C_8
REMARK    5  A    between atoms: C_13  and  C_14
REMARK    6  A    between atoms: C_22  and  C_23
REMARK                            x       y       z     vdW  Elec       q    Type
REMARK                         _______ _______ _______ _____ _____    ______ ____
ROOT
ATOM      1  C   UNL     1       6.689   6.774  16.993  0.00  0.00    +0.000 A 
ATOM      2  N   UNL     1       7.568   5.862  16.545  0.00  0.00    +0.000 NA
ATOM      3  C   UNL     1       7.131   4.614  16.418  0.00  0.00    +0.000 A 
ATOM      4  N   UNL     1       5.900   4.180  16.699  0.00  0.00    +0.000 NA
ATOM      5  C   UNL     1       5.004   5.075  17.170  0.00  0.00    +0.000 A 
ATOM      6  C   UNL     1       3.690   4.694  17.515  0.00  0.00    +0.000 A 
ATOM      7  C   UNL     1       2.768   5.631  18.020  0.00  0.00    +0.000 A 
ATOM      8  C   UNL     1       3.129   6.959  18.184  0.00  0.00    +0.000 A 
ATOM      9  C   UNL     1       4.419   7.354  17.847  0.00  0.00    +0.000 A 
ATOM     10  C   UNL     1       5.365   6.428  17.339  0.00  0.00    +0.000 A 
ENDROOT
BRANCH   6  11
ATOM     11  C   UNL     1       3.177   3.295  17.371  0.00  0.00    +0.000 C 
ATOM     12  N   UNL     1       3.965   2.265  17.789  0.00  0.00    +0.000 N 
ATOM     13  O   UNL     1       2.075   3.062  16.882  0.00  0.00    +0.000 OA
ATOM     14  H   UNL     1       4.868   2.443  18.217  0.00  0.00    +0.000 HD
ATOM     15  H   UNL     1       3.626   1.317  17.701  0.00  0.00    +0.000 HD
ENDBRANCH   6  11
BRANCH   1  16
ATOM     16  N   UNL     1       7.140   8.105  17.148  0.00  0.00    +0.000 N 
ATOM     17  H   UNL     1       7.449   8.467  16.251  0.00  0.00    +0.000 HD
BRANCH  16  18
ATOM     18  C   UNL     1       8.184   8.261  18.160  0.00  0.00    +0.000 C 
BRANCH  18  23
ATOM     19  C   UNL     1       9.747  13.867  18.657  0.00  0.00    +0.000 C 
ATOM     20  C   UNL     1       9.330  12.423  18.578  0.00  0.00    +0.000 A 
ATOM     21  C   UNL     1       8.404  12.028  17.600  0.00  0.00    +0.000 A 
ATOM     22  C   UNL     1       8.014  10.693  17.482  0.00  0.00    +0.000 A 
ATOM     23  C   UNL     1       8.541   9.719  18.337  0.00  0.00    +0.000 A 
ATOM     24  C   UNL     1       9.457  10.114  19.323  0.00  0.00    +0.000 A 
ATOM     25  C   UNL     1       9.855  11.455  19.458  0.00  0.00    +0.000 A 
ATOM     26  C   UNL     1      10.839  11.827  20.533  0.00  0.00    +0.000 C 
ENDBRANCH  18  23
ENDBRANCH  16  18
ENDBRANCH   1  16
TORSDOF 4
ENDMDL
MODEL 2
REMARK VINA RESULT:      -8.0      4.992      6.995
REMARK  Name = 
REMARK  6 active torsions:
REMARK  status: ('A' for Active; 'I' for Inactive)
REMARK    1  A    between atoms: C_1  and  C_2
REMARK    2  A    between atoms: C_5  and  C_6
REMARK    3  A    between atoms: C_6  and  N_7
REMARK    4  A    between atoms: N_7  and  C_8
REMARK    5  A    between atoms: C_13  and  C_14
REMARK    6  A    between atoms: C_22  and  C_23
REMARK                            x       y       z     vdW  Elec       q    Type
REMARK                         _______ _______ _______ _____ _____    ______ ____
ROOT
ATOM      1  C   UNL     1       2.868   6.849  18.629  0.00  0.00    +0.000 A 
ATOM      2  N   UNL     1       3.742   6.952  17.615  0.00  0.00    +0.000 NA
ATOM      3  C   UNL     1       4.399   5.851  17.269  0.00  0.00    +0.000 A 
ATOM      4  N   UNL     1       4.274   4.650  17.840  0.00  0.00    +0.000 NA
ATOM      5  C   UNL     1       3.416   4.526  18.876  0.00  0.00    +0.000 A 
ATOM      6  C   UNL     1       3.243   3.299  19.550  0.00  0.00    +0.000 A 
ATOM      7  C   UNL     1       2.358   3.183  20.639  0.00  0.00    +0.000 A 
ATOM      8  C   UNL     1       1.624   4.277  21.071  0.00  0.00    +0.000 A 
ATOM      9  C   UNL     1       1.778   5.494  20.417  0.00  0.00    +0.000 A 
ATOM     10  C   UNL     1       2.666   5.635  19.321  0.00  0.00    +0.000 A 
ENDROOT
BRANCH   6  11
ATOM     11  C   UNL     1       3.967   2.045  19.170  0.00  0.00    +0.000 C 
ATOM     12  N   UNL     1       5.071   1.687  19.885  0.00  0.00    +0.000 N 
ATOM     13  O   UNL     1       3.593   1.346  18.233  0.00  0.00    +0.000 OA
ATOM     14  H   UNL     1       5.378   2.242  20.678  0.00  0.00    +0.000 HD
ATOM     15  H   UNL     1       5.564   0.840  19.641  0.00  0.00    +0.000 HD
ENDBRANCH   6  11
BRANCH   1  16
ATOM     16  N   UNL     1       2.170   8.015  19.021  0.00  0.00    +0.000 N 
ATOM     17  H   UNL     1       1.324   7.755  19.520  0.00  0.00    +0.000 HD
BRANCH  16  18
ATOM     18  C   UNL     1       1.865   8.921  17.914  0.00  0.00    +0.000 C 
BRANCH  18  23
ATOM     19  C   UNL     1      -2.709  12.205  19.467  0.00  0.00    +0.000 C 
ATOM     20  C   UNL     1      -1.539  11.371  19.018  0.00  0.00    +0.000 A 
ATOM     21  C   UNL     1      -0.270  11.618  19.563  0.00  0.00    +0.000 A 
ATOM     22  C   UNL     1       0.832  10.848  19.189  0.00  0.00    +0.000 A 
ATOM     23  C   UNL     1       0.692   9.810  18.262  0.00  0.00    +0.000 A 
ATOM     24  C   UNL     1      -0.573   9.570  17.706  0.00  0.00    +0.000 A 
ATOM     25  C   UNL     1      -1.691  10.340  18.070  0.00  0.00    +0.000 A 
ATOM     26  C   UNL     1      -3.026  10.042  17.443  0.00  0.00    +0.000 C 
ENDBRANCH  18  23
ENDBRANCH  16  18
ENDBRANCH   1  16
TORSDOF 4
ENDMDL
MODEL 3
REMARK VINA RESULT:      -8.0      5.126      6.594
REMARK  Name = 
REMARK  6 active torsions:
REMARK  status: ('A' for Active; 'I' for Inactive)
REMARK    1  A    between atoms: C_1  and  C_2
REMARK    2  A    between atoms: C_5  and  C_6
REMARK    3  A    between atoms: C_6  and  N_7
REMARK    4  A    between atoms: N_7  and  C_8
REMARK    5  A    between atoms: C_13  and  C_14
REMARK    6  A    between atoms: C_22  and  C_23
REMARK                            x       y       z     vdW  Elec       q    Type
REMARK                         _______ _______ _______ _____ _____    ______ ____
ROOT
ATOM      1  C   UNL     1       2.754   5.983  18.209  0.00  0.00    +0.000 A 
ATOM      2  N   UNL     1       3.860   6.109  17.458  0.00  0.00    +0.000 NA
ATOM      3  C   UNL     1       4.776   5.153  17.567  0.00  0.00    +0.000 A 
ATOM      4  N   UNL     1       4.702   4.081  18.359  0.00  0.00    +0.000 NA
ATOM      5  C   UNL     1       3.608   3.943  19.140  0.00  0.00    +0.000 A 
ATOM      6  C   UNL     1       3.462   2.853  20.023  0.00  0.00    +0.000 A 
ATOM      7  C   UNL     1       2.325   2.726  20.845  0.00  0.00    +0.000 A 
ATOM      8  C   UNL     1       1.313   3.671  20.799  0.00  0.00    +0.000 A 
ATOM      9  C   UNL     1       1.437   4.752  19.932  0.00  0.00    +0.000 A 
ATOM     10  C   UNL     1       2.573   4.901  19.098  0.00  0.00    +0.000 A 
ENDROOT
BRANCH   6  11
ATOM     11  C   UNL     1       4.479   1.761  20.155  0.00  0.00    +0.000 C 
ATOM     12  N   UNL     1       4.545   0.810  19.181  0.00  0.00    +0.000 N 
ATOM     13  O   UNL     1       5.240   1.706  21.116  0.00  0.00    +0.000 OA
ATOM     14  H   UNL     1       3.938   0.858  18.368  0.00  0.00    +0.000 HD
ATOM     15  H   UNL     1       5.230   0.073  19.257  0.00  0.00    +0.000 HD
ENDBRANCH   6  11
BRANCH   1  16
ATOM     16  N   UNL     1       1.774   6.999  18.117  0.00  0.00    +0.000 N 
ATOM     17  H   UNL     1       1.359   6.988  17.190  0.00  0.00    +0.000 HD
BRANCH  16  18
ATOM     18  C   UNL     1       2.272   8.333  18.451  0.00  0.00    +0.000 C 
BRANCH  18  23
ATOM     19  C   UNL     1      -0.844  10.379  22.947  0.00  0.00    +0.000 C 
ATOM     20  C   UNL     1      -0.018   9.897  21.785  0.00  0.00    +0.000 A 
ATOM     21  C   UNL     1       0.757   8.736  21.928  0.00  0.00    +0.000 A 
ATOM     22  C   UNL     1       1.516   8.246  20.864  0.00  0.00    +0.000 A 
ATOM     23  C   UNL     1       1.517   8.904  19.629  0.00  0.00    +0.000 A 
ATOM     24  C   UNL     1       0.754  10.071  19.489  0.00  0.00    +0.000 A 
ATOM     25  C   UNL     1      -0.011  10.579  20.553  0.00  0.00    +0.000 A 
ATOM     26  C   UNL     1      -0.811  11.837  20.350  0.00  0.00    +0.000 C 
ENDBRANCH  18  23
ENDBRANCH  16  18
ENDBRANCH   1  16
TORSDOF 4
ENDMDL
MODEL 4
REMARK VINA RESULT:      -7.9      5.096      6.359
REMARK  Name = 
REMARK  6 active torsions:
REMARK  status: ('A' for Active; 'I' for Inactive)
REMARK    1  A    between atoms: C_1  and  C_2
REMARK    2  A    between atoms: C_5  and  C_6
REMARK    3  A    between atoms: C_6  and  N_7
REMARK    4  A    between atoms: N_7  and  C_8
REMARK    5  A    between atoms: C_13  and  C_14
REMARK    6  A    between atoms: C_22  and  C_23
REMARK                            x       y       z     vdW  Elec       q    Type
REMARK                         _______ _______ _______ _____ _____    ______ ____
ROOT
ATOM      1  C   UNL     1       2.968   5.754  18.071  0.00  0.00    +0.000 A 
ATOM      2  N   UNL     1       4.029   5.742  17.249  0.00  0.00    +0.000 NA
ATOM      3  C   UNL     1       4.904   4.754  17.405  0.00  0.00    +0.000 A 
ATOM      4  N   UNL     1       4.829   3.775  18.309  0.00  0.00    +0.000 NA
ATOM      5  C   UNL     1       3.781   3.777  19.162  0.00  0.00    +0.000 A 
ATOM      6  C   UNL     1       3.639   2.793  20.162  0.00  0.00    +0.000 A 
ATOM      7  C   UNL     1       2.552   2.813  21.057  0.00  0.00    +0.000 A 
ATOM      8  C   UNL     1       1.585   3.801  20.969  0.00  0.00    +0.000 A 
ATOM      9  C   UNL     1       1.705   4.779  19.988  0.00  0.00    +0.000 A 
ATOM     10  C   UNL     1       2.793   4.780  19.079  0.00  0.00    +0.000 A 
ENDROOT
BRANCH   6  11
ATOM     11  C   UNL     1       4.609   1.667  20.350  0.00  0.00    +0.000 C 
ATOM     12  N   UNL     1       4.697   0.714  19.380  0.00  0.00    +0.000 N 
ATOM     13  O   UNL     1       5.312   1.586  21.353  0.00  0.00    +0.000 OA
ATOM     14  H   UNL     1       4.139   0.781  18.534  0.00  0.00    +0.000 HD
ATOM     15  H   UNL     1       5.352  -0.047  19.494  0.00  0.00    +0.000 HD
ENDBRANCH   6  11
BRANCH   1  16
ATOM     16  N   UNL     1       2.034   6.806  17.929  0.00  0.00    +0.000 N 
ATOM     17  H   UNL     1       1.640   6.787  16.993  0.00  0.00    +0.000 HD
BRANCH  16  18
ATOM     18  C   UNL     1       2.580   8.127  18.239  0.00  0.00    +0.000 C 
BRANCH  18  23
ATOM     19  C   UNL     1      -1.161  11.528  21.164  0.00  0.00    +0.000 C 
ATOM     20  C   UNL     1      -0.225  10.611  20.424  0.00  0.00    +0.000 A 
ATOM     21  C   UNL     1       0.031  10.843  19.064  0.00  0.00    +0.000 A 
ATOM     22  C   UNL     1       0.912  10.028  18.352  0.00  0.00    +0.000 A 
ATOM     23  C   UNL     1       1.563   8.962  18.983  0.00  0.00    +0.000 A 
ATOM     24  C   UNL     1       1.298   8.721  20.339  0.00  0.00    +0.000 A 
ATOM     25  C   UNL     1       0.409   9.530  21.067  0.00  0.00    +0.000 A 
ATOM     26  C   UNL     1       0.159   9.227  22.519  0.00  0.00    +0.000 C 
ENDBRANCH  18  23
ENDBRANCH  16  18
ENDBRANCH   1  16
TORSDOF 4
ENDMDL
MODEL 5
REMARK VINA RESULT:      -7.8      4.592      5.877
REMARK  Name = 
REMARK  6 active torsions:
REMARK  status: ('A' for Active; 'I' for Inactive)
REMARK    1  A    between atoms: C_1  and  C_2
REMARK    2  A    between atoms: C_5  and  C_6
REMARK    3  A    between atoms: C_6  and  N_7
REMARK    4  A    between atoms: N_7  and  C_8
REMARK    5  A    between atoms: C_13  and  C_14
REMARK    6  A    between atoms: C_22  and  C_23
REMARK                            x       y       z     vdW  Elec       q    Type
REMARK                         _______ _______ _______ _____ _____    ______ ____
ROOT
ATOM      1  C   UNL     1       3.024   6.639  18.661  0.00  0.00    +0.000 A 
ATOM      2  N   UNL     1       3.986   6.722  17.729  0.00  0.00    +0.000 NA
ATOM      3  C   UNL     1       4.742   5.645  17.542  0.00  0.00    +0.000 A 
ATOM      4  N   UNL     1       4.635   4.487  18.199  0.00  0.00    +0.000 NA
ATOM      5  C   UNL     1       3.687   4.386  19.157  0.00  0.00    +0.000 A 
ATOM      6  C   UNL     1       3.524   3.208  19.915  0.00  0.00    +0.000 A 
ATOM      7  C   UNL     1       2.543   3.117  20.921  0.00  0.00    +0.000 A 
ATOM      8  C   UNL     1       1.705   4.188  21.187  0.00  0.00    +0.000 A 
ATOM      9  C   UNL     1       1.847   5.357  20.448  0.00  0.00    +0.000 A 
ATOM     10  C   UNL     1       2.829   5.472  19.432  0.00  0.00    +0.000 A 
ENDROOT
BRANCH   6  11
ATOM     11  C   UNL     1       4.359   1.980  19.713  0.00  0.00    +0.000 C 
ATOM     12  N   UNL     1       4.178   1.248  18.578  0.00  0.00    +0.000 N 
ATOM     13  O   UNL     1       5.187   1.624  20.546  0.00  0.00    +0.000 OA
ATOM     14  H   UNL     1       3.514   1.544  17.869  0.00  0.00    +0.000 HD
ATOM     15  H   UNL     1       4.739   0.422  18.430  0.00  0.00    +0.000 HD
ENDBRANCH   6  11
BRANCH   1  16
ATOM     16  N   UNL     1       2.220   7.780  18.884  0.00  0.00    +0.000 N 
ATOM     17  H   UNL     1       1.292   7.491  19.181  0.00  0.00    +0.000 HD
BRANCH  16  18
ATOM     18  C   UNL     1       2.143   8.682  17.736  0.00  0.00    +0.000 C 
BRANCH  18  23
ATOM     19  C   UNL     1      -0.355  13.801  19.028  0.00  0.00    +0.000 C 
ATOM     20  C   UNL     1       0.322  12.490  18.732  0.00  0.00    +0.000 A 
ATOM     21  C   UNL     1      -0.433  11.308  18.747  0.00  0.00    +0.000 A 
ATOM     22  C   UNL     1       0.157  10.078  18.453  0.00  0.00    +0.000 A 
ATOM     23  C   UNL     1       1.517   9.999  18.134  0.00  0.00    +0.000 A 
ATOM     24  C   UNL     1       2.276  11.178  18.132  0.00  0.00    +0.000 A 
ATOM     25  C   UNL     1       1.697  12.423  18.431  0.00  0.00    +0.000 A 
ATOM     26  C   UNL     1       2.556  13.658  18.416  0.00  0.00    +0.000 C 
ENDBRANCH  18  23
ENDBRANCH  16  18
ENDBRANCH   1  16
TORSDOF 4
ENDMDL
MODEL 6
REMARK VINA RESULT:      -7.8      4.723      6.303
REMARK  Name = 
REMARK  6 active torsions:
REMARK  status: ('A' for Active; 'I' for Inactive)
REMARK    1  A    between atoms: C_1  and  C_2
REMARK    2  A    between atoms: C_5  and  C_6
REMARK    3  A    between atoms: C_6  and  N_7
REMARK    4  A    between atoms: N_7  and  C_8
REMARK    5  A    between atoms: C_13  and  C_14
REMARK    6  A    between atoms: C_22  and  C_23
REMARK                            x       y       z     vdW  Elec       q    Type
REMARK                         _______ _______ _______ _____ _____    ______ ____
ROOT
ATOM      1  C   UNL     1       3.086   6.542  18.745  0.00  0.00    +0.000 A 
ATOM      2  N   UNL     1       4.116   6.660  17.891  0.00  0.00    +0.000 NA
ATOM      3  C   UNL     1       4.892   5.594  17.728  0.00  0.00    +0.000 A 
ATOM      4  N   UNL     1       4.746   4.416  18.339  0.00  0.00    +0.000 NA
ATOM      5  C   UNL     1       3.729   4.279  19.219  0.00  0.00    +0.000 A 
ATOM      6  C   UNL     1       3.518   3.076  19.925  0.00  0.00    +0.000 A 
ATOM      7  C   UNL     1       2.465   2.947  20.850  0.00  0.00    +0.000 A 
ATOM      8  C   UNL     1       1.600   4.004  21.085  0.00  0.00    +0.000 A 
ATOM      9  C   UNL     1       1.788   5.197  20.396  0.00  0.00    +0.000 A 
ATOM     10  C   UNL     1       2.844   5.350  19.462  0.00  0.00    +0.000 A 
ENDROOT
BRANCH   6  11
ATOM     11  C   UNL     1       4.376   1.861  19.749  0.00  0.00    +0.000 C 
ATOM     12  N   UNL     1       4.202   1.095  18.635  0.00  0.00    +0.000 N 
ATOM     13  O   UNL     1       5.217   1.543  20.585  0.00  0.00    +0.000 OA
ATOM     14  H   UNL     1       3.527   1.360  17.924  0.00  0.00    +0.000 HD
ATOM     15  H   UNL     1       4.779   0.276  18.504  0.00  0.00    +0.000 HD
ENDBRANCH   6  11
BRANCH   1  16
ATOM     16  N   UNL     1       2.258   7.671  18.942  0.00  0.00    +0.000 N 
ATOM     17  H   UNL     1       1.399   7.387  19.404  0.00  0.00    +0.000 HD
BRANCH  16  18
ATOM     18  C   UNL     1       1.970   8.413  17.715  0.00  0.00    +0.000 C 
BRANCH  18  23
ATOM     19  C   UNL     1      -0.309  13.577  19.216  0.00  0.00    +0.000 C 
ATOM     20  C   UNL     1       0.247  12.246  18.789  0.00  0.00    +0.000 A 
ATOM     21  C   UNL     1       1.631  12.108  18.602  0.00  0.00    +0.000 A 
ATOM     22  C   UNL     1       2.185  10.882  18.230  0.00  0.00    +0.000 A 
ATOM     23  C   UNL     1       1.368   9.762  18.038  0.00  0.00    +0.000 A 
ATOM     24  C   UNL     1      -0.016   9.902  18.211  0.00  0.00    +0.000 A 
ATOM     25  C   UNL     1      -0.588  11.131  18.580  0.00  0.00    +0.000 A 
ATOM     26  C   UNL     1      -2.080  11.228  18.752  0.00  0.00    +0.000 C 
ENDBRANCH  18  23
ENDBRANCH  16  18
ENDBRANCH   1  16
TORSDOF 4
ENDMDL
MODEL 7
REMARK VINA RESULT:      -7.7      4.949      6.690
REMARK  Name = 
REMARK  6 active torsions:
REMARK  status: ('A' for Active; 'I' for Inactive)
REMARK    1  A    between atoms: C_1  and  C_2
REMARK    2  A    between atoms: C_5  and  C_6
REMARK    3  A    between atoms: C_6  and  N_7
REMARK    4  A    between atoms: N_7  and  C_8
REMARK    5  A    between atoms: C_13  and  C_14
REMARK    6  A    between atoms: C_22  and  C_23
REMARK                            x       y       z     vdW  Elec       q    Type
REMARK                         _______ _______ _______ _____ _____    ______ ____
ROOT
ATOM      1  C   UNL     1       2.955   7.008  18.545  0.00  0.00    +0.000 A 
ATOM      2  N   UNL     1       3.859   7.077  17.555  0.00  0.00    +0.000 NA
ATOM      3  C   UNL     1       4.482   5.950  17.225  0.00  0.00    +0.000 A 
ATOM      4  N   UNL     1       4.296   4.755  17.791  0.00  0.00    +0.000 NA
ATOM      5  C   UNL     1       3.405   4.665  18.803  0.00  0.00    +0.000 A 
ATOM      6  C   UNL     1       3.167   3.445  19.471  0.00  0.00    +0.000 A 
ATOM      7  C   UNL     1       2.248   3.364  20.536  0.00  0.00    +0.000 A 
ATOM      8  C   UNL     1       1.547   4.485  20.950  0.00  0.00    +0.000 A 
ATOM      9  C   UNL     1       1.766   5.696  20.301  0.00  0.00    +0.000 A 
ATOM     10  C   UNL     1       2.687   5.802  19.229  0.00  0.00    +0.000 A 
ENDROOT
BRANCH   6  11
ATOM     11  C   UNL     1       3.852   2.164  19.109  0.00  0.00    +0.000 C 
ATOM     12  N   UNL     1       5.029   1.857  19.724  0.00  0.00    +0.000 N 
ATOM     13  O   UNL     1       3.380   1.398  18.274  0.00  0.00    +0.000 OA
ATOM     14  H   UNL     1       5.418   2.469  20.435  0.00  0.00    +0.000 HD
ATOM     15  H   UNL     1       5.496   0.993  19.491  0.00  0.00    +0.000 HD
ENDBRANCH   6  11
BRANCH   1  16
ATOM     16  N   UNL     1       2.292   8.200  18.920  0.00  0.00    +0.000 N 
ATOM     17  H   UNL     1       1.697   8.021  19.723  0.00  0.00    +0.000 HD
BRANCH  16  18
ATOM     18  C   UNL     1       1.532   8.819  17.835  0.00  0.00    +0.000 C 
BRANCH  18  23
ATOM     19  C   UNL     1      -2.625  12.404  19.828  0.00  0.00    +0.000 C 
ATOM     20  C   UNL     1      -1.557  11.455  19.358  0.00  0.00    +0.000 A 
ATOM     21  C   UNL     1      -1.736  10.762  18.152  0.00  0.00    +0.000 A 
ATOM     22  C   UNL     1      -0.754   9.892  17.673  0.00  0.00    +0.000 A 
ATOM     23  C   UNL     1       0.432   9.696  18.388  0.00  0.00    +0.000 A 
ATOM     24  C   UNL     1       0.607  10.377  19.601  0.00  0.00    +0.000 A 
ATOM     25  C   UNL     1      -0.375  11.252  20.098  0.00  0.00    +0.000 A 
ATOM     26  C   UNL     1      -0.138  11.958  21.405  0.00  0.00    +0.000 C 
ENDBRANCH  18  23
ENDBRANCH  16  18
ENDBRANCH   1  16
TORSDOF 4
ENDMDL
MODEL 8
REMARK VINA RESULT:      -7.7      6.495      9.703
REMARK  Name = 
REMARK  6 active torsions:
REMARK  status: ('A' for Active; 'I' for Inactive)
REMARK    1  A    between atoms: C_1  and  C_2
REMARK    2  A    between atoms: C_5  and  C_6
REMARK    3  A    between atoms: C_6  and  N_7
REMARK    4  A    between atoms: N_7  and  C_8
REMARK    5  A    between atoms: C_13  and  C_14
REMARK    6  A    between atoms: C_22  and  C_23
REMARK                            x       y       z     vdW  Elec       q    Type
REMARK                         _______ _______ _______ _____ _____    ______ ____
ROOT
ATOM      1  C   UNL     1       1.121   9.054  20.181  0.00  0.00    +0.000 A 
ATOM      2  N   UNL     1       1.176   9.441  18.896  0.00  0.00    +0.000 NA
ATOM      3  C   UNL     1       0.464  10.510  18.556  0.00  0.00    +0.000 A 
ATOM      4  N   UNL     1      -0.306  11.233  19.373  0.00  0.00    +0.000 NA
ATOM      5  C   UNL     1      -0.393  10.852  20.666  0.00  0.00    +0.000 A 
ATOM      6  C   UNL     1      -1.202  11.546  21.589  0.00  0.00    +0.000 A 
ATOM      7  C   UNL     1      -1.298  11.132  22.932  0.00  0.00    +0.000 A 
ATOM      8  C   UNL     1      -0.589  10.030  23.382  0.00  0.00    +0.000 A 
ATOM      9  C   UNL     1       0.217   9.334  22.488  0.00  0.00    +0.000 A 
ATOM     10  C   UNL     1       0.327   9.732  21.132  0.00  0.00    +0.000 A 
ENDROOT
BRANCH   6  11
ATOM     11  C   UNL     1      -2.005  12.758  21.228  0.00  0.00    +0.000 C 
ATOM     12  N   UNL     1      -1.347  13.873  20.801  0.00  0.00    +0.000 N 
ATOM     13  O   UNL     1      -3.229  12.766  21.316  0.00  0.00    +0.000 OA
ATOM     14  H   UNL     1      -0.337  13.872  20.700  0.00  0.00    +0.000 HD
ATOM     15  H   UNL     1      -1.879  14.693  20.550  0.00  0.00    +0.000 HD
ENDBRANCH   6  11
BRANCH   1  16
ATOM     16  N   UNL     1       1.861   7.910  20.559  0.00  0.00    +0.000 N 
ATOM     17  H   UNL     1       2.471   8.140  21.338  0.00  0.00    +0.000 HD
BRANCH  16  18
ATOM     18  C   UNL     1       2.621   7.310  19.463  0.00  0.00    +0.000 C 
BRANCH  18  23
ATOM     19  C   UNL     1       0.938   1.758  18.781  0.00  0.00    +0.000 C 
ATOM     20  C   UNL     1       1.410   3.172  18.985  0.00  0.00    +0.000 A 
ATOM     21  C   UNL     1       1.666   3.979  17.866  0.00  0.00    +0.000 A 
ATOM     22  C   UNL     1       2.082   5.303  18.017  0.00  0.00    +0.000 A 
ATOM     23  C   UNL     1       2.250   5.854  19.293  0.00  0.00    +0.000 A 
ATOM     24  C   UNL     1       2.007   5.045  20.412  0.00  0.00    +0.000 A 
ATOM     25  C   UNL     1       1.594   3.709  20.275  0.00  0.00    +0.000 A 
ATOM     26  C   UNL     1       1.348   2.884  21.508  0.00  0.00    +0.000 C 
ENDBRANCH  18  23
ENDBRANCH  16  18
ENDBRANCH   1  16
TORSDOF 4
ENDMDL
MODEL 9
REMARK VINA RESULT:      -7.7      4.493      6.449
REMARK  Name = 
REMARK  6 active torsions:
REMARK  status: ('A' for Active; 'I' for Inactive)
REMARK    1  A    between atoms: C_1  and  C_2
REMARK    2  A    between atoms: C_5  and  C_6
REMARK    3  A    between atoms: C_6  and  N_7
REMARK    4  A    between atoms: N_7  and  C_8
REMARK    5  A    between atoms: C_13  and  C_14
REMARK    6  A    between atoms: C_22  and  C_23
REMARK                            x       y       z     vdW  Elec       q    Type
REMARK                         _______ _______ _______ _____ _____    ______ ____
ROOT
ATOM      1  C   UNL     1       3.007   4.769  19.397  0.00  0.00    +0.000 A 
ATOM      2  N   UNL     1       3.305   3.620  20.024  0.00  0.00    +0.000 NA
ATOM      3  C   UNL     1       4.480   3.066  19.745  0.00  0.00    +0.000 A 
ATOM      4  N   UNL     1       5.392   3.545  18.895  0.00  0.00    +0.000 NA
ATOM      5  C   UNL     1       5.106   4.690  18.236  0.00  0.00    +0.000 A 
ATOM      6  C   UNL     1       6.003   5.250  17.303  0.00  0.00    +0.000 A 
ATOM      7  C   UNL     1       5.690   6.435  16.610  0.00  0.00    +0.000 A 
ATOM      8  C   UNL     1       4.488   7.088  16.836  0.00  0.00    +0.000 A 
ATOM      9  C   UNL     1       3.592   6.553  17.755  0.00  0.00    +0.000 A 
ATOM     10  C   UNL     1       3.885   5.360  18.462  0.00  0.00    +0.000 A 
ENDROOT
BRANCH   6  11
ATOM     11  C   UNL     1       7.335   4.646  16.981  0.00  0.00    +0.000 C 
ATOM     12  N   UNL     1       8.138   4.252  18.010  0.00  0.00    +0.000 N 
ATOM     13  O   UNL     1       7.715   4.510  15.822  0.00  0.00    +0.000 OA
ATOM     14  H   UNL     1       7.827   4.336  18.972  0.00  0.00    +0.000 HD
ATOM     15  H   UNL     1       9.036   3.839  17.804  0.00  0.00    +0.000 HD
ENDBRANCH   6  11
BRANCH   1  16
ATOM     16  N   UNL     1       1.754   5.365  19.670  0.00  0.00    +0.000 N 
ATOM     17  H   UNL     1       1.486   5.965  18.896  0.00  0.00    +0.000 HD
BRANCH  16  18
ATOM     18  C   UNL     1       1.711   6.096  20.936  0.00  0.00    +0.000 C 
BRANCH  18  23
ATOM     19  C   UNL     1      -0.269  11.503  19.958  0.00  0.00    +0.000 C 
ATOM     20  C   UNL     1       0.288  10.128  20.208  0.00  0.00    +0.000 A 
ATOM     21  C   UNL     1      -0.120   9.418  21.347  0.00  0.00    +0.000 A 
ATOM     22  C   UNL     1       0.358   8.130  21.597  0.00  0.00    +0.000 A 
ATOM     23  C   UNL     1       1.254   7.520  20.713  0.00  0.00    +0.000 A 
ATOM     24  C   UNL     1       1.673   8.234  19.581  0.00  0.00    +0.000 A 
ATOM     25  C   UNL     1       1.205   9.533  19.319  0.00  0.00    +0.000 A 
ATOM     26  C   UNL     1       1.687  10.256  18.091  0.00  0.00    +0.000 C 
ENDBRANCH  18  23
ENDBRANCH  16  18
ENDBRANCH   1  16
TORSDOF 4
ENDMDL
