MODEL 1
REMARK VINA RESULT:      -8.5      0.000      0.000
REMARK  Name = 
REMARK  9 active torsions:
REMARK  status: ('A' for Active; 'I' for Inactive)
REMARK    1  A    between atoms: C_1  and  C_2
REMARK    2  A    between atoms: N_10  and  C_11
REMARK    3  A    between atoms: C_11  and  C_12
REMARK    4  A    between atoms: C_12  and  C_13
REMARK    5  A    between atoms: C_16  and  C_17
REMARK    6  A    between atoms: C_19  and  C_20
REMARK    7  A    between atoms: C_21  and  O_22
REMARK    8  A    between atoms: C_23  and  C_24
REMARK    9  A    between atoms: C_26  and  C_27
REMARK                            x       y       z     vdW  Elec       q    Type
REMARK                         _______ _______ _______ _____ _____    ______ ____
ROOT
ATOM      1  C   UNL     1      -0.271  13.078  21.486  0.00  0.00    +0.000 C 
ATOM      2  C   UNL     1      -1.746  12.615  21.468  0.00  0.00    +0.000 C 
ATOM      3  N   UNL     1      -2.645  13.715  21.741  0.00  0.00    +0.000 N 
ATOM      4  C   UNL     1      -3.976  13.902  21.446  0.00  0.00    +0.000 A 
ATOM      5  C   UNL     1      -4.287  15.173  21.966  0.00  0.00    +0.000 A 
ATOM      6  C   UNL     1      -5.597  15.889  21.955  0.00  0.00    +0.000 C 
ATOM      7  C   UNL     1      -3.098  15.720  22.572  0.00  0.00    +0.000 A 
ATOM      8  C   UNL     1      -2.740  16.905  23.246  0.00  0.00    +0.000 A 
ATOM      9  C   UNL     1      -1.419  17.049  23.725  0.00  0.00    +0.000 A 
ATOM     10  C   UNL     1      -0.464  16.043  23.540  0.00  0.00    +0.000 A 
ATOM     11  C   UNL     1      -0.806  14.889  22.854  0.00  0.00    +0.000 A 
ATOM     12  C   UNL     1      -2.115  14.775  22.409  0.00  0.00    +0.000 A 
ATOM     13  O   UNL     1       0.089  13.860  22.660  0.00  0.00    +0.000 OA
ENDROOT
BRANCH   4  14
ATOM     14  C   UNL     1      -4.794  12.918  20.701  0.00  0.00    +0.000 A 
ATOM     15  C   UNL     1      -4.460  12.522  19.395  0.00  0.00    +0.000 A 
ATOM     16  C   UNL     1      -5.288  11.687  18.625  0.00  0.00    +0.000 A 
ATOM     17  C   UNL     1      -4.934  11.441  17.186  0.00  0.00    +0.000 C 
ATOM     18  C   UNL     1      -6.421  11.135  19.231  0.00  0.00    +0.000 A 
ATOM     19  C   UNL     1      -6.750  11.449  20.555  0.00  0.00    +0.000 A 
ATOM     20  C   UNL     1      -7.916  10.822  21.267  0.00  0.00    +0.000 C 
ATOM     21  C   UNL     1      -5.956  12.374  21.257  0.00  0.00    +0.000 A 
BRANCH  18  22
ATOM     22  O   UNL     1      -7.246  10.278  18.557  0.00  0.00    +0.000 OA
ATOM     23  H   UNL     1      -6.931  10.166  17.648  0.00  0.00    +0.000 HD
ENDBRANCH  18  22
ENDBRANCH   4  14
BRANCH   1  24
ATOM     24  C   UNL     1       0.643  11.844  21.463  0.00  0.00    +0.000 C 
BRANCH  24  25
ATOM     25  C   UNL     1       1.021  11.397  20.043  0.00  0.00    +0.000 C 
BRANCH  25  35
ATOM     26  C   UNL     1       1.906   3.219  21.481  0.00  0.00    +0.000 C 
ATOM     27  C   UNL     1       2.409   4.305  20.581  0.00  0.00    +0.000 A 
ATOM     28  C   UNL     1       3.369   4.065  19.609  0.00  0.00    +0.000 A 
ATOM     29  C   UNL     1       3.744   5.123  18.807  0.00  0.00    +0.000 A 
ATOM     30  N   UNL     1       3.230   6.367  18.904  0.00  0.00    +0.000 NA
ATOM     31  C   UNL     1       2.285   6.614  19.837  0.00  0.00    +0.000 A 
ATOM     32  N   UNL     1       1.685   7.853  19.845  0.00  0.00    +0.000 N 
ATOM     33  C   UNL     1       2.018   8.782  18.759  0.00  0.00    +0.000 C 
ATOM     34  C   UNL     1       0.753   9.591  18.398  0.00  0.00    +0.000 C 
ATOM     35  N   UNL     1       0.149  10.322  19.543  0.00  0.00    +0.000 NA
ATOM     36  C   UNL     1      -0.136   9.328  20.607  0.00  0.00    +0.000 C 
ATOM     37  C   UNL     1       1.076   8.460  21.031  0.00  0.00    +0.000 C 
ATOM     38  C   UNL     1       1.874   5.593  20.692  0.00  0.00    +0.000 A 
ENDBRANCH  25  35
ENDBRANCH  24  25
ENDBRANCH   1  24
TORSDOF 5
ENDMDL
MODEL 2
REMARK VINA RESULT:      -8.4      7.875     10.945
REMARK  Name = 
REMARK  9 active torsions:
REMARK  status: ('A' for Active; 'I' for Inactive)
REMARK    1  A    between atoms: C_1  and  C_2
REMARK    2  A    between atoms: N_10  and  C_11
REMARK    3  A    between atoms: C_11  and  C_12
REMARK    4  A    between atoms: C_12  and  C_13
REMARK    5  A    between atoms: C_16  and  C_17
REMARK    6  A    between atoms: C_19  and  C_20
REMARK    7  A    between atoms: C_21  and  O_22
REMARK    8  A    between atoms: C_23  and  C_24
REMARK    9  A    between atoms: C_26  and  C_27
REMARK                            x       y       z     vdW  Elec       q    Type
REMARK                         _______ _______ _______ _____ _____    ______ ____
ROOT
ATOM      1  C   UNL     1       8.959  10.654  18.383  0.00  0.00    +0.000 C 
ATOM      2  C   UNL     1       8.805  11.287  19.785  0.00  0.00    +0.000 C 
ATOM      3  N   UNL     1       9.241  12.666  19.790  0.00  0.00    +0.000 N 
ATOM      4  C   UNL     1       8.939  13.718  20.623  0.00  0.00    +0.000 A 
ATOM      5  C   UNL     1       9.669  14.808  20.113  0.00  0.00    +0.000 A 
ATOM      6  C   UNL     1       9.742  16.206  20.632  0.00  0.00    +0.000 C 
ATOM      7  C   UNL     1      10.406  14.360  18.957  0.00  0.00    +0.000 A 
ATOM      8  C   UNL     1      11.296  14.926  18.023  0.00  0.00    +0.000 A 
ATOM      9  C   UNL     1      11.840  14.106  17.010  0.00  0.00    +0.000 A 
ATOM     10  C   UNL     1      11.510  12.749  16.915  0.00  0.00    +0.000 A 
ATOM     11  C   UNL     1      10.613  12.196  17.816  0.00  0.00    +0.000 A 
ATOM     12  C   UNL     1      10.109  13.027  18.806  0.00  0.00    +0.000 A 
ATOM     13  O   UNL     1      10.268  10.864  17.780  0.00  0.00    +0.000 OA
ENDROOT
BRANCH   4  14
ATOM     14  C   UNL     1       7.998  13.612  21.762  0.00  0.00    +0.000 A 
ATOM     15  C   UNL     1       8.333  12.910  22.932  0.00  0.00    +0.000 A 
ATOM     16  C   UNL     1       7.412  12.693  23.971  0.00  0.00    +0.000 A 
ATOM     17  C   UNL     1       7.804  11.799  25.113  0.00  0.00    +0.000 C 
ATOM     18  C   UNL     1       6.158  13.307  23.886  0.00  0.00    +0.000 A 
ATOM     19  C   UNL     1       5.811  14.075  22.769  0.00  0.00    +0.000 A 
ATOM     20  C   UNL     1       4.504  14.810  22.668  0.00  0.00    +0.000 C 
ATOM     21  C   UNL     1       6.720  14.179  21.699  0.00  0.00    +0.000 A 
BRANCH  18  22
ATOM     22  O   UNL     1       5.230  13.177  24.882  0.00  0.00    +0.000 OA
ATOM     23  H   UNL     1       5.060  14.041  25.286  0.00  0.00    +0.000 HD
ENDBRANCH  18  22
ENDBRANCH   4  14
BRANCH   1  24
ATOM     24  C   UNL     1       8.745   9.137  18.490  0.00  0.00    +0.000 C 
BRANCH  24  25
ATOM     25  C   UNL     1       7.413   8.669  17.883  0.00  0.00    +0.000 C 
BRANCH  25  35
ATOM     26  C   UNL     1       2.000   2.327  17.444  0.00  0.00    +0.000 C 
ATOM     27  C   UNL     1       3.115   2.850  18.295  0.00  0.00    +0.000 A 
ATOM     28  C   UNL     1       3.509   2.211  19.461  0.00  0.00    +0.000 A 
ATOM     29  C   UNL     1       4.569   2.752  20.160  0.00  0.00    +0.000 A 
ATOM     30  N   UNL     1       5.247   3.853  19.775  0.00  0.00    +0.000 NA
ATOM     31  C   UNL     1       4.883   4.480  18.635  0.00  0.00    +0.000 A 
ATOM     32  N   UNL     1       5.657   5.530  18.194  0.00  0.00    +0.000 N 
ATOM     33  C   UNL     1       6.901   5.816  18.919  0.00  0.00    +0.000 C 
ATOM     34  C   UNL     1       7.969   6.276  17.903  0.00  0.00    +0.000 C 
ATOM     35  N   UNL     1       7.564   7.446  17.079  0.00  0.00    +0.000 NA
ATOM     36  C   UNL     1       6.293   7.094  16.399  0.00  0.00    +0.000 C 
ATOM     37  C   UNL     1       5.160   6.611  17.340  0.00  0.00    +0.000 C 
ATOM     38  C   UNL     1       3.809   3.996  17.891  0.00  0.00    +0.000 A 
ENDBRANCH  25  35
ENDBRANCH  24  25
ENDBRANCH   1  24
TORSDOF 5
ENDMDL
MODEL 3
REMARK VINA RESULT:      -8.3      2.674      3.315
REMARK  Name = 
REMARK  9 active torsions:
REMARK  status: ('A' for Active; 'I' for Inactive)
REMARK    1  A    between atoms: C_1  and  C_2
REMARK    2  A    between atoms: N_10  and  C_11
REMARK    3  A    between atoms: C_11  and  C_12
REMARK    4  A    between atoms: C_12  and  C_13
REMARK    5  A    between atoms: C_16  and  C_17
REMARK    6  A    between atoms: C_19  and  C_20
REMARK    7  A    between atoms: C_21  and  O_22
REMARK    8  A    between atoms: C_23  and  C_24
REMARK    9  A    between atoms: C_26  and  C_27
REMARK                            x       y       z     vdW  Elec       q    Type
REMARK                         _______ _______ _______ _____ _____    ______ ____
ROOT
ATOM      1  C   UNL     1       0.714  13.762  18.764  0.00  0.00    +0.000 C 
ATOM      2  C   UNL     1      -0.238  13.892  19.974  0.00  0.00    +0.000 C 
ATOM      3  N   UNL     1      -0.938  15.158  19.959  0.00  0.00    +0.000 N 
ATOM      4  C   UNL     1      -2.119  15.557  20.541  0.00  0.00    +0.000 A 
ATOM      5  C   UNL     1      -2.276  16.903  20.158  0.00  0.00    +0.000 A 
ATOM      6  C   UNL     1      -3.372  17.852  20.517  0.00  0.00    +0.000 C 
ATOM      7  C   UNL     1      -1.151  17.276  19.337  0.00  0.00    +0.000 A 
ATOM      8  C   UNL     1      -0.712  18.431  18.660  0.00  0.00    +0.000 A 
ATOM      9  C   UNL     1       0.512  18.389  17.956  0.00  0.00    +0.000 A 
ATOM     10  C   UNL     1       1.290  17.226  17.916  0.00  0.00    +0.000 A 
ATOM     11  C   UNL     1       0.846  16.081  18.558  0.00  0.00    +0.000 A 
ATOM     12  C   UNL     1      -0.353  16.162  19.251  0.00  0.00    +0.000 A 
ATOM     13  O   UNL     1       1.580  14.916  18.566  0.00  0.00    +0.000 OA
ENDROOT
BRANCH   4  14
ATOM     14  C   UNL     1      -2.978  14.657  21.345  0.00  0.00    +0.000 A 
ATOM     15  C   UNL     1      -3.906  13.791  20.743  0.00  0.00    +0.000 A 
ATOM     16  C   UNL     1      -4.815  13.022  21.489  0.00  0.00    +0.000 A 
ATOM     17  C   UNL     1      -5.875  12.245  20.764  0.00  0.00    +0.000 C 
ATOM     18  C   UNL     1      -4.702  13.030  22.884  0.00  0.00    +0.000 A 
ATOM     19  C   UNL     1      -3.743  13.825  23.521  0.00  0.00    +0.000 A 
ATOM     20  C   UNL     1      -3.539  13.809  25.010  0.00  0.00    +0.000 C 
ATOM     21  C   UNL     1      -2.923  14.664  22.743  0.00  0.00    +0.000 A 
BRANCH  18  22
ATOM     22  O   UNL     1      -5.522  12.270  23.671  0.00  0.00    +0.000 OA
ATOM     23  H   UNL     1      -5.367  12.479  24.604  0.00  0.00    +0.000 HD
ENDBRANCH  18  22
ENDBRANCH   4  14
BRANCH   1  24
ATOM     24  C   UNL     1       1.622  12.541  18.967  0.00  0.00    +0.000 C 
BRANCH  24  25
ATOM     25  C   UNL     1       1.128  11.596  20.074  0.00  0.00    +0.000 C 
BRANCH  25  35
ATOM     26  C   UNL     1       1.772   3.371  21.361  0.00  0.00    +0.000 C 
ATOM     27  C   UNL     1       2.303   4.457  20.479  0.00  0.00    +0.000 A 
ATOM     28  C   UNL     1       3.252   4.207  19.497  0.00  0.00    +0.000 A 
ATOM     29  C   UNL     1       3.656   5.268  18.713  0.00  0.00    +0.000 A 
ATOM     30  N   UNL     1       3.179   6.524  18.835  0.00  0.00    +0.000 NA
ATOM     31  C   UNL     1       2.246   6.782  19.777  0.00  0.00    +0.000 A 
ATOM     32  N   UNL     1       1.684   8.038  19.810  0.00  0.00    +0.000 N 
ATOM     33  C   UNL     1       2.040   8.977  18.739  0.00  0.00    +0.000 C 
ATOM     34  C   UNL     1       0.799   9.830  18.399  0.00  0.00    +0.000 C 
ATOM     35  N   UNL     1       0.221  10.558  19.559  0.00  0.00    +0.000 NA
ATOM     36  C   UNL     1      -0.089   9.554  20.606  0.00  0.00    +0.000 C 
ATOM     37  C   UNL     1       1.098   8.642  21.009  0.00  0.00    +0.000 C 
ATOM     38  C   UNL     1       1.808   5.759  20.615  0.00  0.00    +0.000 A 
ENDBRANCH  25  35
ENDBRANCH  24  25
ENDBRANCH   1  24
TORSDOF 5
ENDMDL
MODEL 4
REMARK VINA RESULT:      -8.3      7.844     10.954
REMARK  Name = 
REMARK  9 active torsions:
REMARK  status: ('A' for Active; 'I' for Inactive)
REMARK    1  A    between atoms: C_1  and  C_2
REMARK    2  A    between atoms: N_10  and  C_11
REMARK    3  A    between atoms: C_11  and  C_12
REMARK    4  A    between atoms: C_12  and  C_13
REMARK    5  A    between atoms: C_16  and  C_17
REMARK    6  A    between atoms: C_19  and  C_20
REMARK    7  A    between atoms: C_21  and  O_22
REMARK    8  A    between atoms: C_23  and  C_24
REMARK    9  A    between atoms: C_26  and  C_27
REMARK                            x       y       z     vdW  Elec       q    Type
REMARK                         _______ _______ _______ _____ _____    ______ ____
ROOT
ATOM      1  C   UNL     1       8.951  10.546  18.412  0.00  0.00    +0.000 C 
ATOM      2  C   UNL     1       8.768  11.152  19.822  0.00  0.00    +0.000 C 
ATOM      3  N   UNL     1       9.251  12.514  19.875  0.00  0.00    +0.000 N 
ATOM      4  C   UNL     1       8.955  13.557  20.723  0.00  0.00    +0.000 A 
ATOM      5  C   UNL     1       9.741  14.631  20.265  0.00  0.00    +0.000 A 
ATOM      6  C   UNL     1       9.843  16.014  20.819  0.00  0.00    +0.000 C 
ATOM      7  C   UNL     1      10.503  14.184  19.125  0.00  0.00    +0.000 A 
ATOM      8  C   UNL     1      11.446  14.739  18.238  0.00  0.00    +0.000 A 
ATOM      9  C   UNL     1      11.998  13.924  17.225  0.00  0.00    +0.000 A 
ATOM     10  C   UNL     1      11.624  12.582  17.086  0.00  0.00    +0.000 A 
ATOM     11  C   UNL     1      10.677  12.041  17.941  0.00  0.00    +0.000 A 
ATOM     12  C   UNL     1      10.166  12.866  18.932  0.00  0.00    +0.000 A 
ATOM     13  O   UNL     1      10.287  10.723  17.861  0.00  0.00    +0.000 OA
ENDROOT
BRANCH   4  14
ATOM     14  C   UNL     1       7.970  13.459  21.825  0.00  0.00    +0.000 A 
ATOM     15  C   UNL     1       6.675  13.990  21.704  0.00  0.00    +0.000 A 
ATOM     16  C   UNL     1       5.769  14.019  22.778  0.00  0.00    +0.000 A 
ATOM     17  C   UNL     1       4.465  14.745  22.608  0.00  0.00    +0.000 C 
ATOM     18  C   UNL     1       6.131  13.382  23.970  0.00  0.00    +0.000 A 
ATOM     19  C   UNL     1       7.386  12.778  24.106  0.00  0.00    +0.000 A 
ATOM     20  C   UNL     1       7.789  12.022  25.341  0.00  0.00    +0.000 C 
ATOM     21  C   UNL     1       8.307  12.865  23.045  0.00  0.00    +0.000 A 
BRANCH  18  22
ATOM     22  O   UNL     1       5.281  13.330  25.039  0.00  0.00    +0.000 OA
ATOM     23  H   UNL     1       4.463  13.805  24.832  0.00  0.00    +0.000 HD
ENDBRANCH  18  22
ENDBRANCH   4  14
BRANCH   1  24
ATOM     24  C   UNL     1       8.680   9.036  18.475  0.00  0.00    +0.000 C 
BRANCH  24  25
ATOM     25  C   UNL     1       7.346   8.632  17.829  0.00  0.00    +0.000 C 
BRANCH  25  35
ATOM     26  C   UNL     1       1.906   2.305  17.512  0.00  0.00    +0.000 C 
ATOM     27  C   UNL     1       3.050   2.817  18.329  0.00  0.00    +0.000 A 
ATOM     28  C   UNL     1       3.483   2.166  19.475  0.00  0.00    +0.000 A 
ATOM     29  C   UNL     1       4.567   2.697  20.143  0.00  0.00    +0.000 A 
ATOM     30  N   UNL     1       5.233   3.801  19.745  0.00  0.00    +0.000 NA
ATOM     31  C   UNL     1       4.833   4.441  18.625  0.00  0.00    +0.000 A 
ATOM     32  N   UNL     1       5.594   5.493  18.168  0.00  0.00    +0.000 N 
ATOM     33  C   UNL     1       6.862   5.770  18.854  0.00  0.00    +0.000 C 
ATOM     34  C   UNL     1       7.896   6.238  17.807  0.00  0.00    +0.000 C 
ATOM     35  N   UNL     1       7.466   7.416  17.008  0.00  0.00    +0.000 NA
ATOM     36  C   UNL     1       6.173   7.074  16.369  0.00  0.00    +0.000 C 
ATOM     37  C   UNL     1       5.071   6.584  17.343  0.00  0.00    +0.000 C 
ATOM     38  C   UNL     1       3.733   3.966  17.913  0.00  0.00    +0.000 A 
ENDBRANCH  25  35
ENDBRANCH  24  25
ENDBRANCH   1  24
TORSDOF 5
ENDMDL
MODEL 5
REMARK VINA RESULT:      -8.2      4.082     11.468
REMARK  Name = 
REMARK  9 active torsions:
REMARK  status: ('A' for Active; 'I' for Inactive)
REMARK    1  A    between atoms: C_1  and  C_2
REMARK    2  A    between atoms: N_10  and  C_11
REMARK    3  A    between atoms: C_11  and  C_12
REMARK    4  A    between atoms: C_12  and  C_13
REMARK    5  A    between atoms: C_16  and  C_17
REMARK    6  A    between atoms: C_19  and  C_20
REMARK    7  A    between atoms: C_21  and  O_22
REMARK    8  A    between atoms: C_23  and  C_24
REMARK    9  A    between atoms: C_26  and  C_27
REMARK                            x       y       z     vdW  Elec       q    Type
REMARK                         _______ _______ _______ _____ _____    ______ ____
ROOT
ATOM      1  C   UNL     1       2.158   6.752  19.638  0.00  0.00    +0.000 C 
ATOM      2  C   UNL     1       3.458   6.238  18.977  0.00  0.00    +0.000 C 
ATOM      3  N   UNL     1       3.441   4.799  18.835  0.00  0.00    +0.000 N 
ATOM      4  C   UNL     1       4.127   3.956  17.991  0.00  0.00    +0.000 A 
ATOM      5  C   UNL     1       3.681   2.664  18.328  0.00  0.00    +0.000 A 
ATOM      6  C   UNL     1       4.101   1.353  17.749  0.00  0.00    +0.000 C 
ATOM      7  C   UNL     1       2.715   2.780  19.393  0.00  0.00    +0.000 A 
ATOM      8  C   UNL     1       1.922   1.903  20.160  0.00  0.00    +0.000 A 
ATOM      9  C   UNL     1       1.088   2.437  21.167  0.00  0.00    +0.000 A 
ATOM     10  C   UNL     1       1.034   3.814  21.413  0.00  0.00    +0.000 A 
ATOM     11  C   UNL     1       1.792   4.680  20.642  0.00  0.00    +0.000 A 
ATOM     12  C   UNL     1       2.610   4.120  19.671  0.00  0.00    +0.000 A 
ATOM     13  O   UNL     1       1.791   6.040  20.854  0.00  0.00    +0.000 OA
ENDROOT
BRANCH   4  14
ATOM     14  C   UNL     1       5.078   4.430  16.960  0.00  0.00    +0.000 A 
ATOM     15  C   UNL     1       5.090   3.887  15.664  0.00  0.00    +0.000 A 
ATOM     16  C   UNL     1       6.063   4.232  14.710  0.00  0.00    +0.000 A 
ATOM     17  C   UNL     1       6.096   3.490  13.405  0.00  0.00    +0.000 C 
ATOM     18  C   UNL     1       6.974   5.246  15.028  0.00  0.00    +0.000 A 
ATOM     19  C   UNL     1       6.950   5.862  16.285  0.00  0.00    +0.000 A 
ATOM     20  C   UNL     1       7.862   7.002  16.643  0.00  0.00    +0.000 C 
ATOM     21  C   UNL     1       6.030   5.412  17.251  0.00  0.00    +0.000 A 
BRANCH  18  22
ATOM     22  O   UNL     1       7.918   5.665  14.132  0.00  0.00    +0.000 OA
ATOM     23  H   UNL     1       8.784   5.709  14.564  0.00  0.00    +0.000 HD
ENDBRANCH  18  22
ENDBRANCH   4  14
BRANCH   1  24
ATOM     24  C   UNL     1       2.334   8.231  20.011  0.00  0.00    +0.000 C 
BRANCH  24  25
ATOM     25  C   UNL     1       1.068   8.858  20.615  0.00  0.00    +0.000 C 
BRANCH  25  35
ATOM     26  C   UNL     1      -5.712  12.330  17.194  0.00  0.00    +0.000 C 
ATOM     27  C   UNL     1      -4.489  11.551  16.823  0.00  0.00    +0.000 A 
ATOM     28  C   UNL     1      -4.237  11.161  15.516  0.00  0.00    +0.000 A 
ATOM     29  C   UNL     1      -3.066  10.474  15.268  0.00  0.00    +0.000 A 
ATOM     30  N   UNL     1      -2.152  10.171  16.212  0.00  0.00    +0.000 NA
ATOM     31  C   UNL     1      -2.376  10.554  17.488  0.00  0.00    +0.000 A 
ATOM     32  N   UNL     1      -1.382  10.342  18.416  0.00  0.00    +0.000 N 
ATOM     33  C   UNL     1      -0.093   9.832  17.935  0.00  0.00    +0.000 C 
ATOM     34  C   UNL     1       1.035  10.478  18.768  0.00  0.00    +0.000 C 
ATOM     35  N   UNL     1       0.907  10.271  20.235  0.00  0.00    +0.000 NA
ATOM     36  C   UNL     1      -0.423  10.784  20.643  0.00  0.00    +0.000 C 
ATOM     37  C   UNL     1      -1.621  10.198  19.854  0.00  0.00    +0.000 C 
ATOM     38  C   UNL     1      -3.548  11.235  17.810  0.00  0.00    +0.000 A 
ENDBRANCH  25  35
ENDBRANCH  24  25
ENDBRANCH   1  24
TORSDOF 5
ENDMDL
MODEL 6
REMARK VINA RESULT:      -8.2      4.081     11.510
REMARK  Name = 
REMARK  9 active torsions:
REMARK  status: ('A' for Active; 'I' for Inactive)
REMARK    1  A    between atoms: C_1  and  C_2
REMARK    2  A    between atoms: N_10  and  C_11
REMARK    3  A    between atoms: C_11  and  C_12
REMARK    4  A    between atoms: C_12  and  C_13
REMARK    5  A    between atoms: C_16  and  C_17
REMARK    6  A    between atoms: C_19  and  C_20
REMARK    7  A    between atoms: C_21  and  O_22
REMARK    8  A    between atoms: C_23  and  C_24
REMARK    9  A    between atoms: C_26  and  C_27
REMARK                            x       y       z     vdW  Elec       q    Type
REMARK                         _______ _______ _______ _____ _____    ______ ____
ROOT
ATOM      1  C   UNL     1       2.203   6.728  19.599  0.00  0.00    +0.000 C 
ATOM      2  C   UNL     1       3.520   6.191  18.993  0.00  0.00    +0.000 C 
ATOM      3  N   UNL     1       3.487   4.751  18.857  0.00  0.00    +0.000 N 
ATOM      4  C   UNL     1       4.192   3.893  18.045  0.00  0.00    +0.000 A 
ATOM      5  C   UNL     1       3.713   2.610  18.370  0.00  0.00    +0.000 A 
ATOM      6  C   UNL     1       4.135   1.289  17.815  0.00  0.00    +0.000 C 
ATOM      7  C   UNL     1       2.708   2.746  19.395  0.00  0.00    +0.000 A 
ATOM      8  C   UNL     1       1.871   1.886  20.134  0.00  0.00    +0.000 A 
ATOM      9  C   UNL     1       1.007   2.439  21.105  0.00  0.00    +0.000 A 
ATOM     10  C   UNL     1       0.964   3.817  21.342  0.00  0.00    +0.000 A 
ATOM     11  C   UNL     1       1.766   4.667  20.598  0.00  0.00    +0.000 A 
ATOM     12  C   UNL     1       2.613   4.090  19.663  0.00  0.00    +0.000 A 
ATOM     13  O   UNL     1       1.778   6.028  20.803  0.00  0.00    +0.000 OA
ENDROOT
BRANCH   4  14
ATOM     14  C   UNL     1       5.192   4.346  17.050  0.00  0.00    +0.000 A 
ATOM     15  C   UNL     1       6.137   5.339  17.355  0.00  0.00    +0.000 A 
ATOM     16  C   UNL     1       7.011   5.871  16.392  0.00  0.00    +0.000 A 
ATOM     17  C   UNL     1       7.880   7.038  16.764  0.00  0.00    +0.000 C 
ATOM     18  C   UNL     1       7.019   5.298  15.115  0.00  0.00    +0.000 A 
ATOM     19  C   UNL     1       6.141   4.258  14.792  0.00  0.00    +0.000 A 
ATOM     20  C   UNL     1       6.165   3.566  13.457  0.00  0.00    +0.000 C 
ATOM     21  C   UNL     1       5.206   3.826  15.751  0.00  0.00    +0.000 A 
BRANCH  18  22
ATOM     22  O   UNL     1       7.875   5.734  14.142  0.00  0.00    +0.000 OA
ATOM     23  H   UNL     1       8.679   5.194  14.147  0.00  0.00    +0.000 HD
ENDBRANCH  18  22
ENDBRANCH   4  14
BRANCH   1  24
ATOM     24  C   UNL     1       2.388   8.206  19.972  0.00  0.00    +0.000 C 
BRANCH  24  25
ATOM     25  C   UNL     1       1.122   8.844  20.565  0.00  0.00    +0.000 C 
BRANCH  25  35
ATOM     26  C   UNL     1      -5.681  12.371  17.247  0.00  0.00    +0.000 C 
ATOM     27  C   UNL     1      -4.475  11.573  16.859  0.00  0.00    +0.000 A 
ATOM     28  C   UNL     1      -4.254  11.168  15.550  0.00  0.00    +0.000 A 
ATOM     29  C   UNL     1      -3.097  10.465  15.285  0.00  0.00    +0.000 A 
ATOM     30  N   UNL     1      -2.168  10.158  16.214  0.00  0.00    +0.000 NA
ATOM     31  C   UNL     1      -2.362  10.555  17.491  0.00  0.00    +0.000 A 
ATOM     32  N   UNL     1      -1.353  10.339  18.401  0.00  0.00    +0.000 N 
ATOM     33  C   UNL     1      -0.080   9.808  17.899  0.00  0.00    +0.000 C 
ATOM     34  C   UNL     1       1.073  10.448  18.704  0.00  0.00    +0.000 C 
ATOM     35  N   UNL     1       0.971  10.255  20.175  0.00  0.00    +0.000 NA
ATOM     36  C   UNL     1      -0.345  10.789  20.605  0.00  0.00    +0.000 C 
ATOM     37  C   UNL     1      -1.565  10.210  19.845  0.00  0.00    +0.000 C 
ATOM     38  C   UNL     1      -3.519  11.254  17.830  0.00  0.00    +0.000 A 
ENDBRANCH  25  35
ENDBRANCH  24  25
ENDBRANCH   1  24
TORSDOF 5
ENDMDL
MODEL 7
REMARK VINA RESULT:      -8.1      6.285     11.507
REMARK  Name = 
REMARK  9 active torsions:
REMARK  status: ('A' for Active; 'I' for Inactive)
REMARK    1  A    between atoms: C_1  and  C_2
REMARK    2  A    between atoms: N_10  and  C_11
REMARK    3  A    between atoms: C_11  and  C_12
REMARK    4  A    between atoms: C_12  and  C_13
REMARK    5  A    between atoms: C_16  and  C_17
REMARK    6  A    between atoms: C_19  and  C_20
REMARK    7  A    between atoms: C_21  and  O_22
REMARK    8  A    between atoms: C_23  and  C_24
REMARK    9  A    between atoms: C_26  and  C_27
REMARK                            x       y       z     vdW  Elec       q    Type
REMARK                         _______ _______ _______ _____ _____    ______ ____
ROOT
ATOM      1  C   UNL     1       7.262   7.546  17.580  0.00  0.00    +0.000 C 
ATOM      2  C   UNL     1       5.777   7.973  17.606  0.00  0.00    +0.000 C 
ATOM      3  N   UNL     1       4.899   6.831  17.474  0.00  0.00    +0.000 N 
ATOM      4  C   UNL     1       3.585   6.642  17.832  0.00  0.00    +0.000 A 
ATOM      5  C   UNL     1       3.291   5.319  17.450  0.00  0.00    +0.000 A 
ATOM      6  C   UNL     1       2.002   4.576  17.577  0.00  0.00    +0.000 C 
ATOM      7  C   UNL     1       4.474   4.744  16.858  0.00  0.00    +0.000 A 
ATOM      8  C   UNL     1       4.841   3.508  16.290  0.00  0.00    +0.000 A 
ATOM      9  C   UNL     1       6.148   3.349  15.780  0.00  0.00    +0.000 A 
ATOM     10  C   UNL     1       7.082   4.391  15.832  0.00  0.00    +0.000 A 
ATOM     11  C   UNL     1       6.732   5.598  16.415  0.00  0.00    +0.000 A 
ATOM     12  C   UNL     1       5.435   5.724  16.893  0.00  0.00    +0.000 A 
ATOM     13  O   UNL     1       7.604   6.661  16.476  0.00  0.00    +0.000 OA
ENDROOT
BRANCH   4  14
ATOM     14  C   UNL     1       2.765   7.674  18.508  0.00  0.00    +0.000 A 
ATOM     15  C   UNL     1       2.208   7.457  19.778  0.00  0.00    +0.000 A 
ATOM     16  C   UNL     1       1.328   8.370  20.383  0.00  0.00    +0.000 A 
ATOM     17  C   UNL     1       0.655   7.989  21.670  0.00  0.00    +0.000 C 
ATOM     18  C   UNL     1       1.101   9.595  19.745  0.00  0.00    +0.000 A 
ATOM     19  C   UNL     1       1.696   9.880  18.510  0.00  0.00    +0.000 A 
ATOM     20  C   UNL     1       1.538  11.209  17.825  0.00  0.00    +0.000 C 
ATOM     21  C   UNL     1       2.484   8.895  17.886  0.00  0.00    +0.000 A 
BRANCH  18  22
ATOM     22  O   UNL     1       0.294  10.550  20.297  0.00  0.00    +0.000 OA
ATOM     23  H   UNL     1       0.414  11.391  19.831  0.00  0.00    +0.000 HD
ENDBRANCH  18  22
ENDBRANCH   4  14
BRANCH   1  24
ATOM     24  C   UNL     1       8.143   8.798  17.450  0.00  0.00    +0.000 C 
BRANCH  24  25
ATOM     25  C   UNL     1       8.310   9.561  18.774  0.00  0.00    +0.000 C 
BRANCH  25  35
ATOM     26  C   UNL     1      10.134  17.226  21.538  0.00  0.00    +0.000 C 
ATOM     27  C   UNL     1       9.721  16.504  20.294  0.00  0.00    +0.000 A 
ATOM     28  C   UNL     1       9.492  17.173  19.100  0.00  0.00    +0.000 A 
ATOM     29  C   UNL     1       9.146  16.416  17.999  0.00  0.00    +0.000 A 
ATOM     30  N   UNL     1       9.028  15.073  18.011  0.00  0.00    +0.000 NA
ATOM     31  C   UNL     1       9.259  14.405  19.162  0.00  0.00    +0.000 A 
ATOM     32  N   UNL     1       9.251  13.028  19.130  0.00  0.00    +0.000 N 
ATOM     33  C   UNL     1       9.121  12.374  17.823  0.00  0.00    +0.000 C 
ATOM     34  C   UNL     1       9.981  11.092  17.825  0.00  0.00    +0.000 C 
ATOM     35  N   UNL     1       9.655  10.140  18.920  0.00  0.00    +0.000 NA
ATOM     36  C   UNL     1       9.782  10.874  20.202  0.00  0.00    +0.000 C 
ATOM     37  C   UNL     1       8.959  12.184  20.291  0.00  0.00    +0.000 C 
ATOM     38  C   UNL     1       9.595  15.110  20.316  0.00  0.00    +0.000 A 
ENDBRANCH  25  35
ENDBRANCH  24  25
ENDBRANCH   1  24
TORSDOF 5
ENDMDL
MODEL 8
REMARK VINA RESULT:      -8.1      6.308     11.458
REMARK  Name = 
REMARK  9 active torsions:
REMARK  status: ('A' for Active; 'I' for Inactive)
REMARK    1  A    between atoms: C_1  and  C_2
REMARK    2  A    between atoms: N_10  and  C_11
REMARK    3  A    between atoms: C_11  and  C_12
REMARK    4  A    between atoms: C_12  and  C_13
REMARK    5  A    between atoms: C_16  and  C_17
REMARK    6  A    between atoms: C_19  and  C_20
REMARK    7  A    between atoms: C_21  and  O_22
REMARK    8  A    between atoms: C_23  and  C_24
REMARK    9  A    between atoms: C_26  and  C_27
REMARK                            x       y       z     vdW  Elec       q    Type
REMARK                         _______ _______ _______ _____ _____    ______ ____
ROOT
ATOM      1  C   UNL     1       7.234   7.558  17.587  0.00  0.00    +0.000 C 
ATOM      2  C   UNL     1       5.746   7.979  17.595  0.00  0.00    +0.000 C 
ATOM      3  N   UNL     1       4.875   6.831  17.469  0.00  0.00    +0.000 N 
ATOM      4  C   UNL     1       3.558   6.640  17.818  0.00  0.00    +0.000 A 
ATOM      5  C   UNL     1       3.274   5.311  17.450  0.00  0.00    +0.000 A 
ATOM      6  C   UNL     1       1.987   4.564  17.575  0.00  0.00    +0.000 C 
ATOM      7  C   UNL     1       4.465   4.734  16.876  0.00  0.00    +0.000 A 
ATOM      8  C   UNL     1       4.843   3.492  16.327  0.00  0.00    +0.000 A 
ATOM      9  C   UNL     1       6.155   3.333  15.831  0.00  0.00    +0.000 A 
ATOM     10  C   UNL     1       7.083   4.380  15.878  0.00  0.00    +0.000 A 
ATOM     11  C   UNL     1       6.723   5.593  16.442  0.00  0.00    +0.000 A 
ATOM     12  C   UNL     1       5.421   5.718  16.907  0.00  0.00    +0.000 A 
ATOM     13  O   UNL     1       7.589   6.661  16.497  0.00  0.00    +0.000 OA
ENDROOT
BRANCH   4  14
ATOM     14  C   UNL     1       2.729   7.677  18.473  0.00  0.00    +0.000 A 
ATOM     15  C   UNL     1       2.462   8.908  17.852  0.00  0.00    +0.000 A 
ATOM     16  C   UNL     1       1.784   9.952  18.504  0.00  0.00    +0.000 A 
ATOM     17  C   UNL     1       1.680  11.287  17.826  0.00  0.00    +0.000 C 
ATOM     18  C   UNL     1       1.248   9.703  19.773  0.00  0.00    +0.000 A 
ATOM     19  C   UNL     1       1.430   8.464  20.397  0.00  0.00    +0.000 A 
ATOM     20  C   UNL     1       0.811   8.131  21.726  0.00  0.00    +0.000 C 
ATOM     21  C   UNL     1       2.208   7.482  19.757  0.00  0.00    +0.000 A 
BRANCH  18  22
ATOM     22  O   UNL     1       0.536  10.657  20.447  0.00  0.00    +0.000 OA
ATOM     23  H   UNL     1       1.126  11.375  20.719  0.00  0.00    +0.000 HD
ENDBRANCH  18  22
ENDBRANCH   4  14
BRANCH   1  24
ATOM     24  C   UNL     1       8.110   8.812  17.450  0.00  0.00    +0.000 C 
BRANCH  24  25
ATOM     25  C   UNL     1       8.270   9.587  18.767  0.00  0.00    +0.000 C 
BRANCH  25  35
ATOM     26  C   UNL     1      10.236  17.211  21.548  0.00  0.00    +0.000 C 
ATOM     27  C   UNL     1       9.825  16.497  20.298  0.00  0.00    +0.000 A 
ATOM     28  C   UNL     1       9.631  17.169  19.100  0.00  0.00    +0.000 A 
ATOM     29  C   UNL     1       9.285  16.418  17.995  0.00  0.00    +0.000 A 
ATOM     30  N   UNL     1       9.134  15.078  18.007  0.00  0.00    +0.000 NA
ATOM     31  C   UNL     1       9.331  14.407  19.163  0.00  0.00    +0.000 A 
ATOM     32  N   UNL     1       9.290  13.031  19.133  0.00  0.00    +0.000 N 
ATOM     33  C   UNL     1       9.164  12.378  17.825  0.00  0.00    +0.000 C 
ATOM     34  C   UNL     1       9.992  11.075  17.843  0.00  0.00    +0.000 C 
ATOM     35  N   UNL     1       9.626  10.133  18.934  0.00  0.00    +0.000 NA
ATOM     36  C   UNL     1       9.751  10.867  20.217  0.00  0.00    +0.000 C 
ATOM     37  C   UNL     1       8.958  12.196  20.290  0.00  0.00    +0.000 C 
ATOM     38  C   UNL     1       9.665  15.106  20.321  0.00  0.00    +0.000 A 
ENDBRANCH  25  35
ENDBRANCH  24  25
ENDBRANCH   1  24
TORSDOF 5
ENDMDL
MODEL 9
REMARK VINA RESULT:      -8.0      1.661      1.852
REMARK  Name = 
REMARK  9 active torsions:
REMARK  status: ('A' for Active; 'I' for Inactive)
REMARK    1  A    between atoms: C_1  and  C_2
REMARK    2  A    between atoms: N_10  and  C_11
REMARK    3  A    between atoms: C_11  and  C_12
REMARK    4  A    between atoms: C_12  and  C_13
REMARK    5  A    between atoms: C_16  and  C_17
REMARK    6  A    between atoms: C_19  and  C_20
REMARK    7  A    between atoms: C_21  and  O_22
REMARK    8  A    between atoms: C_23  and  C_24
REMARK    9  A    between atoms: C_26  and  C_27
REMARK                            x       y       z     vdW  Elec       q    Type
REMARK                         _______ _______ _______ _____ _____    ______ ____
ROOT
ATOM      1  C   UNL     1      -0.247  13.470  20.444  0.00  0.00    +0.000 C 
ATOM      2  C   UNL     1      -1.644  13.410  21.103  0.00  0.00    +0.000 C 
ATOM      3  N   UNL     1      -2.374  14.643  20.902  0.00  0.00    +0.000 N 
ATOM      4  C   UNL     1      -3.720  14.923  20.927  0.00  0.00    +0.000 A 
ATOM      5  C   UNL     1      -3.810  16.301  20.653  0.00  0.00    +0.000 A 
ATOM      6  C   UNL     1      -5.030  17.158  20.574  0.00  0.00    +0.000 C 
ATOM      7  C   UNL     1      -2.475  16.815  20.466  0.00  0.00    +0.000 A 
ATOM      8  C   UNL     1      -1.886  18.062  20.180  0.00  0.00    +0.000 A 
ATOM      9  C   UNL     1      -0.479  18.153  20.101  0.00  0.00    +0.000 A 
ATOM     10  C   UNL     1       0.336  17.032  20.298  0.00  0.00    +0.000 A 
ATOM     11  C   UNL     1      -0.243  15.799  20.553  0.00  0.00    +0.000 A 
ATOM     12  C   UNL     1      -1.627  15.749  20.638  0.00  0.00    +0.000 A 
ATOM     13  O   UNL     1       0.511  14.669  20.774  0.00  0.00    +0.000 OA
ENDROOT
BRANCH   4  14
ATOM     14  C   UNL     1      -4.763  13.898  21.165  0.00  0.00    +0.000 A 
ATOM     15  C   UNL     1      -5.166  13.009  20.155  0.00  0.00    +0.000 A 
ATOM     16  C   UNL     1      -6.237  12.114  20.321  0.00  0.00    +0.000 A 
ATOM     17  C   UNL     1      -6.702  11.311  19.140  0.00  0.00    +0.000 C 
ATOM     18  C   UNL     1      -6.838  12.025  21.581  0.00  0.00    +0.000 A 
ATOM     19  C   UNL     1      -6.418  12.844  22.635  0.00  0.00    +0.000 A 
ATOM     20  C   UNL     1      -6.985  12.731  24.022  0.00  0.00    +0.000 C 
ATOM     21  C   UNL     1      -5.415  13.803  22.399  0.00  0.00    +0.000 A 
BRANCH  18  22
ATOM     22  O   UNL     1      -7.854  11.143  21.827  0.00  0.00    +0.000 OA
ATOM     23  H   UNL     1      -8.686  11.626  21.945  0.00  0.00    +0.000 HD
ENDBRANCH  18  22
ENDBRANCH   4  14
BRANCH   1  24
ATOM     24  C   UNL     1       0.581  12.264  20.910  0.00  0.00    +0.000 C 
BRANCH  24  25
ATOM     25  C   UNL     1       1.158  11.440  19.749  0.00  0.00    +0.000 C 
BRANCH  25  35
ATOM     26  C   UNL     1       2.000   3.327  21.535  0.00  0.00    +0.000 C 
ATOM     27  C   UNL     1       2.483   4.363  20.569  0.00  0.00    +0.000 A 
ATOM     28  C   UNL     1       3.406   4.067  19.576  0.00  0.00    +0.000 A 
ATOM     29  C   UNL     1       3.765   5.082  18.714  0.00  0.00    +0.000 A 
ATOM     30  N   UNL     1       3.268   6.335  18.770  0.00  0.00    +0.000 NA
ATOM     31  C   UNL     1       2.360   6.637  19.723  0.00  0.00    +0.000 A 
ATOM     32  N   UNL     1       1.775   7.883  19.694  0.00  0.00    +0.000 N 
ATOM     33  C   UNL     1       2.080   8.756  18.555  0.00  0.00    +0.000 C 
ATOM     34  C   UNL     1       0.812   9.564  18.200  0.00  0.00    +0.000 C 
ATOM     35  N   UNL     1       0.256  10.355  19.330  0.00  0.00    +0.000 NA
ATOM     36  C   UNL     1      -0.002   9.415  20.448  0.00  0.00    +0.000 C 
ATOM     37  C   UNL     1       1.214   8.551  20.870  0.00  0.00    +0.000 C 
ATOM     38  C   UNL     1       1.967   5.662  20.638  0.00  0.00    +0.000 A 
ENDBRANCH  25  35
ENDBRANCH  24  25
ENDBRANCH   1  24
TORSDOF 5
ENDMDL
