MODEL 1
REMARK VINA RESULT:      -7.8      0.000      0.000
REMARK  Name = 
REMARK  10 active torsions:
REMARK  status: ('A' for Active; 'I' for Inactive)
REMARK    1  A    between atoms: C_1  and  C_2
REMARK    2  A    between atoms: C_3  and  N_4
REMARK    3  A    between atoms: N_4  and  C_5
REMARK    4  A    between atoms: C_5  and  C_6
REMARK    5  A    between atoms: C_10  and  C_11
REMARK    6  A    between atoms: C_11  and  C_12
REMARK    7  A    between atoms: C_11  and  C_13
REMARK    8  A    between atoms: C_11  and  C_14
REMARK    9  A    between atoms: C_19  and  C_20
REMARK   10  A    between atoms: C_19  and  C_21
REMARK                            x       y       z     vdW  Elec       q    Type
REMARK                         _______ _______ _______ _____ _____    ______ ____
ROOT
ATOM      1  N   UNL     1       3.269   3.621  17.124  0.00  0.00    +0.000 NA
ATOM      2  H   UNL     1       2.543   4.164  17.593  0.00  0.00    +0.000 HD
ENDROOT
BRANCH   1   5
ATOM      3  C   UNL     1       6.130   3.644  15.426  0.00  0.00    +0.000 C 
ATOM      4  C   UNL     1       5.182   4.689  16.016  0.00  0.00    +0.000 C 
ATOM      5  C   UNL     1       4.584   4.242  17.388  0.00  0.00    +0.000 C 
ATOM      6  C   UNL     1       4.535   5.364  18.465  0.00  0.00    +0.000 C 
ATOM      7  C   UNL     1       5.298   6.624  18.050  0.00  0.00    +0.000 C 
ATOM      8  C   UNL     1       4.812   7.073  16.647  0.00  0.00    +0.000 C 
ATOM      9  C   UNL     1       5.872   6.062  16.113  0.00  0.00    +0.000 C 
ATOM     10  C   UNL     1       6.720   6.427  17.403  0.00  0.00    +0.000 C 
ATOM     11  C   UNL     1       7.623   5.367  18.032  0.00  0.00    +0.000 C 
ATOM     12  C   UNL     1       7.543   7.726  17.279  0.00  0.00    +0.000 C 
ENDBRANCH   1   5
BRANCH   1  13
ATOM     13  C   UNL     1       3.160   2.237  17.575  0.00  0.00    +0.000 C 
BRANCH  13  14
ATOM     14  C   UNL     1       3.571   2.161  19.000  0.00  0.00    +0.000 A 
ATOM     15  N   UNL     1       4.787   1.636  19.359  0.00  0.00    +0.000 N 
ATOM     16  C   UNL     1       4.898   1.710  20.712  0.00  0.00    +0.000 A 
ATOM     17  N   UNL     1       3.826   2.237  21.250  0.00  0.00    +0.000 NA
ATOM     18  C   UNL     1       2.969   2.524  20.199  0.00  0.00    +0.000 A 
ATOM     19  H   UNL     1       5.462   1.237  18.720  0.00  0.00    +0.000 HD
BRANCH  18  20
ATOM     20  C   UNL     1       1.602   3.128  20.478  0.00  0.00    +0.000 C 
ATOM     21  C   UNL     1       1.655   4.672  20.435  0.00  0.00    +0.000 C 
ATOM     22  C   UNL     1       0.579   2.677  19.416  0.00  0.00    +0.000 C 
ATOM     23  C   UNL     1       1.109   2.720  21.880  0.00  0.00    +0.000 C 
ENDBRANCH  18  20
ENDBRANCH  13  14
ENDBRANCH   1  13
TORSDOF 4
ENDMDL
MODEL 2
REMARK VINA RESULT:      -7.6      1.889      5.968
REMARK  Name = 
REMARK  10 active torsions:
REMARK  status: ('A' for Active; 'I' for Inactive)
REMARK    1  A    between atoms: C_1  and  C_2
REMARK    2  A    between atoms: C_3  and  N_4
REMARK    3  A    between atoms: N_4  and  C_5
REMARK    4  A    between atoms: C_5  and  C_6
REMARK    5  A    between atoms: C_10  and  C_11
REMARK    6  A    between atoms: C_11  and  C_12
REMARK    7  A    between atoms: C_11  and  C_13
REMARK    8  A    between atoms: C_11  and  C_14
REMARK    9  A    between atoms: C_19  and  C_20
REMARK   10  A    between atoms: C_19  and  C_21
REMARK                            x       y       z     vdW  Elec       q    Type
REMARK                         _______ _______ _______ _____ _____    ______ ____
ROOT
ATOM      1  N   UNL     1       3.987   3.720  16.592  0.00  0.00    +0.000 NA
ATOM      2  H   UNL     1       3.382   3.049  16.117  0.00  0.00    +0.000 HD
ENDROOT
BRANCH   1   5
ATOM      3  C   UNL     1       1.150   5.077  17.679  0.00  0.00    +0.000 C 
ATOM      4  C   UNL     1       1.907   3.766  17.898  0.00  0.00    +0.000 C 
ATOM      5  C   UNL     1       3.455   3.975  17.947  0.00  0.00    +0.000 C 
ATOM      6  C   UNL     1       4.179   3.164  19.061  0.00  0.00    +0.000 C 
ATOM      7  C   UNL     1       3.210   2.502  20.043  0.00  0.00    +0.000 C 
ATOM      8  C   UNL     1       2.160   1.684  19.246  0.00  0.00    +0.000 C 
ATOM      9  C   UNL     1       1.389   3.036  19.151  0.00  0.00    +0.000 C 
ATOM     10  C   UNL     1       2.009   3.373  20.571  0.00  0.00    +0.000 C 
ATOM     11  C   UNL     1       2.316   4.826  20.930  0.00  0.00    +0.000 C 
ATOM     12  C   UNL     1       1.253   2.748  21.762  0.00  0.00    +0.000 C 
ENDBRANCH   1   5
BRANCH   1  13
ATOM     13  C   UNL     1       5.348   3.194  16.573  0.00  0.00    +0.000 C 
BRANCH  13  14
ATOM     14  C   UNL     1       6.211   4.120  15.795  0.00  0.00    +0.000 A 
ATOM     15  N   UNL     1       6.612   3.810  14.520  0.00  0.00    +0.000 N 
ATOM     16  C   UNL     1       7.370   4.838  14.053  0.00  0.00    +0.000 A 
ATOM     17  N   UNL     1       7.495   5.785  14.951  0.00  0.00    +0.000 NA
ATOM     18  C   UNL     1       6.783   5.358  16.061  0.00  0.00    +0.000 A 
ATOM     19  H   UNL     1       6.400   2.949  14.034  0.00  0.00    +0.000 HD
BRANCH  18  20
ATOM     20  C   UNL     1       6.742   6.221  17.313  0.00  0.00    +0.000 C 
ATOM     21  C   UNL     1       7.712   7.418  17.198  0.00  0.00    +0.000 C 
ATOM     22  C   UNL     1       5.328   6.797  17.531  0.00  0.00    +0.000 C 
ATOM     23  C   UNL     1       7.163   5.399  18.547  0.00  0.00    +0.000 C 
ENDBRANCH  18  20
ENDBRANCH  13  14
ENDBRANCH   1  13
TORSDOF 4
ENDMDL
MODEL 3
REMARK VINA RESULT:      -7.5      1.975      5.843
REMARK  Name = 
REMARK  10 active torsions:
REMARK  status: ('A' for Active; 'I' for Inactive)
REMARK    1  A    between atoms: C_1  and  C_2
REMARK    2  A    between atoms: C_3  and  N_4
REMARK    3  A    between atoms: N_4  and  C_5
REMARK    4  A    between atoms: C_5  and  C_6
REMARK    5  A    between atoms: C_10  and  C_11
REMARK    6  A    between atoms: C_11  and  C_12
REMARK    7  A    between atoms: C_11  and  C_13
REMARK    8  A    between atoms: C_11  and  C_14
REMARK    9  A    between atoms: C_19  and  C_20
REMARK   10  A    between atoms: C_19  and  C_21
REMARK                            x       y       z     vdW  Elec       q    Type
REMARK                         _______ _______ _______ _____ _____    ______ ____
ROOT
ATOM      1  N   UNL     1       4.870   2.986  16.829  0.00  0.00    +0.000 NA
ATOM      2  H   UNL     1       5.679   3.356  17.329  0.00  0.00    +0.000 HD
ENDROOT
BRANCH   1   5
ATOM      3  C   UNL     1       4.740   2.305  20.083  0.00  0.00    +0.000 C 
ATOM      4  C   UNL     1       4.203   3.397  19.157  0.00  0.00    +0.000 C 
ATOM      5  C   UNL     1       3.745   2.831  17.774  0.00  0.00    +0.000 C 
ATOM      6  C   UNL     1       2.405   3.424  17.248  0.00  0.00    +0.000 C 
ATOM      7  C   UNL     1       1.677   4.272  18.293  0.00  0.00    +0.000 C 
ATOM      8  C   UNL     1       2.657   5.331  18.861  0.00  0.00    +0.000 C 
ATOM      9  C   UNL     1       3.084   4.199  19.845  0.00  0.00    +0.000 C 
ATOM     10  C   UNL     1       1.583   3.694  19.754  0.00  0.00    +0.000 C 
ATOM     11  C   UNL     1       1.284   2.202  19.888  0.00  0.00    +0.000 C 
ATOM     12  C   UNL     1       0.599   4.451  20.670  0.00  0.00    +0.000 C 
ENDBRANCH   1   5
BRANCH   1  13
ATOM     13  C   UNL     1       4.589   3.873  15.705  0.00  0.00    +0.000 C 
BRANCH  13  14
ATOM     14  C   UNL     1       5.863   4.476  15.238  0.00  0.00    +0.000 A 
ATOM     15  N   UNL     1       6.393   4.151  14.014  0.00  0.00    +0.000 N 
ATOM     16  C   UNL     1       7.542   4.860  13.848  0.00  0.00    +0.000 A 
ATOM     17  N   UNL     1       7.793   5.612  14.892  0.00  0.00    +0.000 NA
ATOM     18  C   UNL     1       6.759   5.386  15.787  0.00  0.00    +0.000 A 
ATOM     19  H   UNL     1       6.005   3.476  13.370  0.00  0.00    +0.000 HD
BRANCH  18  20
ATOM     20  C   UNL     1       6.754   6.091  17.134  0.00  0.00    +0.000 C 
ATOM     21  C   UNL     1       7.675   7.331  17.119  0.00  0.00    +0.000 C 
ATOM     22  C   UNL     1       5.335   6.579  17.489  0.00  0.00    +0.000 C 
ATOM     23  C   UNL     1       7.269   5.146  18.239  0.00  0.00    +0.000 C 
ENDBRANCH  18  20
ENDBRANCH  13  14
ENDBRANCH   1  13
TORSDOF 4
ENDMDL
MODEL 4
REMARK VINA RESULT:      -7.4      1.852      5.774
REMARK  Name = 
REMARK  10 active torsions:
REMARK  status: ('A' for Active; 'I' for Inactive)
REMARK    1  A    between atoms: C_1  and  C_2
REMARK    2  A    between atoms: C_3  and  N_4
REMARK    3  A    between atoms: N_4  and  C_5
REMARK    4  A    between atoms: C_5  and  C_6
REMARK    5  A    between atoms: C_10  and  C_11
REMARK    6  A    between atoms: C_11  and  C_12
REMARK    7  A    between atoms: C_11  and  C_13
REMARK    8  A    between atoms: C_11  and  C_14
REMARK    9  A    between atoms: C_19  and  C_20
REMARK   10  A    between atoms: C_19  and  C_21
REMARK                            x       y       z     vdW  Elec       q    Type
REMARK                         _______ _______ _______ _____ _____    ______ ____
ROOT
ATOM      1  N   UNL     1       3.750   3.952  16.305  0.00  0.00    +0.000 NA
ATOM      2  H   UNL     1       3.310   3.797  15.397  0.00  0.00    +0.000 HD
ENDROOT
BRANCH   1   5
ATOM      3  C   UNL     1       3.673   1.221  18.203  0.00  0.00    +0.000 C 
ATOM      4  C   UNL     1       3.678   2.733  18.435  0.00  0.00    +0.000 C 
ATOM      5  C   UNL     1       2.831   3.501  17.370  0.00  0.00    +0.000 C 
ATOM      6  C   UNL     1       1.947   4.642  17.953  0.00  0.00    +0.000 C 
ATOM      7  C   UNL     1       1.898   4.638  19.482  0.00  0.00    +0.000 C 
ATOM      8  C   UNL     1       3.347   4.615  20.036  0.00  0.00    +0.000 C 
ATOM      9  C   UNL     1       3.234   3.069  19.870  0.00  0.00    +0.000 C 
ATOM     10  C   UNL     1       1.692   3.249  20.195  0.00  0.00    +0.000 C 
ATOM     11  C   UNL     1       0.676   2.295  19.567  0.00  0.00    +0.000 C 
ATOM     12  C   UNL     1       1.364   3.354  21.699  0.00  0.00    +0.000 C 
ENDBRANCH   1   5
BRANCH   1  13
ATOM     13  C   UNL     1       5.042   3.276  16.303  0.00  0.00    +0.000 C 
BRANCH  13  14
ATOM     14  C   UNL     1       6.052   4.168  15.677  0.00  0.00    +0.000 A 
ATOM     15  N   UNL     1       6.578   3.885  14.441  0.00  0.00    +0.000 N 
ATOM     16  C   UNL     1       7.454   4.873  14.118  0.00  0.00    +0.000 A 
ATOM     17  N   UNL     1       7.536   5.769  15.071  0.00  0.00    +0.000 NA
ATOM     18  C   UNL     1       6.671   5.349  16.070  0.00  0.00    +0.000 A 
ATOM     19  H   UNL     1       6.367   3.064  13.891  0.00  0.00    +0.000 HD
BRANCH  18  20
ATOM     20  C   UNL     1       6.542   6.157  17.350  0.00  0.00    +0.000 C 
ATOM     21  C   UNL     1       7.583   7.297  17.399  0.00  0.00    +0.000 C 
ATOM     22  C   UNL     1       5.147   6.808  17.446  0.00  0.00    +0.000 C 
ATOM     23  C   UNL     1       6.781   5.259  18.581  0.00  0.00    +0.000 C 
ENDBRANCH  18  20
ENDBRANCH  13  14
ENDBRANCH   1  13
TORSDOF 4
ENDMDL
MODEL 5
REMARK VINA RESULT:      -7.3      4.311      6.691
REMARK  Name = 
REMARK  10 active torsions:
REMARK  status: ('A' for Active; 'I' for Inactive)
REMARK    1  A    between atoms: C_1  and  C_2
REMARK    2  A    between atoms: C_3  and  N_4
REMARK    3  A    between atoms: N_4  and  C_5
REMARK    4  A    between atoms: C_5  and  C_6
REMARK    5  A    between atoms: C_10  and  C_11
REMARK    6  A    between atoms: C_11  and  C_12
REMARK    7  A    between atoms: C_11  and  C_13
REMARK    8  A    between atoms: C_11  and  C_14
REMARK    9  A    between atoms: C_19  and  C_20
REMARK   10  A    between atoms: C_19  and  C_21
REMARK                            x       y       z     vdW  Elec       q    Type
REMARK                         _______ _______ _______ _____ _____    ______ ____
ROOT
ATOM      1  N   UNL     1       1.716   6.400  20.950  0.00  0.00    +0.000 NA
ATOM      2  H   UNL     1       0.719   6.180  20.953  0.00  0.00    +0.000 HD
ENDROOT
BRANCH   1   5
ATOM      3  C   UNL     1       1.382   3.149  21.575  0.00  0.00    +0.000 C 
ATOM      4  C   UNL     1       1.457   4.037  20.332  0.00  0.00    +0.000 C 
ATOM      5  C   UNL     1       2.472   5.212  20.502  0.00  0.00    +0.000 C 
ATOM      6  C   UNL     1       3.363   5.479  19.253  0.00  0.00    +0.000 C 
ATOM      7  C   UNL     1       3.237   4.389  18.186  0.00  0.00    +0.000 C 
ATOM      8  C   UNL     1       1.737   4.172  17.858  0.00  0.00    +0.000 C 
ATOM      9  C   UNL     1       1.758   3.199  19.076  0.00  0.00    +0.000 C 
ATOM     10  C   UNL     1       3.262   2.893  18.675  0.00  0.00    +0.000 C 
ATOM     11  C   UNL     1       4.272   2.540  19.766  0.00  0.00    +0.000 C 
ATOM     12  C   UNL     1       3.422   1.861  17.540  0.00  0.00    +0.000 C 
ENDBRANCH   1   5
BRANCH   1  13
ATOM     13  C   UNL     1       1.914   7.584  20.120  0.00  0.00    +0.000 C 
BRANCH  13  14
ATOM     14  C   UNL     1       1.172   8.722  20.720  0.00  0.00    +0.000 A 
ATOM     15  N   UNL     1       0.855   8.735  22.055  0.00  0.00    +0.000 N 
ATOM     16  C   UNL     1       0.200   9.895  22.324  0.00  0.00    +0.000 A 
ATOM     17  N   UNL     1       0.062  10.626  21.245  0.00  0.00    +0.000 NA
ATOM     18  C   UNL     1       0.657   9.911  20.217  0.00  0.00    +0.000 A 
ATOM     19  H   UNL     1       1.052   7.990  22.710  0.00  0.00    +0.000 HD
BRANCH  18  20
ATOM     20  C   UNL     1       0.651  10.468  18.803  0.00  0.00    +0.000 C 
ATOM     21  C   UNL     1       1.800   9.870  17.962  0.00  0.00    +0.000 C 
ATOM     22  C   UNL     1      -0.670  10.121  18.085  0.00  0.00    +0.000 C 
ATOM     23  C   UNL     1       0.841  11.998  18.826  0.00  0.00    +0.000 C 
ENDBRANCH  18  20
ENDBRANCH  13  14
ENDBRANCH   1  13
TORSDOF 4
ENDMDL
MODEL 6
REMARK VINA RESULT:      -7.2      2.275      6.186
REMARK  Name = 
REMARK  10 active torsions:
REMARK  status: ('A' for Active; 'I' for Inactive)
REMARK    1  A    between atoms: C_1  and  C_2
REMARK    2  A    between atoms: C_3  and  N_4
REMARK    3  A    between atoms: N_4  and  C_5
REMARK    4  A    between atoms: C_5  and  C_6
REMARK    5  A    between atoms: C_10  and  C_11
REMARK    6  A    between atoms: C_11  and  C_12
REMARK    7  A    between atoms: C_11  and  C_13
REMARK    8  A    between atoms: C_11  and  C_14
REMARK    9  A    between atoms: C_19  and  C_20
REMARK   10  A    between atoms: C_19  and  C_21
REMARK                            x       y       z     vdW  Elec       q    Type
REMARK                         _______ _______ _______ _____ _____    ______ ____
ROOT
ATOM      1  N   UNL     1       5.060   5.514  19.774  0.00  0.00    +0.000 NA
ATOM      2  H   UNL     1       4.771   6.303  19.194  0.00  0.00    +0.000 HD
ENDROOT
BRANCH   1   5
ATOM      3  C   UNL     1       1.858   6.179  20.385  0.00  0.00    +0.000 C 
ATOM      4  C   UNL     1       2.643   5.329  19.384  0.00  0.00    +0.000 C 
ATOM      5  C   UNL     1       3.891   4.649  20.032  0.00  0.00    +0.000 C 
ATOM      6  C   UNL     1       4.109   3.167  19.607  0.00  0.00    +0.000 C 
ATOM      7  C   UNL     1       2.929   2.592  18.821  0.00  0.00    +0.000 C 
ATOM      8  C   UNL     1       2.589   3.544  17.645  0.00  0.00    +0.000 C 
ATOM      9  C   UNL     1       1.724   4.303  18.697  0.00  0.00    +0.000 C 
ATOM     10  C   UNL     1       1.484   2.887  19.370  0.00  0.00    +0.000 C 
ATOM     11  C   UNL     1       1.288   2.799  20.883  0.00  0.00    +0.000 C 
ATOM     12  C   UNL     1       0.373   2.046  18.708  0.00  0.00    +0.000 C 
ENDBRANCH   1   5
BRANCH   1  13
ATOM     13  C   UNL     1       6.166   4.841  19.101  0.00  0.00    +0.000 C 
BRANCH  13  14
ATOM     14  C   UNL     1       6.861   5.817  18.223  0.00  0.00    +0.000 A 
ATOM     15  N   UNL     1       7.644   6.813  18.752  0.00  0.00    +0.000 N 
ATOM     16  C   UNL     1       8.161   7.536  17.723  0.00  0.00    +0.000 A 
ATOM     17  N   UNL     1       7.752   7.078  16.565  0.00  0.00    +0.000 NA
ATOM     18  C   UNL     1       6.925   6.001  16.847  0.00  0.00    +0.000 A 
ATOM     19  H   UNL     1       7.779   6.988  19.738  0.00  0.00    +0.000 HD
BRANCH  18  20
ATOM     20  C   UNL     1       6.251   5.246  15.713  0.00  0.00    +0.000 C 
ATOM     21  C   UNL     1       7.188   5.118  14.492  0.00  0.00    +0.000 C 
ATOM     22  C   UNL     1       5.879   3.816  16.156  0.00  0.00    +0.000 C 
ATOM     23  C   UNL     1       4.983   5.990  15.249  0.00  0.00    +0.000 C 
ENDBRANCH  18  20
ENDBRANCH  13  14
ENDBRANCH   1  13
TORSDOF 4
ENDMDL
MODEL 7
REMARK VINA RESULT:      -7.1      2.035      6.011
REMARK  Name = 
REMARK  10 active torsions:
REMARK  status: ('A' for Active; 'I' for Inactive)
REMARK    1  A    between atoms: C_1  and  C_2
REMARK    2  A    between atoms: C_3  and  N_4
REMARK    3  A    between atoms: N_4  and  C_5
REMARK    4  A    between atoms: C_5  and  C_6
REMARK    5  A    between atoms: C_10  and  C_11
REMARK    6  A    between atoms: C_11  and  C_12
REMARK    7  A    between atoms: C_11  and  C_13
REMARK    8  A    between atoms: C_11  and  C_14
REMARK    9  A    between atoms: C_19  and  C_20
REMARK   10  A    between atoms: C_19  and  C_21
REMARK                            x       y       z     vdW  Elec       q    Type
REMARK                         _______ _______ _______ _____ _____    ______ ____
ROOT
ATOM      1  N   UNL     1       4.829   5.740  19.784  0.00  0.00    +0.000 NA
ATOM      2  H   UNL     1       4.626   6.617  20.267  0.00  0.00    +0.000 HD
ENDROOT
BRANCH   1   5
ATOM      3  C   UNL     1       1.633   6.124  20.626  0.00  0.00    +0.000 C 
ATOM      4  C   UNL     1       2.411   5.398  19.528  0.00  0.00    +0.000 C 
ATOM      5  C   UNL     1       3.743   4.775  20.055  0.00  0.00    +0.000 C 
ATOM      6  C   UNL     1       4.039   3.343  19.523  0.00  0.00    +0.000 C 
ATOM      7  C   UNL     1       2.856   2.728  18.774  0.00  0.00    +0.000 C 
ATOM      8  C   UNL     1       2.374   3.720  17.683  0.00  0.00    +0.000 C 
ATOM      9  C   UNL     1       1.526   4.348  18.832  0.00  0.00    +0.000 C 
ATOM     10  C   UNL     1       1.431   2.880  19.425  0.00  0.00    +0.000 C 
ATOM     11  C   UNL     1       1.339   2.688  20.939  0.00  0.00    +0.000 C 
ATOM     12  C   UNL     1       0.342   1.999  18.777  0.00  0.00    +0.000 C 
ENDBRANCH   1   5
BRANCH   1  13
ATOM     13  C   UNL     1       5.025   6.039  18.370  0.00  0.00    +0.000 C 
BRANCH  13  14
ATOM     14  C   UNL     1       6.266   5.368  17.904  0.00  0.00    +0.000 A 
ATOM     15  N   UNL     1       7.273   5.053  18.782  0.00  0.00    +0.000 N 
ATOM     16  C   UNL     1       8.266   4.438  18.085  0.00  0.00    +0.000 A 
ATOM     17  N   UNL     1       7.969   4.348  16.812  0.00  0.00    +0.000 NA
ATOM     18  C   UNL     1       6.720   4.932  16.665  0.00  0.00    +0.000 A 
ATOM     19  H   UNL     1       7.278   5.274  19.768  0.00  0.00    +0.000 HD
BRANCH  18  20
ATOM     20  C   UNL     1       6.082   5.021  15.288  0.00  0.00    +0.000 C 
ATOM     21  C   UNL     1       5.105   3.848  15.048  0.00  0.00    +0.000 C 
ATOM     22  C   UNL     1       5.273   6.326  15.145  0.00  0.00    +0.000 C 
ATOM     23  C   UNL     1       7.161   4.957  14.189  0.00  0.00    +0.000 C 
ENDBRANCH  18  20
ENDBRANCH  13  14
ENDBRANCH   1  13
TORSDOF 4
ENDMDL
MODEL 8
REMARK VINA RESULT:      -7.0      0.935      2.175
REMARK  Name = 
REMARK  10 active torsions:
REMARK  status: ('A' for Active; 'I' for Inactive)
REMARK    1  A    between atoms: C_1  and  C_2
REMARK    2  A    between atoms: C_3  and  N_4
REMARK    3  A    between atoms: N_4  and  C_5
REMARK    4  A    between atoms: C_5  and  C_6
REMARK    5  A    between atoms: C_10  and  C_11
REMARK    6  A    between atoms: C_11  and  C_12
REMARK    7  A    between atoms: C_11  and  C_13
REMARK    8  A    between atoms: C_11  and  C_14
REMARK    9  A    between atoms: C_19  and  C_20
REMARK   10  A    between atoms: C_19  and  C_21
REMARK                            x       y       z     vdW  Elec       q    Type
REMARK                         _______ _______ _______ _____ _____    ______ ____
ROOT
ATOM      1  N   UNL     1       2.332   3.571  17.561  0.00  0.00    +0.000 NA
ATOM      2  H   UNL     1       1.965   3.906  18.454  0.00  0.00    +0.000 HD
ENDROOT
BRANCH   1   5
ATOM      3  C   UNL     1       2.681   6.861  17.918  0.00  0.00    +0.000 C 
ATOM      4  C   UNL     1       3.544   5.621  18.161  0.00  0.00    +0.000 C 
ATOM      5  C   UNL     1       3.339   4.530  17.062  0.00  0.00    +0.000 C 
ATOM      6  C   UNL     1       4.653   3.852  16.575  0.00  0.00    +0.000 C 
ATOM      7  C   UNL     1       5.912   4.549  17.095  0.00  0.00    +0.000 C 
ATOM      8  C   UNL     1       5.810   4.697  18.635  0.00  0.00    +0.000 C 
ATOM      9  C   UNL     1       5.026   6.006  18.314  0.00  0.00    +0.000 C 
ATOM     10  C   UNL     1       5.947   6.121  17.028  0.00  0.00    +0.000 C 
ATOM     11  C   UNL     1       5.390   6.771  15.762  0.00  0.00    +0.000 C 
ATOM     12  C   UNL     1       7.339   6.733  17.292  0.00  0.00    +0.000 C 
ENDBRANCH   1   5
BRANCH   1  13
ATOM     13  C   UNL     1       2.841   2.218  17.761  0.00  0.00    +0.000 C 
BRANCH  13  14
ATOM     14  C   UNL     1       3.414   2.116  19.128  0.00  0.00    +0.000 A 
ATOM     15  N   UNL     1       4.634   1.527  19.342  0.00  0.00    +0.000 N 
ATOM     16  C   UNL     1       4.909   1.591  20.672  0.00  0.00    +0.000 A 
ATOM     17  N   UNL     1       3.937   2.173  21.332  0.00  0.00    +0.000 NA
ATOM     18  C   UNL     1       2.977   2.507  20.388  0.00  0.00    +0.000 A 
ATOM     19  H   UNL     1       5.207   1.095  18.629  0.00  0.00    +0.000 HD
BRANCH  18  20
ATOM     20  C   UNL     1       1.688   3.182  20.825  0.00  0.00    +0.000 C 
ATOM     21  C   UNL     1       0.562   2.959  19.791  0.00  0.00    +0.000 C 
ATOM     22  C   UNL     1       1.197   2.603  22.168  0.00  0.00    +0.000 C 
ATOM     23  C   UNL     1       1.895   4.704  20.962  0.00  0.00    +0.000 C 
ENDBRANCH  18  20
ENDBRANCH  13  14
ENDBRANCH   1  13
TORSDOF 4
ENDMDL
MODEL 9
REMARK VINA RESULT:      -6.9      2.229      6.142
REMARK  Name = 
REMARK  10 active torsions:
REMARK  status: ('A' for Active; 'I' for Inactive)
REMARK    1  A    between atoms: C_1  and  C_2
REMARK    2  A    between atoms: C_3  and  N_4
REMARK    3  A    between atoms: N_4  and  C_5
REMARK    4  A    between atoms: C_5  and  C_6
REMARK    5  A    between atoms: C_10  and  C_11
REMARK    6  A    between atoms: C_11  and  C_12
REMARK    7  A    between atoms: C_11  and  C_13
REMARK    8  A    between atoms: C_11  and  C_14
REMARK    9  A    between atoms: C_19  and  C_20
REMARK   10  A    between atoms: C_19  and  C_21
REMARK                            x       y       z     vdW  Elec       q    Type
REMARK                         _______ _______ _______ _____ _____    ______ ____
ROOT
ATOM      1  N   UNL     1       5.528   4.819  19.846  0.00  0.00    +0.000 NA
ATOM      2  H   UNL     1       5.457   5.833  19.758  0.00  0.00    +0.000 HD
ENDROOT
BRANCH   1   5
ATOM      3  C   UNL     1       2.488   6.166  19.728  0.00  0.00    +0.000 C 
ATOM      4  C   UNL     1       3.210   4.997  19.055  0.00  0.00    +0.000 C 
ATOM      5  C   UNL     1       4.176   4.253  20.032  0.00  0.00    +0.000 C 
ATOM      6  C   UNL     1       4.132   2.701  19.923  0.00  0.00    +0.000 C 
ATOM      7  C   UNL     1       2.983   2.197  19.047  0.00  0.00    +0.000 C 
ATOM      8  C   UNL     1       3.030   2.926  17.679  0.00  0.00    +0.000 C 
ATOM      9  C   UNL     1       2.203   4.033  18.402  0.00  0.00    +0.000 C 
ATOM     10  C   UNL     1       1.570   2.858  19.258  0.00  0.00    +0.000 C 
ATOM     11  C   UNL     1       1.142   3.127  20.701  0.00  0.00    +0.000 C 
ATOM     12  C   UNL     1       0.413   2.111  18.561  0.00  0.00    +0.000 C 
ENDBRANCH   1   5
BRANCH   1  13
ATOM     13  C   UNL     1       6.232   4.312  18.672  0.00  0.00    +0.000 C 
BRANCH  13  14
ATOM     14  C   UNL     1       6.850   5.455  17.951  0.00  0.00    +0.000 A 
ATOM     15  N   UNL     1       7.507   6.449  18.632  0.00  0.00    +0.000 N 
ATOM     16  C   UNL     1       7.979   7.343  17.723  0.00  0.00    +0.000 A 
ATOM     17  N   UNL     1       7.658   6.996  16.500  0.00  0.00    +0.000 NA
ATOM     18  C   UNL     1       6.939   5.816  16.612  0.00  0.00    +0.000 A 
ATOM     19  H   UNL     1       7.591   6.512  19.637  0.00  0.00    +0.000 HD
BRANCH  18  20
ATOM     20  C   UNL     1       6.384   5.146  15.366  0.00  0.00    +0.000 C 
ATOM     21  C   UNL     1       5.088   5.839  14.889  0.00  0.00    +0.000 C 
ATOM     22  C   UNL     1       7.398   5.224  14.207  0.00  0.00    +0.000 C 
ATOM     23  C   UNL     1       6.040   3.671  15.655  0.00  0.00    +0.000 C 
ENDBRANCH  18  20
ENDBRANCH  13  14
ENDBRANCH   1  13
TORSDOF 4
ENDMDL
