MODEL 1
REMARK VINA RESULT:      -8.8      0.000      0.000
REMARK  Name = 
REMARK  5 active torsions:
REMARK  status: ('A' for Active; 'I' for Inactive)
REMARK    1  A    between atoms: C_2  and  C_3
REMARK    2  A    between atoms: C_2  and  C_19
REMARK    3  A    between atoms: C_4  and  C_5
REMARK    4  A    between atoms: N_9  and  C_10
REMARK    5  A    between atoms: C_10  and  C_11
REMARK                            x       y       z     vdW  Elec       q    Type
REMARK                         _______ _______ _______ _____ _____    ______ ____
ROOT
ATOM      1  C   UNL     1       7.812   7.803  18.047  0.00  0.00    +0.000 A 
ATOM      2  C   UNL     1       8.363   6.880  18.938  0.00  0.00    +0.000 A 
ATOM      3  C   UNL     1       7.849   5.591  19.026  0.00  0.00    +0.000 A 
ATOM      4  C   UNL     1       6.809   5.218  18.189  0.00  0.00    +0.000 A 
ATOM      5  N   UNL     1       6.309   6.083  17.284  0.00  0.00    +0.000 N 
ATOM      6  C   UNL     1       6.781   7.357  17.217  0.00  0.00    +0.000 A 
ENDROOT
BRANCH   1   8
ATOM      7  C   UNL     1       9.009   9.793  18.894  0.00  0.00    +0.000 C 
ATOM      8  C   UNL     1       8.328   9.178  17.914  0.00  0.00    +0.000 C 
BRANCH   7  10
ATOM      9  O   UNL     1      10.083  11.494  17.650  0.00  0.00    +0.000 OA
ATOM     10  C   UNL     1       9.626  11.151  18.738  0.00  0.00    +0.000 C 
BRANCH  10  11
ATOM     11  C   UNL     1       9.763  11.913  19.963  0.00  0.00    +0.000 A 
ATOM     12  C   UNL     1       9.259  11.689  21.230  0.00  0.00    +0.000 A 
ATOM     13  C   UNL     1       9.293  12.948  21.886  0.00  0.00    +0.000 A 
ATOM     14  C   UNL     1       8.713  13.496  23.041  0.00  0.00    +0.000 A 
ATOM     15  C   UNL     1       9.000  14.829  23.369  0.00  0.00    +0.000 A 
ATOM     16  C   UNL     1       9.901  15.581  22.609  0.00  0.00    +0.000 A 
ATOM     17  C   UNL     1      10.478  15.058  21.447  0.00  0.00    +0.000 A 
ATOM     18  C   UNL     1      10.096  13.764  21.101  0.00  0.00    +0.000 A 
ATOM     19  O   UNL     1      10.390  13.135  19.931  0.00  0.00    +0.000 OA
ENDBRANCH  10  11
ENDBRANCH   7  10
ENDBRANCH   1   8
BRANCH   5  20
ATOM     20  C   UNL     1       5.289   5.624  16.308  0.00  0.00    +0.000 C 
BRANCH  20  21
ATOM     21  C   UNL     1       4.137   4.935  16.991  0.00  0.00    +0.000 A 
ATOM     22  C   UNL     1       3.235   5.660  17.786  0.00  0.00    +0.000 A 
ATOM     23  C   UNL     1       2.197   5.008  18.458  0.00  0.00    +0.000 A 
ATOM     24  C   UNL     1       2.044   3.630  18.330  0.00  0.00    +0.000 A 
ATOM     25 BR   UNL     1       0.682   2.744  19.291  0.00  0.00    +0.000 Br
ATOM     26  C   UNL     1       2.903   2.901  17.510  0.00  0.00    +0.000 A 
ATOM     27  C   UNL     1       3.944   3.550  16.843  0.00  0.00    +0.000 A 
ENDBRANCH  20  21
ENDBRANCH   5  20
TORSDOF 5
ENDMDL
MODEL 2
REMARK VINA RESULT:      -8.6      0.892      1.313
REMARK  Name = 
REMARK  5 active torsions:
REMARK  status: ('A' for Active; 'I' for Inactive)
REMARK    1  A    between atoms: C_2  and  C_3
REMARK    2  A    between atoms: C_2  and  C_19
REMARK    3  A    between atoms: C_4  and  C_5
REMARK    4  A    between atoms: N_9  and  C_10
REMARK    5  A    between atoms: C_10  and  C_11
REMARK                            x       y       z     vdW  Elec       q    Type
REMARK                         _______ _______ _______ _____ _____    ______ ____
ROOT
ATOM      1  C   UNL     1       7.757   7.846  18.003  0.00  0.00    +0.000 A 
ATOM      2  C   UNL     1       8.351   6.928  18.870  0.00  0.00    +0.000 A 
ATOM      3  C   UNL     1       7.869   5.627  18.958  0.00  0.00    +0.000 A 
ATOM      4  C   UNL     1       6.816   5.238  18.144  0.00  0.00    +0.000 A 
ATOM      5  N   UNL     1       6.274   6.100  17.261  0.00  0.00    +0.000 N 
ATOM      6  C   UNL     1       6.715   7.385  17.195  0.00  0.00    +0.000 A 
ENDROOT
BRANCH   1   8
ATOM      7  C   UNL     1       9.046   9.809  18.775  0.00  0.00    +0.000 C 
ATOM      8  C   UNL     1       8.237   9.234  17.870  0.00  0.00    +0.000 C 
BRANCH   7  10
ATOM      9  O   UNL     1      10.292  11.446  17.607  0.00  0.00    +0.000 OA
ATOM     10  C   UNL     1       9.624  11.182  18.605  0.00  0.00    +0.000 C 
BRANCH  10  11
ATOM     11  C   UNL     1       9.458  12.068  19.739  0.00  0.00    +0.000 A 
ATOM     12  C   UNL     1       9.799  11.911  21.069  0.00  0.00    +0.000 A 
ATOM     13  C   UNL     1       8.998  12.840  21.785  0.00  0.00    +0.000 A 
ATOM     14  C   UNL     1       8.636  13.030  23.128  0.00  0.00    +0.000 A 
ATOM     15  C   UNL     1       7.794  14.104  23.451  0.00  0.00    +0.000 A 
ATOM     16  C   UNL     1       7.376  15.011  22.474  0.00  0.00    +0.000 A 
ATOM     17  C   UNL     1       7.712  14.831  21.128  0.00  0.00    +0.000 A 
ATOM     18  C   UNL     1       8.472  13.702  20.832  0.00  0.00    +0.000 A 
ATOM     19  O   UNL     1       8.756  13.239  19.584  0.00  0.00    +0.000 OA
ENDBRANCH  10  11
ENDBRANCH   7  10
ENDBRANCH   1   8
BRANCH   5  20
ATOM     20  C   UNL     1       5.239   5.627  16.307  0.00  0.00    +0.000 C 
BRANCH  20  21
ATOM     21  C   UNL     1       4.138   4.876  17.008  0.00  0.00    +0.000 A 
ATOM     22  C   UNL     1       4.047   3.478  16.910  0.00  0.00    +0.000 A 
ATOM     23  C   UNL     1       2.996   2.790  17.522  0.00  0.00    +0.000 A 
ATOM     24  C   UNL     1       2.036   3.490  18.247  0.00  0.00    +0.000 A 
ATOM     25 BR   UNL     1       0.581   2.565  19.017  0.00  0.00    +0.000 Br
ATOM     26  C   UNL     1       2.135   4.872  18.393  0.00  0.00    +0.000 A 
ATOM     27  C   UNL     1       3.182   5.563  17.777  0.00  0.00    +0.000 A 
ENDBRANCH  20  21
ENDBRANCH   5  20
TORSDOF 5
ENDMDL
MODEL 3
REMARK VINA RESULT:      -8.4      0.674      1.508
REMARK  Name = 
REMARK  5 active torsions:
REMARK  status: ('A' for Active; 'I' for Inactive)
REMARK    1  A    between atoms: C_2  and  C_3
REMARK    2  A    between atoms: C_2  and  C_19
REMARK    3  A    between atoms: C_4  and  C_5
REMARK    4  A    between atoms: N_9  and  C_10
REMARK    5  A    between atoms: C_10  and  C_11
REMARK                            x       y       z     vdW  Elec       q    Type
REMARK                         _______ _______ _______ _____ _____    ______ ____
ROOT
ATOM      1  C   UNL     1       7.759   7.873  18.015  0.00  0.00    +0.000 A 
ATOM      2  C   UNL     1       8.337   6.970  18.908  0.00  0.00    +0.000 A 
ATOM      3  C   UNL     1       7.843   5.676  19.022  0.00  0.00    +0.000 A 
ATOM      4  C   UNL     1       6.794   5.277  18.207  0.00  0.00    +0.000 A 
ATOM      5  N   UNL     1       6.268   6.123  17.300  0.00  0.00    +0.000 N 
ATOM      6  C   UNL     1       6.721   7.402  17.208  0.00  0.00    +0.000 A 
ENDROOT
BRANCH   1   8
ATOM      7  C   UNL     1       9.082   9.832  18.739  0.00  0.00    +0.000 C 
ATOM      8  C   UNL     1       8.254   9.253  17.854  0.00  0.00    +0.000 C 
BRANCH   7  10
ATOM      9  O   UNL     1      10.514  11.376  17.661  0.00  0.00    +0.000 OA
ATOM     10  C   UNL     1       9.673  11.196  18.540  0.00  0.00    +0.000 C 
BRANCH  10  11
ATOM     11  C   UNL     1       9.293  12.185  19.528  0.00  0.00    +0.000 A 
ATOM     12  C   UNL     1       9.382  13.564  19.509  0.00  0.00    +0.000 A 
ATOM     13  C   UNL     1       9.327  13.972  20.869  0.00  0.00    +0.000 A 
ATOM     14  C   UNL     1       9.621  15.146  21.579  0.00  0.00    +0.000 A 
ATOM     15  C   UNL     1       9.427  15.158  22.968  0.00  0.00    +0.000 A 
ATOM     16  C   UNL     1       8.885  14.052  23.629  0.00  0.00    +0.000 A 
ATOM     17  C   UNL     1       8.599  12.867  22.943  0.00  0.00    +0.000 A 
ATOM     18  C   UNL     1       8.893  12.862  21.581  0.00  0.00    +0.000 A 
ATOM     19  O   UNL     1       8.865  11.772  20.766  0.00  0.00    +0.000 OA
ENDBRANCH  10  11
ENDBRANCH   7  10
ENDBRANCH   1   8
BRANCH   5  20
ATOM     20  C   UNL     1       5.237   5.638  16.347  0.00  0.00    +0.000 C 
BRANCH  20  21
ATOM     21  C   UNL     1       4.143   4.879  17.051  0.00  0.00    +0.000 A 
ATOM     22  C   UNL     1       4.073   3.479  16.971  0.00  0.00    +0.000 A 
ATOM     23  C   UNL     1       3.028   2.784  17.585  0.00  0.00    +0.000 A 
ATOM     24  C   UNL     1       2.053   3.479  18.294  0.00  0.00    +0.000 A 
ATOM     25 BR   UNL     1       0.606   2.543  19.067  0.00  0.00    +0.000 Br
ATOM     26  C   UNL     1       2.131   4.864  18.422  0.00  0.00    +0.000 A 
ATOM     27  C   UNL     1       3.172   5.562  17.804  0.00  0.00    +0.000 A 
ENDBRANCH  20  21
ENDBRANCH   5  20
TORSDOF 5
ENDMDL
MODEL 4
REMARK VINA RESULT:      -8.4      6.758      9.775
REMARK  Name = 
REMARK  5 active torsions:
REMARK  status: ('A' for Active; 'I' for Inactive)
REMARK    1  A    between atoms: C_2  and  C_3
REMARK    2  A    between atoms: C_2  and  C_19
REMARK    3  A    between atoms: C_4  and  C_5
REMARK    4  A    between atoms: N_9  and  C_10
REMARK    5  A    between atoms: C_10  and  C_11
REMARK                            x       y       z     vdW  Elec       q    Type
REMARK                         _______ _______ _______ _____ _____    ______ ____
ROOT
ATOM      1  C   UNL     1       1.250   8.463  20.746  0.00  0.00    +0.000 A 
ATOM      2  C   UNL     1       0.698   8.761  21.992  0.00  0.00    +0.000 A 
ATOM      3  C   UNL     1      -0.114   9.878  22.155  0.00  0.00    +0.000 A 
ATOM      4  C   UNL     1      -0.404  10.671  21.054  0.00  0.00    +0.000 A 
ATOM      5  N   UNL     1       0.076  10.357  19.835  0.00  0.00    +0.000 N 
ATOM      6  C   UNL     1       0.901   9.288  19.674  0.00  0.00    +0.000 A 
ENDROOT
BRANCH   1   8
ATOM      7  C   UNL     1       1.647   6.028  20.586  0.00  0.00    +0.000 C 
ATOM      8  C   UNL     1       2.111   7.286  20.523  0.00  0.00    +0.000 C 
BRANCH   7  10
ATOM      9  O   UNL     1       2.424   3.829  20.980  0.00  0.00    +0.000 OA
ATOM     10  C   UNL     1       2.484   4.826  20.264  0.00  0.00    +0.000 C 
BRANCH  10  11
ATOM     11  C   UNL     1       3.431   5.004  19.181  0.00  0.00    +0.000 A 
ATOM     12  C   UNL     1       3.264   4.930  17.812  0.00  0.00    +0.000 A 
ATOM     13  C   UNL     1       4.561   4.710  17.277  0.00  0.00    +0.000 A 
ATOM     14  C   UNL     1       5.082   4.285  16.044  0.00  0.00    +0.000 A 
ATOM     15  C   UNL     1       6.473   4.192  15.899  0.00  0.00    +0.000 A 
ATOM     16  C   UNL     1       7.333   4.578  16.931  0.00  0.00    +0.000 A 
ATOM     17  C   UNL     1       6.835   4.990  18.171  0.00  0.00    +0.000 A 
ATOM     18  C   UNL     1       5.449   4.980  18.309  0.00  0.00    +0.000 A 
ATOM     19  O   UNL     1       4.764   5.166  19.470  0.00  0.00    +0.000 OA
ENDBRANCH  10  11
ENDBRANCH   7  10
ENDBRANCH   1   8
BRANCH   5  20
ATOM     20  C   UNL     1      -0.354  11.140  18.648  0.00  0.00    +0.000 C 
BRANCH  20  21
ATOM     21  C   UNL     1      -1.853  11.162  18.510  0.00  0.00    +0.000 A 
ATOM     22  C   UNL     1      -2.617  12.163  19.130  0.00  0.00    +0.000 A 
ATOM     23  C   UNL     1      -4.012  12.151  19.041  0.00  0.00    +0.000 A 
ATOM     24  C   UNL     1      -4.654  11.147  18.321  0.00  0.00    +0.000 A 
ATOM     25 BR   UNL     1      -6.540  11.096  18.257  0.00  0.00    +0.000 Br
ATOM     26  C   UNL     1      -3.910  10.170  17.662  0.00  0.00    +0.000 A 
ATOM     27  C   UNL     1      -2.515  10.177  17.755  0.00  0.00    +0.000 A 
ENDBRANCH  20  21
ENDBRANCH   5  20
TORSDOF 5
ENDMDL
MODEL 5
REMARK VINA RESULT:      -8.4      4.246      9.481
REMARK  Name = 
REMARK  5 active torsions:
REMARK  status: ('A' for Active; 'I' for Inactive)
REMARK    1  A    between atoms: C_2  and  C_3
REMARK    2  A    between atoms: C_2  and  C_19
REMARK    3  A    between atoms: C_4  and  C_5
REMARK    4  A    between atoms: N_9  and  C_10
REMARK    5  A    between atoms: C_10  and  C_11
REMARK                            x       y       z     vdW  Elec       q    Type
REMARK                         _______ _______ _______ _____ _____    ______ ____
ROOT
ATOM      1  C   UNL     1       8.799  10.242  18.387  0.00  0.00    +0.000 A 
ATOM      2  C   UNL     1       9.279  10.076  19.687  0.00  0.00    +0.000 A 
ATOM      3  C   UNL     1       9.817  11.152  20.384  0.00  0.00    +0.000 A 
ATOM      4  C   UNL     1       9.835  12.404  19.788  0.00  0.00    +0.000 A 
ATOM      5  N   UNL     1       9.320  12.587  18.556  0.00  0.00    +0.000 N 
ATOM      6  C   UNL     1       8.825  11.533  17.853  0.00  0.00    +0.000 A 
ENDROOT
BRANCH   1   8
ATOM      7  C   UNL     1       7.993   7.919  18.142  0.00  0.00    +0.000 C 
ATOM      8  C   UNL     1       8.213   9.132  17.613  0.00  0.00    +0.000 C 
BRANCH   7  10
ATOM      9  O   UNL     1       7.654   6.535  16.253  0.00  0.00    +0.000 OA
ATOM     10  C   UNL     1       7.306   6.811  17.399  0.00  0.00    +0.000 C 
BRANCH  10  11
ATOM     11  C   UNL     1       6.158   6.235  18.069  0.00  0.00    +0.000 A 
ATOM     12  C   UNL     1       6.073   5.259  19.043  0.00  0.00    +0.000 A 
ATOM     13  C   UNL     1       4.743   4.764  18.977  0.00  0.00    +0.000 A 
ATOM     14  C   UNL     1       4.066   3.633  19.460  0.00  0.00    +0.000 A 
ATOM     15  C   UNL     1       2.700   3.495  19.174  0.00  0.00    +0.000 A 
ATOM     16  C   UNL     1       2.003   4.492  18.485  0.00  0.00    +0.000 A 
ATOM     17  C   UNL     1       2.662   5.618  17.983  0.00  0.00    +0.000 A 
ATOM     18  C   UNL     1       4.036   5.675  18.205  0.00  0.00    +0.000 A 
ATOM     19  O   UNL     1       4.893   6.577  17.655  0.00  0.00    +0.000 OA
ENDBRANCH  10  11
ENDBRANCH   7  10
ENDBRANCH   1   8
BRANCH   5  20
ATOM     20  C   UNL     1       9.226  13.957  17.990  0.00  0.00    +0.000 C 
BRANCH  20  21
ATOM     21  C   UNL     1       7.919  14.616  18.343  0.00  0.00    +0.000 A 
ATOM     22  C   UNL     1       7.838  15.525  19.410  0.00  0.00    +0.000 A 
ATOM     23  C   UNL     1       6.613  16.096  19.765  0.00  0.00    +0.000 A 
ATOM     24  C   UNL     1       5.462  15.774  19.050  0.00  0.00    +0.000 A 
ATOM     25 BR   UNL     1       3.798  16.497  19.574  0.00  0.00    +0.000 Br
ATOM     26  C   UNL     1       5.532  14.909  17.960  0.00  0.00    +0.000 A 
ATOM     27  C   UNL     1       6.755  14.332  17.607  0.00  0.00    +0.000 A 
ENDBRANCH  20  21
ENDBRANCH   5  20
TORSDOF 5
ENDMDL
MODEL 6
REMARK VINA RESULT:      -8.4      5.867      8.919
REMARK  Name = 
REMARK  5 active torsions:
REMARK  status: ('A' for Active; 'I' for Inactive)
REMARK    1  A    between atoms: C_2  and  C_3
REMARK    2  A    between atoms: C_2  and  C_19
REMARK    3  A    between atoms: C_4  and  C_5
REMARK    4  A    between atoms: N_9  and  C_10
REMARK    5  A    between atoms: C_10  and  C_11
REMARK                            x       y       z     vdW  Elec       q    Type
REMARK                         _______ _______ _______ _____ _____    ______ ____
ROOT
ATOM      1  C   UNL     1       1.555   7.910  20.221  0.00  0.00    +0.000 A 
ATOM      2  C   UNL     1       0.988   7.946  21.495  0.00  0.00    +0.000 A 
ATOM      3  C   UNL     1       0.201   9.023  21.888  0.00  0.00    +0.000 A 
ATOM      4  C   UNL     1      -0.048  10.045  20.984  0.00  0.00    +0.000 A 
ATOM      5  N   UNL     1       0.448   9.991  19.731  0.00  0.00    +0.000 N 
ATOM      6  C   UNL     1       1.248   8.960  19.351  0.00  0.00    +0.000 A 
ENDROOT
BRANCH   1   8
ATOM      7  C   UNL     1       1.872   5.597  19.409  0.00  0.00    +0.000 C 
ATOM      8  C   UNL     1       2.390   6.786  19.758  0.00  0.00    +0.000 C 
BRANCH   7  10
ATOM      9  O   UNL     1       2.213   3.351  18.750  0.00  0.00    +0.000 OA
ATOM     10  C   UNL     1       2.694   4.478  18.842  0.00  0.00    +0.000 C 
BRANCH  10  11
ATOM     11  C   UNL     1       4.081   4.803  18.573  0.00  0.00    +0.000 A 
ATOM     12  C   UNL     1       5.242   4.413  19.212  0.00  0.00    +0.000 A 
ATOM     13  C   UNL     1       6.222   5.376  18.852  0.00  0.00    +0.000 A 
ATOM     14  C   UNL     1       7.491   5.744  19.325  0.00  0.00    +0.000 A 
ATOM     15  C   UNL     1       8.173   6.785  18.678  0.00  0.00    +0.000 A 
ATOM     16  C   UNL     1       7.640   7.399  17.542  0.00  0.00    +0.000 A 
ATOM     17  C   UNL     1       6.371   7.058  17.063  0.00  0.00    +0.000 A 
ATOM     18  C   UNL     1       5.684   6.086  17.787  0.00  0.00    +0.000 A 
ATOM     19  O   UNL     1       4.381   5.735  17.610  0.00  0.00    +0.000 OA
ENDBRANCH  10  11
ENDBRANCH   7  10
ENDBRANCH   1   8
BRANCH   5  20
ATOM     20  C   UNL     1       0.061  11.026  18.738  0.00  0.00    +0.000 C 
BRANCH  20  21
ATOM     21  C   UNL     1      -1.432  11.079  18.545  0.00  0.00    +0.000 A 
ATOM     22  C   UNL     1      -2.199  12.088  19.149  0.00  0.00    +0.000 A 
ATOM     23  C   UNL     1      -3.589  12.104  19.007  0.00  0.00    +0.000 A 
ATOM     24  C   UNL     1      -4.222  11.122  18.250  0.00  0.00    +0.000 A 
ATOM     25 BR   UNL     1      -6.106  11.109  18.114  0.00  0.00    +0.000 Br
ATOM     26  C   UNL     1      -3.473  10.140  17.606  0.00  0.00    +0.000 A 
ATOM     27  C   UNL     1      -2.083  10.118  17.752  0.00  0.00    +0.000 A 
ENDBRANCH  20  21
ENDBRANCH   5  20
TORSDOF 5
ENDMDL
MODEL 7
REMARK VINA RESULT:      -8.4      6.806      9.533
REMARK  Name = 
REMARK  5 active torsions:
REMARK  status: ('A' for Active; 'I' for Inactive)
REMARK    1  A    between atoms: C_2  and  C_3
REMARK    2  A    between atoms: C_2  and  C_19
REMARK    3  A    between atoms: C_4  and  C_5
REMARK    4  A    between atoms: N_9  and  C_10
REMARK    5  A    between atoms: C_10  and  C_11
REMARK                            x       y       z     vdW  Elec       q    Type
REMARK                         _______ _______ _______ _____ _____    ______ ____
ROOT
ATOM      1  C   UNL     1       1.848   7.552  20.152  0.00  0.00    +0.000 A 
ATOM      2  C   UNL     1       1.509   7.818  21.480  0.00  0.00    +0.000 A 
ATOM      3  C   UNL     1       1.004   9.061  21.844  0.00  0.00    +0.000 A 
ATOM      4  C   UNL     1       0.801  10.023  20.865  0.00  0.00    +0.000 A 
ATOM      5  N   UNL     1       1.070   9.755  19.572  0.00  0.00    +0.000 N 
ATOM      6  C   UNL     1       1.599   8.555  19.213  0.00  0.00    +0.000 A 
ENDROOT
BRANCH   1   8
ATOM      7  C   UNL     1       1.855   5.081  20.127  0.00  0.00    +0.000 C 
ATOM      8  C   UNL     1       2.380   6.247  19.718  0.00  0.00    +0.000 C 
BRANCH   7  10
ATOM      9  O   UNL     1       1.732   2.724  19.959  0.00  0.00    +0.000 OA
ATOM     10  C   UNL     1       2.319   3.748  19.616  0.00  0.00    +0.000 C 
BRANCH  10  11
ATOM     11  C   UNL     1       3.549   3.772  18.851  0.00  0.00    +0.000 A 
ATOM     12  C   UNL     1       4.868   3.829  19.257  0.00  0.00    +0.000 A 
ATOM     13  C   UNL     1       5.597   4.304  18.135  0.00  0.00    +0.000 A 
ATOM     14  C   UNL     1       6.878   4.837  17.921  0.00  0.00    +0.000 A 
ATOM     15  C   UNL     1       7.244   5.202  16.617  0.00  0.00    +0.000 A 
ATOM     16  C   UNL     1       6.385   4.978  15.538  0.00  0.00    +0.000 A 
ATOM     17  C   UNL     1       5.100   4.462  15.732  0.00  0.00    +0.000 A 
ATOM     18  C   UNL     1       4.737   4.199  17.051  0.00  0.00    +0.000 A 
ATOM     19  O   UNL     1       3.489   3.869  17.482  0.00  0.00    +0.000 OA
ENDBRANCH  10  11
ENDBRANCH   7  10
ENDBRANCH   1   8
BRANCH   5  20
ATOM     20  C   UNL     1       0.721  10.749  18.524  0.00  0.00    +0.000 C 
BRANCH  20  21
ATOM     21  C   UNL     1      -0.770  10.869  18.348  0.00  0.00    +0.000 A 
ATOM     22  C   UNL     1      -1.495  11.867  19.020  0.00  0.00    +0.000 A 
ATOM     23  C   UNL     1      -2.884  11.943  18.892  0.00  0.00    +0.000 A 
ATOM     24  C   UNL     1      -3.559  11.034  18.081  0.00  0.00    +0.000 A 
ATOM     25 BR   UNL     1      -5.442  11.100  17.962  0.00  0.00    +0.000 Br
ATOM     26  C   UNL     1      -2.851  10.067  17.372  0.00  0.00    +0.000 A 
ATOM     27  C   UNL     1      -1.463   9.984  17.503  0.00  0.00    +0.000 A 
ENDBRANCH  20  21
ENDBRANCH   5  20
TORSDOF 5
ENDMDL
MODEL 8
REMARK VINA RESULT:      -8.4      6.036      8.554
REMARK  Name = 
REMARK  5 active torsions:
REMARK  status: ('A' for Active; 'I' for Inactive)
REMARK    1  A    between atoms: C_2  and  C_3
REMARK    2  A    between atoms: C_2  and  C_19
REMARK    3  A    between atoms: C_4  and  C_5
REMARK    4  A    between atoms: N_9  and  C_10
REMARK    5  A    between atoms: C_10  and  C_11
REMARK                            x       y       z     vdW  Elec       q    Type
REMARK                         _______ _______ _______ _____ _____    ______ ____
ROOT
ATOM      1  C   UNL     1       1.805   4.956  20.155  0.00  0.00    +0.000 A 
ATOM      2  C   UNL     1       1.097   3.822  20.556  0.00  0.00    +0.000 A 
ATOM      3  C   UNL     1       1.227   2.626  19.859  0.00  0.00    +0.000 A 
ATOM      4  C   UNL     1       2.101   2.559  18.785  0.00  0.00    +0.000 A 
ATOM      5  N   UNL     1       2.834   3.633  18.427  0.00  0.00    +0.000 N 
ATOM      6  C   UNL     1       2.685   4.816  19.079  0.00  0.00    +0.000 A 
ENDROOT
BRANCH   1   8
ATOM      7  C   UNL     1       1.541   7.412  20.227  0.00  0.00    +0.000 C 
ATOM      8  C   UNL     1       1.704   6.244  20.867  0.00  0.00    +0.000 C 
BRANCH   7  10
ATOM      9  O   UNL     1       1.737   8.854  22.092  0.00  0.00    +0.000 OA
ATOM     10  C   UNL     1       1.336   8.717  20.938  0.00  0.00    +0.000 C 
BRANCH  10  11
ATOM     11  C   UNL     1       0.529   9.689  20.229  0.00  0.00    +0.000 A 
ATOM     12  C   UNL     1      -0.048  10.870  20.654  0.00  0.00    +0.000 A 
ATOM     13  C   UNL     1      -1.084  11.149  19.723  0.00  0.00    +0.000 A 
ATOM     14  C   UNL     1      -2.202  11.998  19.687  0.00  0.00    +0.000 A 
ATOM     15  C   UNL     1      -3.016  11.988  18.546  0.00  0.00    +0.000 A 
ATOM     16  C   UNL     1      -2.690  11.205  17.434  0.00  0.00    +0.000 A 
ATOM     17  C   UNL     1      -1.590  10.342  17.455  0.00  0.00    +0.000 A 
ATOM     18  C   UNL     1      -0.859  10.310  18.641  0.00  0.00    +0.000 A 
ATOM     19  O   UNL     1       0.128   9.422  18.942  0.00  0.00    +0.000 OA
ENDBRANCH  10  11
ENDBRANCH   7  10
ENDBRANCH   1   8
BRANCH   5  20
ATOM     20  C   UNL     1       3.861   3.504  17.361  0.00  0.00    +0.000 C 
BRANCH  20  21
ATOM     21  C   UNL     1       4.869   4.621  17.424  0.00  0.00    +0.000 A 
ATOM     22  C   UNL     1       5.970   4.548  18.292  0.00  0.00    +0.000 A 
ATOM     23  C   UNL     1       6.876   5.608  18.383  0.00  0.00    +0.000 A 
ATOM     24  C   UNL     1       6.697   6.744  17.598  0.00  0.00    +0.000 A 
ATOM     25 BR   UNL     1       7.885   8.202  17.771  0.00  0.00    +0.000 Br
ATOM     26  C   UNL     1       5.635   6.816  16.698  0.00  0.00    +0.000 A 
ATOM     27  C   UNL     1       4.726   5.759  16.611  0.00  0.00    +0.000 A 
ENDBRANCH  20  21
ENDBRANCH   5  20
TORSDOF 5
ENDMDL
MODEL 9
REMARK VINA RESULT:      -8.3      6.717      9.555
REMARK  Name = 
REMARK  5 active torsions:
REMARK  status: ('A' for Active; 'I' for Inactive)
REMARK    1  A    between atoms: C_2  and  C_3
REMARK    2  A    between atoms: C_2  and  C_19
REMARK    3  A    between atoms: C_4  and  C_5
REMARK    4  A    between atoms: N_9  and  C_10
REMARK    5  A    between atoms: C_10  and  C_11
REMARK                            x       y       z     vdW  Elec       q    Type
REMARK                         _______ _______ _______ _____ _____    ______ ____
ROOT
ATOM      1  C   UNL     1       1.798   7.751  20.104  0.00  0.00    +0.000 A 
ATOM      2  C   UNL     1       1.550   7.946  21.463  0.00  0.00    +0.000 A 
ATOM      3  C   UNL     1       1.083   9.170  21.927  0.00  0.00    +0.000 A 
ATOM      4  C   UNL     1       0.824  10.185  21.017  0.00  0.00    +0.000 A 
ATOM      5  N   UNL     1       1.004   9.987  19.696  0.00  0.00    +0.000 N 
ATOM      6  C   UNL     1       1.497   8.805  19.238  0.00  0.00    +0.000 A 
ENDROOT
BRANCH   1   8
ATOM      7  C   UNL     1       2.505   5.394  20.341  0.00  0.00    +0.000 C 
ATOM      8  C   UNL     1       2.288   6.468  19.565  0.00  0.00    +0.000 C 
BRANCH   7  10
ATOM      9  O   UNL     1       2.339   3.039  20.193  0.00  0.00    +0.000 OA
ATOM     10  C   UNL     1       2.906   4.055  19.796  0.00  0.00    +0.000 C 
BRANCH  10  11
ATOM     11  C   UNL     1       4.063   4.063  18.924  0.00  0.00    +0.000 A 
ATOM     12  C   UNL     1       5.359   4.489  19.143  0.00  0.00    +0.000 A 
ATOM     13  C   UNL     1       5.914   4.710  17.855  0.00  0.00    +0.000 A 
ATOM     14  C   UNL     1       7.041   5.375  17.347  0.00  0.00    +0.000 A 
ATOM     15  C   UNL     1       7.257   5.369  15.961  0.00  0.00    +0.000 A 
ATOM     16  C   UNL     1       6.412   4.658  15.103  0.00  0.00    +0.000 A 
ATOM     17  C   UNL     1       5.277   4.001  15.588  0.00  0.00    +0.000 A 
ATOM     18  C   UNL     1       5.044   4.108  16.957  0.00  0.00    +0.000 A 
ATOM     19  O   UNL     1       3.917   3.707  17.606  0.00  0.00    +0.000 OA
ENDBRANCH  10  11
ENDBRANCH   7  10
ENDBRANCH   1   8
BRANCH   5  20
ATOM     20  C   UNL     1       0.596  11.038  18.730  0.00  0.00    +0.000 C 
BRANCH  20  21
ATOM     21  C   UNL     1      -0.896  11.061  18.531  0.00  0.00    +0.000 A 
ATOM     22  C   UNL     1      -1.518  10.159  17.653  0.00  0.00    +0.000 A 
ATOM     23  C   UNL     1      -2.897  10.217  17.434  0.00  0.00    +0.000 A 
ATOM     24  C   UNL     1      -3.668  11.166  18.101  0.00  0.00    +0.000 A 
ATOM     25 BR   UNL     1      -5.520  11.284  17.754  0.00  0.00    +0.000 Br
ATOM     26  C   UNL     1      -3.074  12.040  19.010  0.00  0.00    +0.000 A 
ATOM     27  C   UNL     1      -1.695  11.987  19.225  0.00  0.00    +0.000 A 
ENDBRANCH  20  21
ENDBRANCH   5  20
TORSDOF 5
ENDMDL
