MODEL 1
REMARK VINA RESULT:      -8.0      0.000      0.000
REMARK  Name = 
REMARK  7 active torsions:
REMARK  status: ('A' for Active; 'I' for Inactive)
REMARK    1  A    between atoms: C_1  and  O_2
REMARK    2  A    between atoms: O_2  and  C_3
REMARK    3  A    between atoms: C_3  and  C_5
REMARK    4  A    between atoms: C_8  and  N_9
REMARK    5  A    between atoms: C_10  and  C_12
REMARK    6  A    between atoms: C_12  and  S_13
REMARK    7  A    between atoms: S_13  and  C_14
REMARK                            x       y       z     vdW  Elec       q    Type
REMARK                         _______ _______ _______ _____ _____    ______ ____
ROOT
ATOM      1  N   UNL     1       2.994   5.884  19.989  0.00  0.00    +0.000 N 
ATOM      2  C   UNL     1       2.458   4.627  19.725  0.00  0.00    +0.000 C 
ATOM      3  O   UNL     1       1.362   4.413  19.209  0.00  0.00    +0.000 OA
ATOM      4  H   UNL     1       3.977   5.923  20.229  0.00  0.00    +0.000 HD
ENDROOT
BRANCH   1   8
ATOM      5  C   UNL     1       1.041   9.548  19.156  0.00  0.00    +0.000 A 
ATOM      6  C   UNL     1       0.975   9.003  20.441  0.00  0.00    +0.000 A 
ATOM      7  C   UNL     1       1.623   7.798  20.732  0.00  0.00    +0.000 A 
ATOM      8  C   UNL     1       2.350   7.120  19.751  0.00  0.00    +0.000 A 
ATOM      9  C   UNL     1       2.449   7.685  18.475  0.00  0.00    +0.000 A 
ATOM     10  C   UNL     1       1.787   8.884  18.172  0.00  0.00    +0.000 A 
BRANCH   5  11
ATOM     11  C   UNL     1       0.310  10.821  18.896  0.00  0.00    +0.000 C 
ATOM     12  O   UNL     1       0.856  11.870  18.610  0.00  0.00    +0.000 OA
BRANCH  11  14
ATOM     13  C   UNL     1      -1.770  10.816  17.827  0.00  0.00    +0.000 C 
ATOM     14  O   UNL     1      -1.027  10.628  19.033  0.00  0.00    +0.000 OA
ENDBRANCH  11  14
ENDBRANCH   5  11
ENDBRANCH   1   8
BRANCH   2  15
ATOM     15  C   UNL     1       3.388   3.473  20.064  0.00  0.00    +0.000 C 
BRANCH  15  16
ATOM     16  S   UNL     1       4.443   3.151  18.625  0.00  0.00    +0.000 S 
BRANCH  16  17
ATOM     17  C   UNL     1       5.673   4.364  18.802  0.00  0.00    +0.000 A 
ATOM     18  N   UNL     1       6.082   4.854  19.953  0.00  0.00    +0.000 NA
ATOM     19  N   UNL     1       7.211   5.600  19.712  0.00  0.00    +0.000 NA
ATOM     20  C   UNL     1       7.463   5.532  18.422  0.00  0.00    +0.000 A 
ATOM     21  N   UNL     1       6.472   4.833  17.776  0.00  0.00    +0.000 N 
ATOM     22  C   UNL     1       6.377   4.695  16.369  0.00  0.00    +0.000 A 
ATOM     23  C   UNL     1       5.136   4.563  15.756  0.00  0.00    +0.000 A 
ATOM     24  C   UNL     1       5.079   4.452  14.368  0.00  0.00    +0.000 A 
ATOM     25  C   UNL     1       6.257   4.460  13.633  0.00  0.00    +0.000 A 
ATOM     26  C   UNL     1       7.449   4.611  14.318  0.00  0.00    +0.000 A 
ATOM     27  N   UNL     1       7.535   4.764  15.661  0.00  0.00    +0.000 NA
ENDBRANCH  16  17
ENDBRANCH  15  16
ENDBRANCH   2  15
TORSDOF 6
ENDMDL
MODEL 2
REMARK VINA RESULT:      -7.8      0.603      1.344
REMARK  Name = 
REMARK  7 active torsions:
REMARK  status: ('A' for Active; 'I' for Inactive)
REMARK    1  A    between atoms: C_1  and  O_2
REMARK    2  A    between atoms: O_2  and  C_3
REMARK    3  A    between atoms: C_3  and  C_5
REMARK    4  A    between atoms: C_8  and  N_9
REMARK    5  A    between atoms: C_10  and  C_12
REMARK    6  A    between atoms: C_12  and  S_13
REMARK    7  A    between atoms: S_13  and  C_14
REMARK                            x       y       z     vdW  Elec       q    Type
REMARK                         _______ _______ _______ _____ _____    ______ ____
ROOT
ATOM      1  N   UNL     1       2.951   5.914  20.006  0.00  0.00    +0.000 N 
ATOM      2  C   UNL     1       2.460   4.651  19.688  0.00  0.00    +0.000 C 
ATOM      3  O   UNL     1       1.402   4.423  19.104  0.00  0.00    +0.000 OA
ATOM      4  H   UNL     1       3.916   5.969  20.306  0.00  0.00    +0.000 HD
ENDROOT
BRANCH   1   8
ATOM      5  C   UNL     1       1.012   9.623  19.361  0.00  0.00    +0.000 A 
ATOM      6  C   UNL     1       1.676   8.995  18.305  0.00  0.00    +0.000 A 
ATOM      7  C   UNL     1       2.313   7.765  18.502  0.00  0.00    +0.000 A 
ATOM      8  C   UNL     1       2.295   7.140  19.751  0.00  0.00    +0.000 A 
ATOM      9  C   UNL     1       1.596   7.750  20.799  0.00  0.00    +0.000 A 
ATOM     10  C   UNL     1       0.971   8.991  20.612  0.00  0.00    +0.000 A 
BRANCH   5  11
ATOM     11  C   UNL     1       0.374  10.944  19.100  0.00  0.00    +0.000 C 
ATOM     12  O   UNL     1      -0.523  11.117  18.296  0.00  0.00    +0.000 OA
BRANCH  11  14
ATOM     13  C   UNL     1       0.023  12.578  20.737  0.00  0.00    +0.000 C 
ATOM     14  O   UNL     1       0.943  11.900  19.879  0.00  0.00    +0.000 OA
ENDBRANCH  11  14
ENDBRANCH   5  11
ENDBRANCH   1   8
BRANCH   2  15
ATOM     15  C   UNL     1       3.394   3.511  20.063  0.00  0.00    +0.000 C 
BRANCH  15  16
ATOM     16  S   UNL     1       4.460   3.158  18.639  0.00  0.00    +0.000 S 
BRANCH  16  17
ATOM     17  C   UNL     1       5.701   4.361  18.812  0.00  0.00    +0.000 A 
ATOM     18  N   UNL     1       6.120   4.845  19.961  0.00  0.00    +0.000 NA
ATOM     19  N   UNL     1       7.254   5.582  19.715  0.00  0.00    +0.000 NA
ATOM     20  C   UNL     1       7.497   5.515  18.423  0.00  0.00    +0.000 A 
ATOM     21  N   UNL     1       6.498   4.826  17.782  0.00  0.00    +0.000 N 
ATOM     22  C   UNL     1       6.393   4.692  16.375  0.00  0.00    +0.000 A 
ATOM     23  C   UNL     1       5.147   4.571  15.769  0.00  0.00    +0.000 A 
ATOM     24  C   UNL     1       5.081   4.463  14.381  0.00  0.00    +0.000 A 
ATOM     25  C   UNL     1       6.255   4.464  13.639  0.00  0.00    +0.000 A 
ATOM     26  C   UNL     1       7.452   4.604  14.317  0.00  0.00    +0.000 A 
ATOM     27  N   UNL     1       7.547   4.754  15.660  0.00  0.00    +0.000 NA
ENDBRANCH  16  17
ENDBRANCH  15  16
ENDBRANCH   2  15
TORSDOF 6
ENDMDL
MODEL 3
REMARK VINA RESULT:      -7.8      0.589      1.099
REMARK  Name = 
REMARK  7 active torsions:
REMARK  status: ('A' for Active; 'I' for Inactive)
REMARK    1  A    between atoms: C_1  and  O_2
REMARK    2  A    between atoms: O_2  and  C_3
REMARK    3  A    between atoms: C_3  and  C_5
REMARK    4  A    between atoms: C_8  and  N_9
REMARK    5  A    between atoms: C_10  and  C_12
REMARK    6  A    between atoms: C_12  and  S_13
REMARK    7  A    between atoms: S_13  and  C_14
REMARK                            x       y       z     vdW  Elec       q    Type
REMARK                         _______ _______ _______ _____ _____    ______ ____
ROOT
ATOM      1  N   UNL     1       2.765   5.903  20.030  0.00  0.00    +0.000 N 
ATOM      2  C   UNL     1       2.440   4.731  19.355  0.00  0.00    +0.000 C 
ATOM      3  O   UNL     1       1.667   4.646  18.402  0.00  0.00    +0.000 OA
ATOM      4  H   UNL     1       3.558   5.867  20.659  0.00  0.00    +0.000 HD
ENDROOT
BRANCH   1   8
ATOM      5  C   UNL     1       1.136   9.701  19.105  0.00  0.00    +0.000 A 
ATOM      6  C   UNL     1       0.929   9.147  20.371  0.00  0.00    +0.000 A 
ATOM      7  C   UNL     1       1.469   7.897  20.693  0.00  0.00    +0.000 A 
ATOM      8  C   UNL     1       2.227   7.183  19.762  0.00  0.00    +0.000 A 
ATOM      9  C   UNL     1       2.468   7.755  18.508  0.00  0.00    +0.000 A 
ATOM     10  C   UNL     1       1.914   9.000  18.174  0.00  0.00    +0.000 A 
BRANCH   5  11
ATOM     11  C   UNL     1       0.515  11.023  18.810  0.00  0.00    +0.000 C 
ATOM     12  O   UNL     1      -0.683  11.232  18.841  0.00  0.00    +0.000 OA
BRANCH  11  14
ATOM     13  C   UNL     1       1.638  12.964  19.475  0.00  0.00    +0.000 C 
ATOM     14  O   UNL     1       1.475  11.932  18.500  0.00  0.00    +0.000 OA
ENDBRANCH  11  14
ENDBRANCH   5  11
ENDBRANCH   1   8
BRANCH   2  15
ATOM     15  C   UNL     1       3.194   3.504  19.846  0.00  0.00    +0.000 C 
BRANCH  15  16
ATOM     16  S   UNL     1       4.420   3.050  18.591  0.00  0.00    +0.000 S 
BRANCH  16  17
ATOM     17  C   UNL     1       5.619   4.289  18.794  0.00  0.00    +0.000 A 
ATOM     18  N   UNL     1       6.002   4.778  19.954  0.00  0.00    +0.000 NA
ATOM     19  N   UNL     1       7.117   5.552  19.734  0.00  0.00    +0.000 NA
ATOM     20  C   UNL     1       7.386   5.501  18.447  0.00  0.00    +0.000 A 
ATOM     21  N   UNL     1       6.420   4.786  17.782  0.00  0.00    +0.000 N 
ATOM     22  C   UNL     1       6.347   4.658  16.373  0.00  0.00    +0.000 A 
ATOM     23  C   UNL     1       5.117   4.502  15.742  0.00  0.00    +0.000 A 
ATOM     24  C   UNL     1       5.081   4.402  14.353  0.00  0.00    +0.000 A 
ATOM     25  C   UNL     1       6.267   4.444  13.634  0.00  0.00    +0.000 A 
ATOM     26  C   UNL     1       7.446   4.617  14.335  0.00  0.00    +0.000 A 
ATOM     27  N   UNL     1       7.512   4.760  15.681  0.00  0.00    +0.000 NA
ENDBRANCH  16  17
ENDBRANCH  15  16
ENDBRANCH   2  15
TORSDOF 6
ENDMDL
MODEL 4
REMARK VINA RESULT:      -7.7      1.997      2.774
REMARK  Name = 
REMARK  7 active torsions:
REMARK  status: ('A' for Active; 'I' for Inactive)
REMARK    1  A    between atoms: C_1  and  O_2
REMARK    2  A    between atoms: O_2  and  C_3
REMARK    3  A    between atoms: C_3  and  C_5
REMARK    4  A    between atoms: C_8  and  N_9
REMARK    5  A    between atoms: C_10  and  C_12
REMARK    6  A    between atoms: C_12  and  S_13
REMARK    7  A    between atoms: S_13  and  C_14
REMARK                            x       y       z     vdW  Elec       q    Type
REMARK                         _______ _______ _______ _____ _____    ______ ____
ROOT
ATOM      1  N   UNL     1       2.530   5.551  20.807  0.00  0.00    +0.000 N 
ATOM      2  C   UNL     1       1.773   4.383  20.803  0.00  0.00    +0.000 C 
ATOM      3  O   UNL     1       0.648   4.263  20.320  0.00  0.00    +0.000 OA
ATOM      4  H   UNL     1       3.507   5.464  21.055  0.00  0.00    +0.000 HD
ENDROOT
BRANCH   1   8
ATOM      5  C   UNL     1       1.267   9.246  19.169  0.00  0.00    +0.000 A 
ATOM      6  C   UNL     1       0.972   8.941  20.499  0.00  0.00    +0.000 A 
ATOM      7  C   UNL     1       1.391   7.727  21.056  0.00  0.00    +0.000 A 
ATOM      8  C   UNL     1       2.113   6.803  20.298  0.00  0.00    +0.000 A 
ATOM      9  C   UNL     1       2.443   7.125  18.977  0.00  0.00    +0.000 A 
ATOM     10  C   UNL     1       2.011   8.332  18.409  0.00  0.00    +0.000 A 
BRANCH   5  11
ATOM     11  C   UNL     1       0.773  10.542  18.621  0.00  0.00    +0.000 C 
ATOM     12  O   UNL     1       1.370  11.596  18.732  0.00  0.00    +0.000 OA
BRANCH  11  14
ATOM     13  C   UNL     1      -1.540  10.863  18.734  0.00  0.00    +0.000 C 
ATOM     14  O   UNL     1      -0.421  10.362  18.001  0.00  0.00    +0.000 OA
ENDBRANCH  11  14
ENDBRANCH   5  11
ENDBRANCH   1   8
BRANCH   2  15
ATOM     15  C   UNL     1       2.487   3.181  21.399  0.00  0.00    +0.000 C 
BRANCH  15  16
ATOM     16  S   UNL     1       4.038   2.933  20.493  0.00  0.00    +0.000 S 
BRANCH  16  17
ATOM     17  C   UNL     1       3.489   2.886  18.846  0.00  0.00    +0.000 A 
ATOM     18  N   UNL     1       2.525   2.111  18.400  0.00  0.00    +0.000 NA
ATOM     19  N   UNL     1       2.217   2.519  17.124  0.00  0.00    +0.000 NA
ATOM     20  C   UNL     1       2.995   3.540  16.836  0.00  0.00    +0.000 A 
ATOM     21  N   UNL     1       3.886   3.766  17.857  0.00  0.00    +0.000 N 
ATOM     22  C   UNL     1       4.945   4.706  17.800  0.00  0.00    +0.000 A 
ATOM     23  C   UNL     1       6.123   4.484  18.505  0.00  0.00    +0.000 A 
ATOM     24  C   UNL     1       7.152   5.419  18.409  0.00  0.00    +0.000 A 
ATOM     25  C   UNL     1       6.973   6.554  17.629  0.00  0.00    +0.000 A 
ATOM     26  C   UNL     1       5.778   6.692  16.948  0.00  0.00    +0.000 A 
ATOM     27  N   UNL     1       4.776   5.781  16.987  0.00  0.00    +0.000 NA
ENDBRANCH  16  17
ENDBRANCH  15  16
ENDBRANCH   2  15
TORSDOF 6
ENDMDL
MODEL 5
REMARK VINA RESULT:      -7.7      2.063      3.112
REMARK  Name = 
REMARK  7 active torsions:
REMARK  status: ('A' for Active; 'I' for Inactive)
REMARK    1  A    between atoms: C_1  and  O_2
REMARK    2  A    between atoms: O_2  and  C_3
REMARK    3  A    between atoms: C_3  and  C_5
REMARK    4  A    between atoms: C_8  and  N_9
REMARK    5  A    between atoms: C_10  and  C_12
REMARK    6  A    between atoms: C_12  and  S_13
REMARK    7  A    between atoms: S_13  and  C_14
REMARK                            x       y       z     vdW  Elec       q    Type
REMARK                         _______ _______ _______ _____ _____    ______ ____
ROOT
ATOM      1  N   UNL     1       2.505   5.648  20.735  0.00  0.00    +0.000 N 
ATOM      2  C   UNL     1       1.737   4.488  20.753  0.00  0.00    +0.000 C 
ATOM      3  O   UNL     1       0.618   4.365  20.256  0.00  0.00    +0.000 OA
ATOM      4  H   UNL     1       3.478   5.559  21.001  0.00  0.00    +0.000 HD
ENDROOT
BRANCH   1   8
ATOM      5  C   UNL     1       1.332   9.416  19.200  0.00  0.00    +0.000 A 
ATOM      6  C   UNL     1       2.048   8.530  18.391  0.00  0.00    +0.000 A 
ATOM      7  C   UNL     1       2.434   7.278  18.883  0.00  0.00    +0.000 A 
ATOM      8  C   UNL     1       2.109   6.888  20.184  0.00  0.00    +0.000 A 
ATOM      9  C   UNL     1       1.359   7.760  20.981  0.00  0.00    +0.000 A 
ATOM     10  C   UNL     1       0.984   9.022  20.500  0.00  0.00    +0.000 A 
BRANCH   5  11
ATOM     11  C   UNL     1       0.971  10.746  18.632  0.00  0.00    +0.000 C 
ATOM     12  O   UNL     1      -0.151  11.215  18.666  0.00  0.00    +0.000 OA
BRANCH  11  14
ATOM     13  C   UNL     1       2.290  12.673  18.516  0.00  0.00    +0.000 C 
ATOM     14  O   UNL     1       2.064  11.332  18.081  0.00  0.00    +0.000 OA
ENDBRANCH  11  14
ENDBRANCH   5  11
ENDBRANCH   1   8
BRANCH   2  15
ATOM     15  C   UNL     1       2.429   3.296  21.395  0.00  0.00    +0.000 C 
BRANCH  15  16
ATOM     16  S   UNL     1       3.996   3.014  20.527  0.00  0.00    +0.000 S 
BRANCH  16  17
ATOM     17  C   UNL     1       3.477   2.907  18.873  0.00  0.00    +0.000 A 
ATOM     18  N   UNL     1       2.530   2.105  18.436  0.00  0.00    +0.000 NA
ATOM     19  N   UNL     1       2.239   2.469  17.142  0.00  0.00    +0.000 NA
ATOM     20  C   UNL     1       3.011   3.488  16.835  0.00  0.00    +0.000 A 
ATOM     21  N   UNL     1       3.881   3.759  17.863  0.00  0.00    +0.000 N 
ATOM     22  C   UNL     1       4.930   4.709  17.794  0.00  0.00    +0.000 A 
ATOM     23  C   UNL     1       6.098   4.524  18.526  0.00  0.00    +0.000 A 
ATOM     24  C   UNL     1       7.118   5.468  18.417  0.00  0.00    +0.000 A 
ATOM     25  C   UNL     1       6.940   6.574  17.598  0.00  0.00    +0.000 A 
ATOM     26  C   UNL     1       5.755   6.676  16.892  0.00  0.00    +0.000 A 
ATOM     27  N   UNL     1       4.763   5.755  16.943  0.00  0.00    +0.000 NA
ENDBRANCH  16  17
ENDBRANCH  15  16
ENDBRANCH   2  15
TORSDOF 6
ENDMDL
MODEL 6
REMARK VINA RESULT:      -7.4      1.697      3.180
REMARK  Name = 
REMARK  7 active torsions:
REMARK  status: ('A' for Active; 'I' for Inactive)
REMARK    1  A    between atoms: C_1  and  O_2
REMARK    2  A    between atoms: O_2  and  C_3
REMARK    3  A    between atoms: C_3  and  C_5
REMARK    4  A    between atoms: C_8  and  N_9
REMARK    5  A    between atoms: C_10  and  C_12
REMARK    6  A    between atoms: C_12  and  S_13
REMARK    7  A    between atoms: S_13  and  C_14
REMARK                            x       y       z     vdW  Elec       q    Type
REMARK                         _______ _______ _______ _____ _____    ______ ____
ROOT
ATOM      1  N   UNL     1       2.986   5.377  18.407  0.00  0.00    +0.000 N 
ATOM      2  C   UNL     1       2.295   4.369  17.742  0.00  0.00    +0.000 C 
ATOM      3  O   UNL     1       1.118   4.421  17.391  0.00  0.00    +0.000 OA
ATOM      4  H   UNL     1       3.993   5.287  18.460  0.00  0.00    +0.000 HD
ENDROOT
BRANCH   1   8
ATOM      5  C   UNL     1       1.387   9.050  19.783  0.00  0.00    +0.000 A 
ATOM      6  C   UNL     1       1.837   8.939  18.465  0.00  0.00    +0.000 A 
ATOM      7  C   UNL     1       2.359   7.730  17.995  0.00  0.00    +0.000 A 
ATOM      8  C   UNL     1       2.437   6.611  18.827  0.00  0.00    +0.000 A 
ATOM      9  C   UNL     1       1.951   6.709  20.135  0.00  0.00    +0.000 A 
ATOM     10  C   UNL     1       1.442   7.924  20.618  0.00  0.00    +0.000 A 
BRANCH   5  11
ATOM     11  C   UNL     1       0.865  10.370  20.238  0.00  0.00    +0.000 C 
ATOM     12  O   UNL     1       1.058  10.829  21.347  0.00  0.00    +0.000 OA
BRANCH  11  14
ATOM     13  C   UNL     1      -1.202  10.515  19.154  0.00  0.00    +0.000 C 
ATOM     14  O   UNL     1       0.154  10.958  19.243  0.00  0.00    +0.000 OA
ENDBRANCH  11  14
ENDBRANCH   5  11
ENDBRANCH   1   8
BRANCH   2  15
ATOM     15  C   UNL     1       3.149   3.159  17.395  0.00  0.00    +0.000 C 
BRANCH  15  16
ATOM     16  S   UNL     1       4.861   3.516  17.872  0.00  0.00    +0.000 S 
BRANCH  16  17
ATOM     17  C   UNL     1       5.569   3.977  16.355  0.00  0.00    +0.000 A 
ATOM     18  N   UNL     1       5.286   3.421  15.196  0.00  0.00    +0.000 NA
ATOM     19  N   UNL     1       5.851   4.197  14.212  0.00  0.00    +0.000 NA
ATOM     20  C   UNL     1       6.451   5.209  14.800  0.00  0.00    +0.000 A 
ATOM     21  N   UNL     1       6.382   5.079  16.165  0.00  0.00    +0.000 N 
ATOM     22  C   UNL     1       7.044   5.931  17.084  0.00  0.00    +0.000 A 
ATOM     23  C   UNL     1       7.466   5.447  18.318  0.00  0.00    +0.000 A 
ATOM     24  C   UNL     1       8.133   6.307  19.187  0.00  0.00    +0.000 A 
ATOM     25  C   UNL     1       8.348   7.626  18.812  0.00  0.00    +0.000 A 
ATOM     26  C   UNL     1       7.911   8.025  17.562  0.00  0.00    +0.000 A 
ATOM     27  N   UNL     1       7.297   7.203  16.677  0.00  0.00    +0.000 NA
ENDBRANCH  16  17
ENDBRANCH  15  16
ENDBRANCH   2  15
TORSDOF 6
ENDMDL
MODEL 7
REMARK VINA RESULT:      -7.3      1.778      3.156
REMARK  Name = 
REMARK  7 active torsions:
REMARK  status: ('A' for Active; 'I' for Inactive)
REMARK    1  A    between atoms: C_1  and  O_2
REMARK    2  A    between atoms: O_2  and  C_3
REMARK    3  A    between atoms: C_3  and  C_5
REMARK    4  A    between atoms: C_8  and  N_9
REMARK    5  A    between atoms: C_10  and  C_12
REMARK    6  A    between atoms: C_12  and  S_13
REMARK    7  A    between atoms: S_13  and  C_14
REMARK                            x       y       z     vdW  Elec       q    Type
REMARK                         _______ _______ _______ _____ _____    ______ ____
ROOT
ATOM      1  N   UNL     1       3.037   5.363  18.311  0.00  0.00    +0.000 N 
ATOM      2  C   UNL     1       2.311   4.349  17.694  0.00  0.00    +0.000 C 
ATOM      3  O   UNL     1       1.104   4.377  17.459  0.00  0.00    +0.000 OA
ATOM      4  H   UNL     1       4.046   5.298  18.264  0.00  0.00    +0.000 HD
ENDROOT
BRANCH   1   8
ATOM      5  C   UNL     1       1.377   9.006  19.691  0.00  0.00    +0.000 A 
ATOM      6  C   UNL     1       1.550   7.942  20.579  0.00  0.00    +0.000 A 
ATOM      7  C   UNL     1       2.105   6.736  20.139  0.00  0.00    +0.000 A 
ATOM      8  C   UNL     1       2.501   6.572  18.809  0.00  0.00    +0.000 A 
ATOM      9  C   UNL     1       2.365   7.651  17.928  0.00  0.00    +0.000 A 
ATOM     10  C   UNL     1       1.793   8.856  18.360  0.00  0.00    +0.000 A 
BRANCH   5  11
ATOM     11  C   UNL     1       0.756  10.258  20.209  0.00  0.00    +0.000 C 
ATOM     12  O   UNL     1       0.836  11.336  19.651  0.00  0.00    +0.000 OA
BRANCH  11  14
ATOM     13  C   UNL     1      -0.546  11.150  21.935  0.00  0.00    +0.000 C 
ATOM     14  O   UNL     1       0.110  10.010  21.377  0.00  0.00    +0.000 OA
ENDBRANCH  11  14
ENDBRANCH   5  11
ENDBRANCH   1   8
BRANCH   2  15
ATOM     15  C   UNL     1       3.156   3.170  17.239  0.00  0.00    +0.000 C 
BRANCH  15  16
ATOM     16  S   UNL     1       4.866   3.458  17.770  0.00  0.00    +0.000 S 
BRANCH  16  17
ATOM     17  C   UNL     1       5.633   3.913  16.280  0.00  0.00    +0.000 A 
ATOM     18  N   UNL     1       5.395   3.355  15.113  0.00  0.00    +0.000 NA
ATOM     19  N   UNL     1       5.998   4.127  14.149  0.00  0.00    +0.000 NA
ATOM     20  C   UNL     1       6.577   5.140  14.758  0.00  0.00    +0.000 A 
ATOM     21  N   UNL     1       6.455   5.014  16.120  0.00  0.00    +0.000 N 
ATOM     22  C   UNL     1       7.082   5.867  17.062  0.00  0.00    +0.000 A 
ATOM     23  C   UNL     1       7.454   5.385  18.312  0.00  0.00    +0.000 A 
ATOM     24  C   UNL     1       8.088   6.246  19.205  0.00  0.00    +0.000 A 
ATOM     25  C   UNL     1       8.319   7.564  18.835  0.00  0.00    +0.000 A 
ATOM     26  C   UNL     1       7.932   7.961  17.568  0.00  0.00    +0.000 A 
ATOM     27  N   UNL     1       7.353   7.137  16.662  0.00  0.00    +0.000 NA
ENDBRANCH  16  17
ENDBRANCH  15  16
ENDBRANCH   2  15
TORSDOF 6
ENDMDL
MODEL 8
REMARK VINA RESULT:      -7.3      3.688      8.391
REMARK  Name = 
REMARK  7 active torsions:
REMARK  status: ('A' for Active; 'I' for Inactive)
REMARK    1  A    between atoms: C_1  and  O_2
REMARK    2  A    between atoms: O_2  and  C_3
REMARK    3  A    between atoms: C_3  and  C_5
REMARK    4  A    between atoms: C_8  and  N_9
REMARK    5  A    between atoms: C_10  and  C_12
REMARK    6  A    between atoms: C_12  and  S_13
REMARK    7  A    between atoms: S_13  and  C_14
REMARK                            x       y       z     vdW  Elec       q    Type
REMARK                         _______ _______ _______ _____ _____    ______ ____
ROOT
ATOM      1  N   UNL     1       2.920   6.618  18.570  0.00  0.00    +0.000 N 
ATOM      2  C   UNL     1       2.627   6.030  19.797  0.00  0.00    +0.000 C 
ATOM      3  O   UNL     1       3.187   5.041  20.267  0.00  0.00    +0.000 OA
ATOM      4  H   UNL     1       2.527   7.533  18.394  0.00  0.00    +0.000 HD
ENDROOT
BRANCH   1   8
ATOM      5  C   UNL     1       5.704   5.142  15.741  0.00  0.00    +0.000 A 
ATOM      6  C   UNL     1       5.806   6.460  16.192  0.00  0.00    +0.000 A 
ATOM      7  C   UNL     1       4.899   6.958  17.133  0.00  0.00    +0.000 A 
ATOM      8  C   UNL     1       3.879   6.150  17.643  0.00  0.00    +0.000 A 
ATOM      9  C   UNL     1       3.800   4.818  17.220  0.00  0.00    +0.000 A 
ATOM     10  C   UNL     1       4.697   4.319  16.264  0.00  0.00    +0.000 A 
BRANCH   5  11
ATOM     11  C   UNL     1       6.682   4.674  14.718  0.00  0.00    +0.000 C 
ATOM     12  O   UNL     1       7.719   5.253  14.457  0.00  0.00    +0.000 OA
BRANCH  11  14
ATOM     13  C   UNL     1       6.224   3.571  12.707  0.00  0.00    +0.000 C 
ATOM     14  O   UNL     1       6.237   3.531  14.135  0.00  0.00    +0.000 OA
ENDBRANCH  11  14
ENDBRANCH   5  11
ENDBRANCH   1   8
BRANCH   2  15
ATOM     15  C   UNL     1       1.562   6.765  20.596  0.00  0.00    +0.000 C 
BRANCH  15  16
ATOM     16  S   UNL     1       1.682   8.533  20.213  0.00  0.00    +0.000 S 
BRANCH  16  17
ATOM     17  C   UNL     1       0.702   9.239  21.460  0.00  0.00    +0.000 A 
ATOM     18  N   UNL     1       0.843   9.003  22.747  0.00  0.00    +0.000 NA
ATOM     19  N   UNL     1       0.062   9.908  23.426  0.00  0.00    +0.000 NA
ATOM     20  C   UNL     1      -0.522  10.676  22.531  0.00  0.00    +0.000 A 
ATOM     21  N   UNL     1      -0.224  10.246  21.262  0.00  0.00    +0.000 N 
ATOM     22  C   UNL     1      -0.801  10.776  20.081  0.00  0.00    +0.000 A 
ATOM     23  C   UNL     1      -0.975   9.973  18.959  0.00  0.00    +0.000 A 
ATOM     24  C   UNL     1      -1.567  10.522  17.823  0.00  0.00    +0.000 A 
ATOM     25  C   UNL     1      -1.953  11.855  17.830  0.00  0.00    +0.000 A 
ATOM     26  C   UNL     1      -1.758  12.581  18.991  0.00  0.00    +0.000 A 
ATOM     27  N   UNL     1      -1.226  12.066  20.125  0.00  0.00    +0.000 NA
ENDBRANCH  16  17
ENDBRANCH  15  16
ENDBRANCH   2  15
TORSDOF 6
ENDMDL
MODEL 9
REMARK VINA RESULT:      -7.3      5.697      7.518
REMARK  Name = 
REMARK  7 active torsions:
REMARK  status: ('A' for Active; 'I' for Inactive)
REMARK    1  A    between atoms: C_1  and  O_2
REMARK    2  A    between atoms: O_2  and  C_3
REMARK    3  A    between atoms: C_3  and  C_5
REMARK    4  A    between atoms: C_8  and  N_9
REMARK    5  A    between atoms: C_10  and  C_12
REMARK    6  A    between atoms: C_12  and  S_13
REMARK    7  A    between atoms: S_13  and  C_14
REMARK                            x       y       z     vdW  Elec       q    Type
REMARK                         _______ _______ _______ _____ _____    ______ ____
ROOT
ATOM      1  N   UNL     1       9.052   9.053  18.965  0.00  0.00    +0.000 N 
ATOM      2  C   UNL     1       8.089   8.565  18.087  0.00  0.00    +0.000 C 
ATOM      3  O   UNL     1       7.496   9.227  17.237  0.00  0.00    +0.000 OA
ATOM      4  H   UNL     1       9.599   8.369  19.472  0.00  0.00    +0.000 HD
ENDROOT
BRANCH   1   8
ATOM      5  C   UNL     1      10.362  13.061  19.355  0.00  0.00    +0.000 A 
ATOM      6  C   UNL     1      10.401  12.437  18.106  0.00  0.00    +0.000 A 
ATOM      7  C   UNL     1       9.963  11.116  17.961  0.00  0.00    +0.000 A 
ATOM      8  C   UNL     1       9.475  10.399  19.056  0.00  0.00    +0.000 A 
ATOM      9  C   UNL     1       9.398  11.036  20.299  0.00  0.00    +0.000 A 
ATOM     10  C   UNL     1       9.852  12.354  20.454  0.00  0.00    +0.000 A 
BRANCH   5  11
ATOM     11  C   UNL     1      10.866  14.460  19.456  0.00  0.00    +0.000 C 
ATOM     12  O   UNL     1      11.870  14.776  20.066  0.00  0.00    +0.000 OA
BRANCH  11  14
ATOM     13  C   UNL     1       9.078  15.960  19.605  0.00  0.00    +0.000 C 
ATOM     14  O   UNL     1      10.043  15.303  18.782  0.00  0.00    +0.000 OA
ENDBRANCH  11  14
ENDBRANCH   5  11
ENDBRANCH   1   8
BRANCH   2  15
ATOM     15  C   UNL     1       7.852   7.067  18.199  0.00  0.00    +0.000 C 
BRANCH  15  16
ATOM     16  S   UNL     1       6.099   6.742  17.867  0.00  0.00    +0.000 S 
BRANCH  16  17
ATOM     17  C   UNL     1       6.185   5.610  16.554  0.00  0.00    +0.000 A 
ATOM     18  N   UNL     1       7.123   5.601  15.632  0.00  0.00    +0.000 NA
ATOM     19  N   UNL     1       6.994   4.435  14.915  0.00  0.00    +0.000 NA
ATOM     20  C   UNL     1       5.988   3.763  15.431  0.00  0.00    +0.000 A 
ATOM     21  N   UNL     1       5.377   4.495  16.419  0.00  0.00    +0.000 N 
ATOM     22  C   UNL     1       4.183   4.111  17.079  0.00  0.00    +0.000 A 
ATOM     23  C   UNL     1       3.301   5.073  17.559  0.00  0.00    +0.000 A 
ATOM     24  C   UNL     1       2.127   4.658  18.183  0.00  0.00    +0.000 A 
ATOM     25  C   UNL     1       1.871   3.301  18.325  0.00  0.00    +0.000 A 
ATOM     26  C   UNL     1       2.791   2.409  17.806  0.00  0.00    +0.000 A 
ATOM     27  N   UNL     1       3.921   2.780  17.157  0.00  0.00    +0.000 NA
ENDBRANCH  16  17
ENDBRANCH  15  16
ENDBRANCH   2  15
TORSDOF 6
ENDMDL
