MODEL 1
REMARK VINA RESULT:      -7.2      0.000      0.000
REMARK  Name = 
REMARK  7 active torsions:
REMARK  status: ('A' for Active; 'I' for Inactive)
REMARK    1  A    between atoms: C_1  and  C_2
REMARK    2  A    between atoms: C_2  and  C_10
REMARK    3  A    between atoms: C_3  and  C_4
REMARK    4  A    between atoms: C_10  and  N_11
REMARK    5  A    between atoms: N_11  and  C_12
REMARK    6  A    between atoms: C_12  and  C_13
REMARK    7  A    between atoms: C_13  and  N_14
REMARK                            x       y       z     vdW  Elec       q    Type
REMARK                         _______ _______ _______ _____ _____    ______ ____
ROOT
ATOM      1  N   UNL     1       4.846   3.204  17.608  0.00  0.00    +0.000 NA
ATOM      2  H   UNL     1       5.217   2.265  17.463  0.00  0.00    +0.000 HD
ENDROOT
BRANCH   1   3
ATOM      3  C   UNL     1       3.542   3.096  18.257  0.00  0.00    +0.000 C 
BRANCH   3   5
ATOM      4  C   UNL     1       1.372   4.311  17.679  0.00  0.00    +0.000 C 
ATOM      5  C   UNL     1       2.780   4.399  18.217  0.00  0.00    +0.000 C 
ATOM      6  C   UNL     1       3.334   5.514  18.728  0.00  0.00    +0.000 C 
BRANCH   6   7
ATOM      7  C   UNL     1       2.658   6.800  18.883  0.00  0.00    +0.000 A 
ATOM      8  C   UNL     1       2.100   7.144  20.120  0.00  0.00    +0.000 A 
ATOM      9  C   UNL     1       1.462   8.373  20.285  0.00  0.00    +0.000 A 
ATOM     10  C   UNL     1       1.376   9.262  19.214  0.00  0.00    +0.000 A 
ATOM     11  C   UNL     1       1.926   8.920  17.976  0.00  0.00    +0.000 A 
ATOM     12  C   UNL     1       2.565   7.691  17.810  0.00  0.00    +0.000 A 
ENDBRANCH   6   7
ENDBRANCH   3   5
ENDBRANCH   1   3
BRANCH   1  13
ATOM     13  C   UNL     1       4.770   3.895  16.308  0.00  0.00    +0.000 C 
BRANCH  13  14
ATOM     14  C   UNL     1       6.040   3.739  15.447  0.00  0.00    +0.000 C 
BRANCH  14  15
ATOM     15  N   UNL     1       6.708   5.017  15.237  0.00  0.00    +0.000 N 
ATOM     16  C   UNL     1       7.176   5.553  16.439  0.00  0.00    +0.000 A 
ATOM     17  N   UNL     1       7.591   4.737  17.420  0.00  0.00    +0.000 NA
ATOM     18  C   UNL     1       7.987   5.305  18.573  0.00  0.00    +0.000 A 
ATOM     19  C   UNL     1       7.992   6.660  18.778  0.00  0.00    +0.000 A 
ATOM     20  C   UNL     1       7.552   7.411  17.717  0.00  0.00    +0.000 A 
ATOM     21  N   UNL     1       7.131   6.886  16.548  0.00  0.00    +0.000 NA
ATOM     22  H   UNL     1       6.138   5.750  14.828  0.00  0.00    +0.000 HD
ENDBRANCH  14  15
ENDBRANCH  13  14
ENDBRANCH   1  13
TORSDOF 6
ENDMDL
MODEL 2
REMARK VINA RESULT:      -7.1      2.240      4.312
REMARK  Name = 
REMARK  7 active torsions:
REMARK  status: ('A' for Active; 'I' for Inactive)
REMARK    1  A    between atoms: C_1  and  C_2
REMARK    2  A    between atoms: C_2  and  C_10
REMARK    3  A    between atoms: C_3  and  C_4
REMARK    4  A    between atoms: C_10  and  N_11
REMARK    5  A    between atoms: N_11  and  C_12
REMARK    6  A    between atoms: C_12  and  C_13
REMARK    7  A    between atoms: C_13  and  N_14
REMARK                            x       y       z     vdW  Elec       q    Type
REMARK                         _______ _______ _______ _____ _____    ______ ____
ROOT
ATOM      1  N   UNL     1       7.046   5.161  19.131  0.00  0.00    +0.000 NA
ATOM      2  H   UNL     1       6.521   4.372  19.509  0.00  0.00    +0.000 HD
ENDROOT
BRANCH   1   3
ATOM      3  C   UNL     1       6.101   6.200  18.729  0.00  0.00    +0.000 C 
BRANCH   3   5
ATOM      4  C   UNL     1       3.744   6.419  17.773  0.00  0.00    +0.000 C 
ATOM      5  C   UNL     1       4.678   5.696  18.712  0.00  0.00    +0.000 C 
ATOM      6  C   UNL     1       4.345   4.610  19.435  0.00  0.00    +0.000 C 
BRANCH   6   7
ATOM      7  C   UNL     1       3.050   3.935  19.400  0.00  0.00    +0.000 A 
ATOM      8  C   UNL     1       2.054   4.301  20.313  0.00  0.00    +0.000 A 
ATOM      9  C   UNL     1       0.809   3.673  20.283  0.00  0.00    +0.000 A 
ATOM     10  C   UNL     1       0.556   2.676  19.342  0.00  0.00    +0.000 A 
ATOM     11  C   UNL     1       1.548   2.304  18.433  0.00  0.00    +0.000 A 
ATOM     12  C   UNL     1       2.793   2.932  18.461  0.00  0.00    +0.000 A 
ENDBRANCH   6   7
ENDBRANCH   3   5
ENDBRANCH   1   3
BRANCH   1  13
ATOM     13  C   UNL     1       7.875   4.691  18.008  0.00  0.00    +0.000 C 
BRANCH  13  14
ATOM     14  C   UNL     1       7.077   4.419  16.717  0.00  0.00    +0.000 C 
BRANCH  14  15
ATOM     15  N   UNL     1       7.287   5.465  15.724  0.00  0.00    +0.000 N 
ATOM     16  C   UNL     1       7.109   4.981  14.426  0.00  0.00    +0.000 A 
ATOM     17  N   UNL     1       6.216   4.008  14.190  0.00  0.00    +0.000 NA
ATOM     18  C   UNL     1       6.119   3.547  12.931  0.00  0.00    +0.000 A 
ATOM     19  C   UNL     1       6.877   4.029  11.896  0.00  0.00    +0.000 A 
ATOM     20  C   UNL     1       7.760   5.023  12.235  0.00  0.00    +0.000 A 
ATOM     21  N   UNL     1       7.903   5.506  13.486  0.00  0.00    +0.000 NA
ATOM     22  H   UNL     1       8.209   5.890  15.721  0.00  0.00    +0.000 HD
ENDBRANCH  14  15
ENDBRANCH  13  14
ENDBRANCH   1  13
TORSDOF 6
ENDMDL
MODEL 3
REMARK VINA RESULT:      -7.0      2.693      6.519
REMARK  Name = 
REMARK  7 active torsions:
REMARK  status: ('A' for Active; 'I' for Inactive)
REMARK    1  A    between atoms: C_1  and  C_2
REMARK    2  A    between atoms: C_2  and  C_10
REMARK    3  A    between atoms: C_3  and  C_4
REMARK    4  A    between atoms: C_10  and  N_11
REMARK    5  A    between atoms: N_11  and  C_12
REMARK    6  A    between atoms: C_12  and  C_13
REMARK    7  A    between atoms: C_13  and  N_14
REMARK                            x       y       z     vdW  Elec       q    Type
REMARK                         _______ _______ _______ _____ _____    ______ ____
ROOT
ATOM      1  N   UNL     1       7.758   6.032  18.253  0.00  0.00    +0.000 NA
ATOM      2  H   UNL     1       8.586   6.592  18.455  0.00  0.00    +0.000 HD
ENDROOT
BRANCH   1   3
ATOM      3  C   UNL     1       6.795   6.862  17.536  0.00  0.00    +0.000 C 
BRANCH   3   5
ATOM      4  C   UNL     1       4.965   6.661  15.767  0.00  0.00    +0.000 C 
ATOM      5  C   UNL     1       6.313   6.202  16.266  0.00  0.00    +0.000 C 
ATOM      6  C   UNL     1       7.115   5.339  15.616  0.00  0.00    +0.000 C 
BRANCH   6   7
ATOM      7  C   UNL     1       6.835   4.743  14.311  0.00  0.00    +0.000 A 
ATOM      8  C   UNL     1       7.646   5.062  13.216  0.00  0.00    +0.000 A 
ATOM      9  C   UNL     1       7.397   4.491  11.968  0.00  0.00    +0.000 A 
ATOM     10  C   UNL     1       6.335   3.601  11.810  0.00  0.00    +0.000 A 
ATOM     11  C   UNL     1       5.520   3.285  12.898  0.00  0.00    +0.000 A 
ATOM     12  C   UNL     1       5.768   3.855  14.147  0.00  0.00    +0.000 A 
ENDBRANCH   6   7
ENDBRANCH   3   5
ENDBRANCH   1   3
BRANCH   1  13
ATOM     13  C   UNL     1       7.215   5.507  19.519  0.00  0.00    +0.000 C 
BRANCH  13  14
ATOM     14  C   UNL     1       5.726   5.117  19.442  0.00  0.00    +0.000 C 
BRANCH  14  15
ATOM     15  N   UNL     1       5.552   3.732  19.023  0.00  0.00    +0.000 N 
ATOM     16  C   UNL     1       4.219   3.454  18.715  0.00  0.00    +0.000 A 
ATOM     17  N   UNL     1       3.438   4.412  18.191  0.00  0.00    +0.000 NA
ATOM     18  C   UNL     1       2.151   4.103  17.958  0.00  0.00    +0.000 A 
ATOM     19  C   UNL     1       1.616   2.870  18.222  0.00  0.00    +0.000 A 
ATOM     20  C   UNL     1       2.492   1.957  18.755  0.00  0.00    +0.000 A 
ATOM     21  N   UNL     1       3.787   2.226  19.020  0.00  0.00    +0.000 NA
ATOM     22  H   UNL     1       5.816   3.030  19.707  0.00  0.00    +0.000 HD
ENDBRANCH  14  15
ENDBRANCH  13  14
ENDBRANCH   1  13
TORSDOF 6
ENDMDL
MODEL 4
REMARK VINA RESULT:      -7.0      2.124      4.445
REMARK  Name = 
REMARK  7 active torsions:
REMARK  status: ('A' for Active; 'I' for Inactive)
REMARK    1  A    between atoms: C_1  and  C_2
REMARK    2  A    between atoms: C_2  and  C_10
REMARK    3  A    between atoms: C_3  and  C_4
REMARK    4  A    between atoms: C_10  and  N_11
REMARK    5  A    between atoms: N_11  and  C_12
REMARK    6  A    between atoms: C_12  and  C_13
REMARK    7  A    between atoms: C_13  and  N_14
REMARK                            x       y       z     vdW  Elec       q    Type
REMARK                         _______ _______ _______ _____ _____    ______ ____
ROOT
ATOM      1  N   UNL     1       6.133   7.138  17.484  0.00  0.00    +0.000 NA
ATOM      2  H   UNL     1       5.944   7.137  18.486  0.00  0.00    +0.000 HD
ENDROOT
BRANCH   1   3
ATOM      3  C   UNL     1       4.940   6.672  16.783  0.00  0.00    +0.000 C 
BRANCH   3   5
ATOM      4  C   UNL     1       2.787   7.196  18.052  0.00  0.00    +0.000 C 
ATOM      5  C   UNL     1       3.872   6.195  17.738  0.00  0.00    +0.000 C 
ATOM      6  C   UNL     1       3.885   4.921  18.172  0.00  0.00    +0.000 C 
BRANCH   6   7
ATOM      7  C   UNL     1       2.841   4.291  18.978  0.00  0.00    +0.000 A 
ATOM      8  C   UNL     1       2.796   4.526  20.357  0.00  0.00    +0.000 A 
ATOM      9  C   UNL     1       1.799   3.940  21.136  0.00  0.00    +0.000 A 
ATOM     10  C   UNL     1       0.844   3.116  20.540  0.00  0.00    +0.000 A 
ATOM     11  C   UNL     1       0.889   2.875  19.166  0.00  0.00    +0.000 A 
ATOM     12  C   UNL     1       1.886   3.461  18.385  0.00  0.00    +0.000 A 
ENDBRANCH   6   7
ENDBRANCH   3   5
ENDBRANCH   1   3
BRANCH   1  13
ATOM     13  C   UNL     1       7.308   6.289  17.218  0.00  0.00    +0.000 C 
BRANCH  13  14
ATOM     14  C   UNL     1       7.041   5.160  16.202  0.00  0.00    +0.000 C 
BRANCH  14  15
ATOM     15  N   UNL     1       7.469   5.531  14.860  0.00  0.00    +0.000 N 
ATOM     16  C   UNL     1       6.830   4.758  13.888  0.00  0.00    +0.000 A 
ATOM     17  N   UNL     1       5.577   4.325  14.093  0.00  0.00    +0.000 NA
ATOM     18  C   UNL     1       5.028   3.545  13.145  0.00  0.00    +0.000 A 
ATOM     19  C   UNL     1       5.682   3.188  11.996  0.00  0.00    +0.000 A 
ATOM     20  C   UNL     1       6.958   3.681  11.875  0.00  0.00    +0.000 A 
ATOM     21  N   UNL     1       7.555   4.453  12.806  0.00  0.00    +0.000 NA
ATOM     22  H   UNL     1       8.460   5.427  14.669  0.00  0.00    +0.000 HD
ENDBRANCH  14  15
ENDBRANCH  13  14
ENDBRANCH   1  13
TORSDOF 6
ENDMDL
MODEL 5
REMARK VINA RESULT:      -6.8      2.480      3.474
REMARK  Name = 
REMARK  7 active torsions:
REMARK  status: ('A' for Active; 'I' for Inactive)
REMARK    1  A    between atoms: C_1  and  C_2
REMARK    2  A    between atoms: C_2  and  C_10
REMARK    3  A    between atoms: C_3  and  C_4
REMARK    4  A    between atoms: C_10  and  N_11
REMARK    5  A    between atoms: N_11  and  C_12
REMARK    6  A    between atoms: C_12  and  C_13
REMARK    7  A    between atoms: C_13  and  N_14
REMARK                            x       y       z     vdW  Elec       q    Type
REMARK                         _______ _______ _______ _____ _____    ______ ____
ROOT
ATOM      1  N   UNL     1       4.624   4.401  14.944  0.00  0.00    +0.000 NA
ATOM      2  H   UNL     1       4.632   5.322  15.381  0.00  0.00    +0.000 HD
ENDROOT
BRANCH   1   3
ATOM      3  C   UNL     1       4.945   3.400  15.958  0.00  0.00    +0.000 C 
BRANCH   3   5
ATOM      4  C   UNL     1       4.101   5.118  17.648  0.00  0.00    +0.000 C 
ATOM      5  C   UNL     1       4.230   3.665  17.261  0.00  0.00    +0.000 C 
ATOM      6  C   UNL     1       3.681   2.641  17.941  0.00  0.00    +0.000 C 
BRANCH   6   7
ATOM      7  C   UNL     1       2.843   2.770  19.132  0.00  0.00    +0.000 A 
ATOM      8  C   UNL     1       1.478   3.047  18.992  0.00  0.00    +0.000 A 
ATOM      9  C   UNL     1       0.665   3.161  20.119  0.00  0.00    +0.000 A 
ATOM     10  C   UNL     1       1.214   3.001  21.391  0.00  0.00    +0.000 A 
ATOM     11  C   UNL     1       2.576   2.730  21.536  0.00  0.00    +0.000 A 
ATOM     12  C   UNL     1       3.390   2.615  20.409  0.00  0.00    +0.000 A 
ENDBRANCH   6   7
ENDBRANCH   3   5
ENDBRANCH   1   3
BRANCH   1  13
ATOM     13  C   UNL     1       5.581   4.393  13.824  0.00  0.00    +0.000 C 
BRANCH  13  14
ATOM     14  C   UNL     1       7.051   4.239  14.264  0.00  0.00    +0.000 C 
BRANCH  14  15
ATOM     15  N   UNL     1       7.623   5.512  14.684  0.00  0.00    +0.000 N 
ATOM     16  C   UNL     1       7.656   5.624  16.075  0.00  0.00    +0.000 A 
ATOM     17  N   UNL     1       7.836   4.530  16.832  0.00  0.00    +0.000 NA
ATOM     18  C   UNL     1       7.812   4.688  18.167  0.00  0.00    +0.000 A 
ATOM     19  C   UNL     1       7.622   5.902  18.774  0.00  0.00    +0.000 A 
ATOM     20  C   UNL     1       7.449   6.961  17.919  0.00  0.00    +0.000 A 
ATOM     21  N   UNL     1       7.450   6.848  16.574  0.00  0.00    +0.000 NA
ATOM     22  H   UNL     1       7.133   6.341  14.365  0.00  0.00    +0.000 HD
ENDBRANCH  14  15
ENDBRANCH  13  14
ENDBRANCH   1  13
TORSDOF 6
ENDMDL
MODEL 6
REMARK VINA RESULT:      -6.8      1.713      4.100
REMARK  Name = 
REMARK  7 active torsions:
REMARK  status: ('A' for Active; 'I' for Inactive)
REMARK    1  A    between atoms: C_1  and  C_2
REMARK    2  A    between atoms: C_2  and  C_10
REMARK    3  A    between atoms: C_3  and  C_4
REMARK    4  A    between atoms: C_10  and  N_11
REMARK    5  A    between atoms: N_11  and  C_12
REMARK    6  A    between atoms: C_12  and  C_13
REMARK    7  A    between atoms: C_13  and  N_14
REMARK                            x       y       z     vdW  Elec       q    Type
REMARK                         _______ _______ _______ _____ _____    ______ ____
ROOT
ATOM      1  N   UNL     1       5.938   7.285  17.236  0.00  0.00    +0.000 NA
ATOM      2  H   UNL     1       5.763   8.211  17.627  0.00  0.00    +0.000 HD
ENDROOT
BRANCH   1   3
ATOM      3  C   UNL     1       4.720   6.817  16.580  0.00  0.00    +0.000 C 
BRANCH   3   5
ATOM      4  C   UNL     1       2.803   7.352  18.179  0.00  0.00    +0.000 C 
ATOM      5  C   UNL     1       3.704   6.304  17.572  0.00  0.00    +0.000 C 
ATOM      6  C   UNL     1       3.592   4.981  17.789  0.00  0.00    +0.000 C 
BRANCH   6   7
ATOM      7  C   UNL     1       2.563   4.342  18.608  0.00  0.00    +0.000 A 
ATOM      8  C   UNL     1       1.743   3.357  18.045  0.00  0.00    +0.000 A 
ATOM      9  C   UNL     1       0.765   2.732  18.818  0.00  0.00    +0.000 A 
ATOM     10  C   UNL     1       0.601   3.091  20.156  0.00  0.00    +0.000 A 
ATOM     11  C   UNL     1       1.413   4.077  20.720  0.00  0.00    +0.000 A 
ATOM     12  C   UNL     1       2.392   4.703  19.947  0.00  0.00    +0.000 A 
ENDBRANCH   6   7
ENDBRANCH   3   5
ENDBRANCH   1   3
BRANCH   1  13
ATOM     13  C   UNL     1       6.377   6.384  18.316  0.00  0.00    +0.000 C 
BRANCH  13  14
ATOM     14  C   UNL     1       7.616   5.541  17.956  0.00  0.00    +0.000 C 
BRANCH  14  15
ATOM     15  N   UNL     1       7.245   4.232  17.434  0.00  0.00    +0.000 N 
ATOM     16  C   UNL     1       6.974   4.286  16.065  0.00  0.00    +0.000 A 
ATOM     17  N   UNL     1       7.637   5.152  15.284  0.00  0.00    +0.000 NA
ATOM     18  C   UNL     1       7.304   5.195  13.983  0.00  0.00    +0.000 A 
ATOM     19  C   UNL     1       6.335   4.399  13.431  0.00  0.00    +0.000 A 
ATOM     20  C   UNL     1       5.713   3.545  14.307  0.00  0.00    +0.000 A 
ATOM     21  N   UNL     1       6.004   3.478  15.623  0.00  0.00    +0.000 NA
ATOM     22  H   UNL     1       6.420   3.811  17.849  0.00  0.00    +0.000 HD
ENDBRANCH  14  15
ENDBRANCH  13  14
ENDBRANCH   1  13
TORSDOF 6
ENDMDL
MODEL 7
REMARK VINA RESULT:      -6.7      3.457      5.604
REMARK  Name = 
REMARK  7 active torsions:
REMARK  status: ('A' for Active; 'I' for Inactive)
REMARK    1  A    between atoms: C_1  and  C_2
REMARK    2  A    between atoms: C_2  and  C_10
REMARK    3  A    between atoms: C_3  and  C_4
REMARK    4  A    between atoms: C_10  and  N_11
REMARK    5  A    between atoms: N_11  and  C_12
REMARK    6  A    between atoms: C_12  and  C_13
REMARK    7  A    between atoms: C_13  and  N_14
REMARK                            x       y       z     vdW  Elec       q    Type
REMARK                         _______ _______ _______ _____ _____    ______ ____
ROOT
ATOM      1  N   UNL     1       7.339   6.892  17.012  0.00  0.00    +0.000 NA
ATOM      2  H   UNL     1       7.750   7.222  16.139  0.00  0.00    +0.000 HD
ENDROOT
BRANCH   1   3
ATOM      3  C   UNL     1       5.915   7.216  17.010  0.00  0.00    +0.000 C 
BRANCH   3   5
ATOM      4  C   UNL     1       5.270   5.036  15.848  0.00  0.00    +0.000 C 
ATOM      5  C   UNL     1       5.052   5.977  17.007  0.00  0.00    +0.000 C 
ATOM      6  C   UNL     1       4.230   5.733  18.045  0.00  0.00    +0.000 C 
BRANCH   6   7
ATOM      7  C   UNL     1       3.452   4.511  18.238  0.00  0.00    +0.000 A 
ATOM      8  C   UNL     1       2.094   4.494  17.896  0.00  0.00    +0.000 A 
ATOM      9  C   UNL     1       1.342   3.332  18.065  0.00  0.00    +0.000 A 
ATOM     10  C   UNL     1       1.944   2.183  18.578  0.00  0.00    +0.000 A 
ATOM     11  C   UNL     1       3.296   2.198  18.926  0.00  0.00    +0.000 A 
ATOM     12  C   UNL     1       4.049   3.360  18.757  0.00  0.00    +0.000 A 
ENDBRANCH   6   7
ENDBRANCH   3   5
ENDBRANCH   1   3
BRANCH   1  13
ATOM     13  C   UNL     1       8.053   7.510  18.142  0.00  0.00    +0.000 C 
BRANCH  13  14
ATOM     14  C   UNL     1       8.229   9.036  18.007  0.00  0.00    +0.000 C 
BRANCH  14  15
ATOM     15  N   UNL     1       9.032   9.584  19.092  0.00  0.00    +0.000 N 
ATOM     16  C   UNL     1       9.534  10.847  18.769  0.00  0.00    +0.000 A 
ATOM     17  N   UNL     1       8.822  11.671  17.984  0.00  0.00    +0.000 NA
ATOM     18  C   UNL     1       9.373  12.855  17.667  0.00  0.00    +0.000 A 
ATOM     19  C   UNL     1      10.608  13.250  18.111  0.00  0.00    +0.000 A 
ATOM     20  C   UNL     1      11.259  12.342  18.908  0.00  0.00    +0.000 A 
ATOM     21  N   UNL     1      10.752  11.136  19.240  0.00  0.00    +0.000 NA
ATOM     22  H   UNL     1       9.846   9.038  19.356  0.00  0.00    +0.000 HD
ENDBRANCH  14  15
ENDBRANCH  13  14
ENDBRANCH   1  13
TORSDOF 6
ENDMDL
MODEL 8
REMARK VINA RESULT:      -6.7      1.216      2.758
REMARK  Name = 
REMARK  7 active torsions:
REMARK  status: ('A' for Active; 'I' for Inactive)
REMARK    1  A    between atoms: C_1  and  C_2
REMARK    2  A    between atoms: C_2  and  C_10
REMARK    3  A    between atoms: C_3  and  C_4
REMARK    4  A    between atoms: C_10  and  N_11
REMARK    5  A    between atoms: N_11  and  C_12
REMARK    6  A    between atoms: C_12  and  C_13
REMARK    7  A    between atoms: C_13  and  N_14
REMARK                            x       y       z     vdW  Elec       q    Type
REMARK                         _______ _______ _______ _____ _____    ______ ____
ROOT
ATOM      1  N   UNL     1       5.239   3.579  18.845  0.00  0.00    +0.000 NA
ATOM      2  H   UNL     1       5.121   3.281  17.877  0.00  0.00    +0.000 HD
ENDROOT
BRANCH   1   3
ATOM      3  C   UNL     1       3.920   3.705  19.459  0.00  0.00    +0.000 C 
BRANCH   3   5
ATOM      4  C   UNL     1       2.178   4.639  17.843  0.00  0.00    +0.000 C 
ATOM      5  C   UNL     1       3.169   4.912  18.947  0.00  0.00    +0.000 C 
ATOM      6  C   UNL     1       3.344   6.107  19.540  0.00  0.00    +0.000 C 
BRANCH   6   7
ATOM      7  C   UNL     1       2.581   7.318  19.242  0.00  0.00    +0.000 A 
ATOM      8  C   UNL     1       2.740   7.948  18.003  0.00  0.00    +0.000 A 
ATOM      9  C   UNL     1       2.010   9.098  17.701  0.00  0.00    +0.000 A 
ATOM     10  C   UNL     1       1.121   9.623  18.638  0.00  0.00    +0.000 A 
ATOM     11  C   UNL     1       0.964   9.000  19.878  0.00  0.00    +0.000 A 
ATOM     12  C   UNL     1       1.693   7.850  20.181  0.00  0.00    +0.000 A 
ENDBRANCH   6   7
ENDBRANCH   3   5
ENDBRANCH   1   3
BRANCH   1  13
ATOM     13  C   UNL     1       5.991   4.845  18.868  0.00  0.00    +0.000 C 
BRANCH  13  14
ATOM     14  C   UNL     1       7.323   4.790  18.093  0.00  0.00    +0.000 C 
BRANCH  14  15
ATOM     15  N   UNL     1       7.335   5.726  16.975  0.00  0.00    +0.000 N 
ATOM     16  C   UNL     1       6.943   5.107  15.786  0.00  0.00    +0.000 A 
ATOM     17  N   UNL     1       6.044   4.111  15.813  0.00  0.00    +0.000 NA
ATOM     18  C   UNL     1       5.739   3.519  14.646  0.00  0.00    +0.000 A 
ATOM     19  C   UNL     1       6.294   3.891  13.449  0.00  0.00    +0.000 A 
ATOM     20  C   UNL     1       7.201   4.918  13.522  0.00  0.00    +0.000 A 
ATOM     21  N   UNL     1       7.550   5.532  14.672  0.00  0.00    +0.000 NA
ATOM     22  H   UNL     1       8.232   6.151  16.767  0.00  0.00    +0.000 HD
ENDBRANCH  14  15
ENDBRANCH  13  14
ENDBRANCH   1  13
TORSDOF 6
ENDMDL
MODEL 9
REMARK VINA RESULT:      -6.7      1.849      2.687
REMARK  Name = 
REMARK  7 active torsions:
REMARK  status: ('A' for Active; 'I' for Inactive)
REMARK    1  A    between atoms: C_1  and  C_2
REMARK    2  A    between atoms: C_2  and  C_10
REMARK    3  A    between atoms: C_3  and  C_4
REMARK    4  A    between atoms: C_10  and  N_11
REMARK    5  A    between atoms: N_11  and  C_12
REMARK    6  A    between atoms: C_12  and  C_13
REMARK    7  A    between atoms: C_13  and  N_14
REMARK                            x       y       z     vdW  Elec       q    Type
REMARK                         _______ _______ _______ _____ _____    ______ ____
ROOT
ATOM      1  N   UNL     1       2.189   2.456  20.673  0.00  0.00    +0.000 NA
ATOM      2  H   UNL     1       1.181   2.605  20.724  0.00  0.00    +0.000 HD
ENDROOT
BRANCH   1   3
ATOM      3  C   UNL     1       2.864   3.717  20.968  0.00  0.00    +0.000 C 
BRANCH   3   5
ATOM      4  C   UNL     1       0.640   4.768  20.284  0.00  0.00    +0.000 C 
ATOM      5  C   UNL     1       2.140   4.900  20.369  0.00  0.00    +0.000 C 
ATOM      6  C   UNL     1       2.830   6.008  20.040  0.00  0.00    +0.000 C 
BRANCH   6   7
ATOM      7  C   UNL     1       2.242   7.268  19.589  0.00  0.00    +0.000 A 
ATOM      8  C   UNL     1       1.583   8.092  20.509  0.00  0.00    +0.000 A 
ATOM      9  C   UNL     1       1.027   9.302  20.094  0.00  0.00    +0.000 A 
ATOM     10  C   UNL     1       1.125   9.691  18.759  0.00  0.00    +0.000 A 
ATOM     11  C   UNL     1       1.777   8.869  17.837  0.00  0.00    +0.000 A 
ATOM     12  C   UNL     1       2.334   7.659  18.251  0.00  0.00    +0.000 A 
ENDBRANCH   6   7
ENDBRANCH   3   5
ENDBRANCH   1   3
BRANCH   1  13
ATOM     13  C   UNL     1       2.530   1.936  19.337  0.00  0.00    +0.000 C 
BRANCH  13  14
ATOM     14  C   UNL     1       4.032   2.025  19.000  0.00  0.00    +0.000 C 
BRANCH  14  15
ATOM     15  N   UNL     1       4.254   2.576  17.669  0.00  0.00    +0.000 N 
ATOM     16  C   UNL     1       4.865   3.830  17.730  0.00  0.00    +0.000 A 
ATOM     17  N   UNL     1       5.728   4.108  18.719  0.00  0.00    +0.000 NA
ATOM     18  C   UNL     1       6.251   5.346  18.756  0.00  0.00    +0.000 A 
ATOM     19  C   UNL     1       5.948   6.315  17.836  0.00  0.00    +0.000 A 
ATOM     20  C   UNL     1       5.058   5.937  16.863  0.00  0.00    +0.000 A 
ATOM     21  N   UNL     1       4.496   4.712  16.794  0.00  0.00    +0.000 NA
ATOM     22  H   UNL     1       3.421   2.716  17.107  0.00  0.00    +0.000 HD
ENDBRANCH  14  15
ENDBRANCH  13  14
ENDBRANCH   1  13
TORSDOF 6
ENDMDL
