MODEL 1
REMARK VINA RESULT:      -7.8      0.000      0.000
REMARK  Name = 
REMARK  3 active torsions:
REMARK  status: ('A' for Active; 'I' for Inactive)
REMARK    1  A    between atoms: C_2  and  C_3
REMARK    2  A    between atoms: C_2  and  C_10
REMARK    3  A    between atoms: C_3  and  N_4
REMARK                            x       y       z     vdW  Elec       q    Type
REMARK                         _______ _______ _______ _____ _____    ______ ____
ROOT
ATOM      1  C   UNL     1       2.572   7.741  18.592  0.00  0.00    +0.000 A 
ATOM      2  C   UNL     1       2.187   8.694  17.626  0.00  0.00    +0.000 A 
ATOM      3  C   UNL     1       1.264   9.697  17.945  0.00  0.00    +0.000 A 
ATOM      4  C   UNL     1       0.711   9.778  19.229  0.00  0.00    +0.000 A 
ATOM      5  C   UNL     1       1.084   8.828  20.194  0.00  0.00    +0.000 A 
ATOM      6  C   UNL     1       1.997   7.826  19.868  0.00  0.00    +0.000 A 
ATOM      7  S   UNL     1       0.455   8.805  21.867  0.00  0.00    +0.000 S 
ATOM      8  C   UNL     1      -0.477  10.329  21.854  0.00  0.00    +0.000 A 
ATOM      9  C   UNL     1      -1.028  10.733  23.074  0.00  0.00    +0.000 A 
ATOM     10  C   UNL     1      -1.789  11.894  23.158  0.00  0.00    +0.000 A 
ATOM     11  C   UNL     1      -2.013  12.664  22.014  0.00  0.00    +0.000 A 
ATOM     12  C   UNL     1      -1.464  12.273  20.790  0.00  0.00    +0.000 A 
ATOM     13  C   UNL     1      -0.687  11.107  20.697  0.00  0.00    +0.000 A 
ATOM     14  O   UNL     1      -0.155  10.784  19.493  0.00  0.00    +0.000 OA
ENDROOT
BRANCH   1  16
ATOM     15  O   UNL     1       4.231   6.677  17.312  0.00  0.00    +0.000 OA
ATOM     16  C   UNL     1       3.565   6.649  18.335  0.00  0.00    +0.000 C 
BRANCH  16  17
ATOM     17  C   UNL     1       3.780   5.476  19.261  0.00  0.00    +0.000 C 
BRANCH  17  18
ATOM     18  N   UNL     1       3.152   4.249  18.735  0.00  0.00    +0.000 NA
ATOM     19  C   UNL     1       3.911   3.032  19.109  0.00  0.00    +0.000 C 
ATOM     20  C   UNL     1       3.251   1.792  18.496  0.00  0.00    +0.000 C 
ATOM     21  C   UNL     1       1.809   1.679  18.989  0.00  0.00    +0.000 C 
ATOM     22  C   UNL     1       1.044   2.956  18.636  0.00  0.00    +0.000 C 
ATOM     23  C   UNL     1       1.762   4.169  19.235  0.00  0.00    +0.000 C 
ENDBRANCH  17  18
ENDBRANCH  16  17
ENDBRANCH   1  16
TORSDOF 3
ENDMDL
MODEL 2
REMARK VINA RESULT:      -7.8      1.072      1.143
REMARK  Name = 
REMARK  3 active torsions:
REMARK  status: ('A' for Active; 'I' for Inactive)
REMARK    1  A    between atoms: C_2  and  C_3
REMARK    2  A    between atoms: C_2  and  C_10
REMARK    3  A    between atoms: C_3  and  N_4
REMARK                            x       y       z     vdW  Elec       q    Type
REMARK                         _______ _______ _______ _____ _____    ______ ____
ROOT
ATOM      1  C   UNL     1       2.942   7.094  18.496  0.00  0.00    +0.000 A 
ATOM      2  C   UNL     1       2.696   8.101  17.539  0.00  0.00    +0.000 A 
ATOM      3  C   UNL     1       1.853   9.177  17.840  0.00  0.00    +0.000 A 
ATOM      4  C   UNL     1       1.244   9.280  19.097  0.00  0.00    +0.000 A 
ATOM      5  C   UNL     1       1.480   8.277  20.053  0.00  0.00    +0.000 A 
ATOM      6  C   UNL     1       2.313   7.203  19.745  0.00  0.00    +0.000 A 
ATOM      7  S   UNL     1       0.766   8.274  21.692  0.00  0.00    +0.000 S 
ATOM      8  C   UNL     1      -0.021   9.877  21.675  0.00  0.00    +0.000 A 
ATOM      9  C   UNL     1      -0.594  10.302  22.878  0.00  0.00    +0.000 A 
ATOM     10  C   UNL     1      -1.250  11.527  22.956  0.00  0.00    +0.000 A 
ATOM     11  C   UNL     1      -1.344  12.340  21.825  0.00  0.00    +0.000 A 
ATOM     12  C   UNL     1      -0.771  11.928  20.618  0.00  0.00    +0.000 A 
ATOM     13  C   UNL     1      -0.100  10.697  20.531  0.00  0.00    +0.000 A 
ATOM     14  O   UNL     1       0.461  10.354  19.347  0.00  0.00    +0.000 OA
ENDROOT
BRANCH   1  16
ATOM     15  O   UNL     1       5.010   5.984  18.613  0.00  0.00    +0.000 OA
ATOM     16  C   UNL     1       3.843   5.921  18.258  0.00  0.00    +0.000 C 
BRANCH  16  17
ATOM     17  C   UNL     1       3.404   4.652  17.567  0.00  0.00    +0.000 C 
BRANCH  17  18
ATOM     18  N   UNL     1       2.830   3.687  18.523  0.00  0.00    +0.000 NA
ATOM     19  C   UNL     1       3.401   3.845  19.882  0.00  0.00    +0.000 C 
ATOM     20  C   UNL     1       2.815   2.788  20.825  0.00  0.00    +0.000 C 
ATOM     21  C   UNL     1       1.294   2.932  20.878  0.00  0.00    +0.000 C 
ATOM     22  C   UNL     1       0.717   2.809  19.467  0.00  0.00    +0.000 C 
ATOM     23  C   UNL     1       1.361   3.857  18.554  0.00  0.00    +0.000 C 
ENDBRANCH  17  18
ENDBRANCH  16  17
ENDBRANCH   1  16
TORSDOF 3
ENDMDL
MODEL 3
REMARK VINA RESULT:      -7.8      0.900      1.264
REMARK  Name = 
REMARK  3 active torsions:
REMARK  status: ('A' for Active; 'I' for Inactive)
REMARK    1  A    between atoms: C_2  and  C_3
REMARK    2  A    between atoms: C_2  and  C_10
REMARK    3  A    between atoms: C_3  and  N_4
REMARK                            x       y       z     vdW  Elec       q    Type
REMARK                         _______ _______ _______ _____ _____    ______ ____
ROOT
ATOM      1  C   UNL     1       2.631   7.599  18.467  0.00  0.00    +0.000 A 
ATOM      2  C   UNL     1       2.300   8.608  17.539  0.00  0.00    +0.000 A 
ATOM      3  C   UNL     1       1.424   9.641  17.894  0.00  0.00    +0.000 A 
ATOM      4  C   UNL     1       0.867   9.697  19.178  0.00  0.00    +0.000 A 
ATOM      5  C   UNL     1       1.188   8.692  20.105  0.00  0.00    +0.000 A 
ATOM      6  C   UNL     1       2.053   7.661  19.744  0.00  0.00    +0.000 A 
ATOM      7  S   UNL     1       0.547   8.632  21.773  0.00  0.00    +0.000 S 
ATOM      8  C   UNL     1      -0.311  10.199  21.817  0.00  0.00    +0.000 A 
ATOM      9  C   UNL     1      -0.849  10.580  23.050  0.00  0.00    +0.000 A 
ATOM     10  C   UNL     1      -1.553  11.772  23.177  0.00  0.00    +0.000 A 
ATOM     11  C   UNL     1      -1.732  12.597  22.065  0.00  0.00    +0.000 A 
ATOM     12  C   UNL     1      -1.195  12.230  20.828  0.00  0.00    +0.000 A 
ATOM     13  C   UNL     1      -0.474  11.032  20.692  0.00  0.00    +0.000 A 
ATOM     14  O   UNL     1       0.049  10.732  19.478  0.00  0.00    +0.000 OA
ENDROOT
BRANCH   1  16
ATOM     15  O   UNL     1       4.774   6.689  18.141  0.00  0.00    +0.000 OA
ATOM     16  C   UNL     1       3.572   6.471  18.171  0.00  0.00    +0.000 C 
BRANCH  16  17
ATOM     17  C   UNL     1       3.124   5.061  17.873  0.00  0.00    +0.000 C 
BRANCH  17  18
ATOM     18  N   UNL     1       2.250   4.534  18.938  0.00  0.00    +0.000 NA
ATOM     19  C   UNL     1       1.569   3.283  18.530  0.00  0.00    +0.000 C 
ATOM     20  C   UNL     1       0.634   2.805  19.646  0.00  0.00    +0.000 C 
ATOM     21  C   UNL     1       1.437   2.568  20.925  0.00  0.00    +0.000 C 
ATOM     22  C   UNL     1       2.170   3.852  21.316  0.00  0.00    +0.000 C 
ATOM     23  C   UNL     1       3.059   4.312  20.157  0.00  0.00    +0.000 C 
ENDBRANCH  17  18
ENDBRANCH  16  17
ENDBRANCH   1  16
TORSDOF 3
ENDMDL
MODEL 4
REMARK VINA RESULT:      -7.7      2.466      4.078
REMARK  Name = 
REMARK  3 active torsions:
REMARK  status: ('A' for Active; 'I' for Inactive)
REMARK    1  A    between atoms: C_2  and  C_3
REMARK    2  A    between atoms: C_2  and  C_10
REMARK    3  A    between atoms: C_3  and  N_4
REMARK                            x       y       z     vdW  Elec       q    Type
REMARK                         _______ _______ _______ _____ _____    ______ ____
ROOT
ATOM      1  C   UNL     1       2.745   5.052  18.436  0.00  0.00    +0.000 A 
ATOM      2  C   UNL     1       2.444   4.577  19.730  0.00  0.00    +0.000 A 
ATOM      3  C   UNL     1       1.928   5.442  20.702  0.00  0.00    +0.000 A 
ATOM      4  C   UNL     1       1.694   6.791  20.409  0.00  0.00    +0.000 A 
ATOM      5  C   UNL     1       1.997   7.272  19.124  0.00  0.00    +0.000 A 
ATOM      6  C   UNL     1       2.519   6.409  18.162  0.00  0.00    +0.000 A 
ATOM      7  S   UNL     1       1.758   8.968  18.611  0.00  0.00    +0.000 S 
ATOM      8  C   UNL     1       0.922   9.600  20.059  0.00  0.00    +0.000 A 
ATOM      9  C   UNL     1       0.440  10.910  19.977  0.00  0.00    +0.000 A 
ATOM     10  C   UNL     1      -0.204  11.495  21.062  0.00  0.00    +0.000 A 
ATOM     11  C   UNL     1      -0.368  10.775  22.247  0.00  0.00    +0.000 A 
ATOM     12  C   UNL     1       0.106   9.464  22.339  0.00  0.00    +0.000 A 
ATOM     13  C   UNL     1       0.750   8.860  21.246  0.00  0.00    +0.000 A 
ATOM     14  O   UNL     1       1.168   7.577  21.375  0.00  0.00    +0.000 OA
ENDROOT
BRANCH   1  16
ATOM     15  O   UNL     1       2.554   3.349  16.827  0.00  0.00    +0.000 OA
ATOM     16  C   UNL     1       3.282   4.188  17.336  0.00  0.00    +0.000 C 
BRANCH  16  17
ATOM     17  C   UNL     1       4.700   4.266  16.825  0.00  0.00    +0.000 C 
BRANCH  17  18
ATOM     18  N   UNL     1       5.487   5.270  17.565  0.00  0.00    +0.000 NA
ATOM     19  C   UNL     1       6.636   4.661  18.278  0.00  0.00    +0.000 C 
ATOM     20  C   UNL     1       7.389   5.732  19.074  0.00  0.00    +0.000 C 
ATOM     21  C   UNL     1       7.883   6.826  18.127  0.00  0.00    +0.000 C 
ATOM     22  C   UNL     1       6.697   7.420  17.367  0.00  0.00    +0.000 C 
ATOM     23  C   UNL     1       5.954   6.308  16.620  0.00  0.00    +0.000 C 
ENDBRANCH  17  18
ENDBRANCH  16  17
ENDBRANCH   1  16
TORSDOF 3
ENDMDL
MODEL 5
REMARK VINA RESULT:      -7.7      0.772      1.028
REMARK  Name = 
REMARK  3 active torsions:
REMARK  status: ('A' for Active; 'I' for Inactive)
REMARK    1  A    between atoms: C_2  and  C_3
REMARK    2  A    between atoms: C_2  and  C_10
REMARK    3  A    between atoms: C_3  and  N_4
REMARK                            x       y       z     vdW  Elec       q    Type
REMARK                         _______ _______ _______ _____ _____    ______ ____
ROOT
ATOM      1  C   UNL     1       2.628   7.538  18.626  0.00  0.00    +0.000 A 
ATOM      2  C   UNL     1       2.277   8.480  17.636  0.00  0.00    +0.000 A 
ATOM      3  C   UNL     1       1.377   9.513  17.926  0.00  0.00    +0.000 A 
ATOM      4  C   UNL     1       0.815   9.636  19.203  0.00  0.00    +0.000 A 
ATOM      5  C   UNL     1       1.156   8.697  20.191  0.00  0.00    +0.000 A 
ATOM      6  C   UNL     1       2.045   7.665  19.895  0.00  0.00    +0.000 A 
ATOM      7  S   UNL     1       0.511   8.725  21.858  0.00  0.00    +0.000 S 
ATOM      8  C   UNL     1      -0.381  10.272  21.805  0.00  0.00    +0.000 A 
ATOM      9  C   UNL     1      -0.931  10.716  23.011  0.00  0.00    +0.000 A 
ATOM     10  C   UNL     1      -1.663  11.898  23.063  0.00  0.00    +0.000 A 
ATOM     11  C   UNL     1      -1.857  12.649  21.902  0.00  0.00    +0.000 A 
ATOM     12  C   UNL     1      -1.308  12.218  20.691  0.00  0.00    +0.000 A 
ATOM     13  C   UNL     1      -0.560  11.030  20.630  0.00  0.00    +0.000 A 
ATOM     14  O   UNL     1      -0.026  10.668  19.438  0.00  0.00    +0.000 OA
ENDROOT
BRANCH   1  16
ATOM     15  O   UNL     1       4.022   6.213  17.275  0.00  0.00    +0.000 OA
ATOM     16  C   UNL     1       3.595   6.415  18.401  0.00  0.00    +0.000 C 
BRANCH  16  17
ATOM     17  C   UNL     1       4.062   5.480  19.490  0.00  0.00    +0.000 C 
BRANCH  17  18
ATOM     18  N   UNL     1       3.184   4.300  19.604  0.00  0.00    +0.000 NA
ATOM     19  C   UNL     1       2.335   4.355  20.817  0.00  0.00    +0.000 C 
ATOM     20  C   UNL     1       1.481   3.086  20.919  0.00  0.00    +0.000 C 
ATOM     21  C   UNL     1       0.605   2.952  19.673  0.00  0.00    +0.000 C 
ATOM     22  C   UNL     1       1.488   2.938  18.424  0.00  0.00    +0.000 C 
ATOM     23  C   UNL     1       2.348   4.204  18.387  0.00  0.00    +0.000 C 
ENDBRANCH  17  18
ENDBRANCH  16  17
ENDBRANCH   1  16
TORSDOF 3
ENDMDL
MODEL 6
REMARK VINA RESULT:      -7.5      2.560      4.222
REMARK  Name = 
REMARK  3 active torsions:
REMARK  status: ('A' for Active; 'I' for Inactive)
REMARK    1  A    between atoms: C_2  and  C_3
REMARK    2  A    between atoms: C_2  and  C_10
REMARK    3  A    between atoms: C_3  and  N_4
REMARK                            x       y       z     vdW  Elec       q    Type
REMARK                         _______ _______ _______ _____ _____    ______ ____
ROOT
ATOM      1  C   UNL     1       3.245   5.096  18.493  0.00  0.00    +0.000 A 
ATOM      2  C   UNL     1       2.897   4.652  19.786  0.00  0.00    +0.000 A 
ATOM      3  C   UNL     1       2.238   5.508  20.677  0.00  0.00    +0.000 A 
ATOM      4  C   UNL     1       1.906   6.816  20.301  0.00  0.00    +0.000 A 
ATOM      5  C   UNL     1       2.256   7.266  19.017  0.00  0.00    +0.000 A 
ATOM      6  C   UNL     1       2.919   6.413  18.137  0.00  0.00    +0.000 A 
ATOM      7  S   UNL     1       1.903   8.908  18.406  0.00  0.00    +0.000 S 
ATOM      8  C   UNL     1       0.915   9.523  19.760  0.00  0.00    +0.000 A 
ATOM      9  C   UNL     1       0.325  10.778  19.582  0.00  0.00    +0.000 A 
ATOM     10  C   UNL     1      -0.444  11.349  20.590  0.00  0.00    +0.000 A 
ATOM     11  C   UNL     1      -0.627  10.669  21.796  0.00  0.00    +0.000 A 
ATOM     12  C   UNL     1      -0.046   9.412  21.985  0.00  0.00    +0.000 A 
ATOM     13  C   UNL     1       0.725   8.823  20.969  0.00  0.00    +0.000 A 
ATOM     14  O   UNL     1       1.245   7.592  21.190  0.00  0.00    +0.000 OA
ENDROOT
BRANCH   1  16
ATOM     15  O   UNL     1       3.860   3.023  17.573  0.00  0.00    +0.000 OA
ATOM     16  C   UNL     1       3.934   4.238  17.476  0.00  0.00    +0.000 C 
BRANCH  16  17
ATOM     17  C   UNL     1       4.754   4.786  16.333  0.00  0.00    +0.000 C 
BRANCH  17  18
ATOM     18  N   UNL     1       6.066   5.275  16.795  0.00  0.00    +0.000 NA
ATOM     19  C   UNL     1       6.092   6.750  16.934  0.00  0.00    +0.000 C 
ATOM     20  C   UNL     1       7.489   7.214  17.363  0.00  0.00    +0.000 C 
ATOM     21  C   UNL     1       7.864   6.558  18.692  0.00  0.00    +0.000 C 
ATOM     22  C   UNL     1       7.794   5.037  18.551  0.00  0.00    +0.000 C 
ATOM     23  C   UNL     1       6.395   4.626  18.083  0.00  0.00    +0.000 C 
ENDBRANCH  17  18
ENDBRANCH  16  17
ENDBRANCH   1  16
TORSDOF 3
ENDMDL
MODEL 7
REMARK VINA RESULT:      -7.4      2.008      2.772
REMARK  Name = 
REMARK  3 active torsions:
REMARK  status: ('A' for Active; 'I' for Inactive)
REMARK    1  A    between atoms: C_2  and  C_3
REMARK    2  A    between atoms: C_2  and  C_10
REMARK    3  A    between atoms: C_3  and  N_4
REMARK                            x       y       z     vdW  Elec       q    Type
REMARK                         _______ _______ _______ _____ _____    ______ ____
ROOT
ATOM      1  C   UNL     1       2.497   7.294  18.987  0.00  0.00    +0.000 A 
ATOM      2  C   UNL     1       2.387   8.250  17.955  0.00  0.00    +0.000 A 
ATOM      3  C   UNL     1       1.636   9.416  18.144  0.00  0.00    +0.000 A 
ATOM      4  C   UNL     1       0.986   9.660  19.361  0.00  0.00    +0.000 A 
ATOM      5  C   UNL     1       1.087   8.709  20.390  0.00  0.00    +0.000 A 
ATOM      6  C   UNL     1       1.828   7.546  20.194  0.00  0.00    +0.000 A 
ATOM      7  S   UNL     1       0.306   8.884  21.989  0.00  0.00    +0.000 S 
ATOM      8  C   UNL     1      -0.327  10.547  21.830  0.00  0.00    +0.000 A 
ATOM      9  C   UNL     1      -0.908  11.104  22.973  0.00  0.00    +0.000 A 
ATOM     10  C   UNL     1      -1.450  12.385  22.939  0.00  0.00    +0.000 A 
ATOM     11  C   UNL     1      -1.419  13.123  21.754  0.00  0.00    +0.000 A 
ATOM     12  C   UNL     1      -0.837  12.579  20.606  0.00  0.00    +0.000 A 
ATOM     13  C   UNL     1      -0.279  11.289  20.632  0.00  0.00    +0.000 A 
ATOM     14  O   UNL     1       0.297  10.816  19.501  0.00  0.00    +0.000 OA
ENDROOT
BRANCH   1  16
ATOM     15  O   UNL     1       3.945   5.646  19.829  0.00  0.00    +0.000 OA
ATOM     16  C   UNL     1       3.294   6.031  18.870  0.00  0.00    +0.000 C 
BRANCH  16  17
ATOM     17  C   UNL     1       3.373   5.202  17.611  0.00  0.00    +0.000 C 
BRANCH  17  18
ATOM     18  N   UNL     1       4.771   4.960  17.209  0.00  0.00    +0.000 NA
ATOM     19  C   UNL     1       4.862   4.079  16.020  0.00  0.00    +0.000 C 
ATOM     20  C   UNL     1       6.332   3.814  15.674  0.00  0.00    +0.000 C 
ATOM     21  C   UNL     1       7.044   5.139  15.398  0.00  0.00    +0.000 C 
ATOM     22  C   UNL     1       6.909   6.056  16.614  0.00  0.00    +0.000 C 
ATOM     23  C   UNL     1       5.427   6.259  16.945  0.00  0.00    +0.000 C 
ENDBRANCH  17  18
ENDBRANCH  16  17
ENDBRANCH   1  16
TORSDOF 3
ENDMDL
MODEL 8
REMARK VINA RESULT:      -7.4      2.372      3.993
REMARK  Name = 
REMARK  3 active torsions:
REMARK  status: ('A' for Active; 'I' for Inactive)
REMARK    1  A    between atoms: C_2  and  C_3
REMARK    2  A    between atoms: C_2  and  C_10
REMARK    3  A    between atoms: C_3  and  N_4
REMARK                            x       y       z     vdW  Elec       q    Type
REMARK                         _______ _______ _______ _____ _____    ______ ____
ROOT
ATOM      1  C   UNL     1       2.947   5.318  18.866  0.00  0.00    +0.000 A 
ATOM      2  C   UNL     1       2.462   5.141  20.179  0.00  0.00    +0.000 A 
ATOM      3  C   UNL     1       1.840   6.198  20.855  0.00  0.00    +0.000 A 
ATOM      4  C   UNL     1       1.680   7.446  20.241  0.00  0.00    +0.000 A 
ATOM      5  C   UNL     1       2.167   7.631  18.936  0.00  0.00    +0.000 A 
ATOM      6  C   UNL     1       2.794   6.579  18.271  0.00  0.00    +0.000 A 
ATOM      7  S   UNL     1       2.040   9.169  18.033  0.00  0.00    +0.000 S 
ATOM      8  C   UNL     1       1.032  10.101  19.175  0.00  0.00    +0.000 A 
ATOM      9  C   UNL     1       0.596  11.357  18.740  0.00  0.00    +0.000 A 
ATOM     10  C   UNL     1      -0.174  12.165  19.569  0.00  0.00    +0.000 A 
ATOM     11  C   UNL     1      -0.515  11.725  20.850  0.00  0.00    +0.000 A 
ATOM     12  C   UNL     1      -0.090  10.470  21.294  0.00  0.00    +0.000 A 
ATOM     13  C   UNL     1       0.681   9.643  20.461  0.00  0.00    +0.000 A 
ATOM     14  O   UNL     1       1.047   8.424  20.928  0.00  0.00    +0.000 OA
ENDROOT
BRANCH   1  16
ATOM     15  O   UNL     1       3.067   3.828  17.053  0.00  0.00    +0.000 OA
ATOM     16  C   UNL     1       3.608   4.235  18.070  0.00  0.00    +0.000 C 
BRANCH  16  17
ATOM     17  C   UNL     1       4.909   3.579  18.464  0.00  0.00    +0.000 C 
BRANCH  17  18
ATOM     18  N   UNL     1       6.070   4.400  18.069  0.00  0.00    +0.000 NA
ATOM     19  C   UNL     1       5.841   5.105  16.785  0.00  0.00    +0.000 C 
ATOM     20  C   UNL     1       7.091   5.899  16.392  0.00  0.00    +0.000 C 
ATOM     21  C   UNL     1       7.426   6.910  17.489  0.00  0.00    +0.000 C 
ATOM     22  C   UNL     1       7.620   6.178  18.818  0.00  0.00    +0.000 C 
ATOM     23  C   UNL     1       6.363   5.368  19.149  0.00  0.00    +0.000 C 
ENDBRANCH  17  18
ENDBRANCH  16  17
ENDBRANCH   1  16
TORSDOF 3
ENDMDL
MODEL 9
REMARK VINA RESULT:      -7.4      1.538      2.351
REMARK  Name = 
REMARK  3 active torsions:
REMARK  status: ('A' for Active; 'I' for Inactive)
REMARK    1  A    between atoms: C_2  and  C_3
REMARK    2  A    between atoms: C_2  and  C_10
REMARK    3  A    between atoms: C_3  and  N_4
REMARK                            x       y       z     vdW  Elec       q    Type
REMARK                         _______ _______ _______ _____ _____    ______ ____
ROOT
ATOM      1  C   UNL     1       3.981   5.853  18.623  0.00  0.00    +0.000 A 
ATOM      2  C   UNL     1       4.035   6.631  17.448  0.00  0.00    +0.000 A 
ATOM      3  C   UNL     1       3.241   7.777  17.317  0.00  0.00    +0.000 A 
ATOM      4  C   UNL     1       2.384   8.176  18.350  0.00  0.00    +0.000 A 
ATOM      5  C   UNL     1       2.321   7.402  19.521  0.00  0.00    +0.000 A 
ATOM      6  C   UNL     1       3.107   6.258  19.643  0.00  0.00    +0.000 A 
ATOM      7  S   UNL     1       1.269   7.786  20.915  0.00  0.00    +0.000 S 
ATOM      8  C   UNL     1       0.643   9.373  20.386  0.00  0.00    +0.000 A 
ATOM      9  C   UNL     1      -0.140  10.074  21.309  0.00  0.00    +0.000 A 
ATOM     10  C   UNL     1      -0.691  11.307  20.978  0.00  0.00    +0.000 A 
ATOM     11  C   UNL     1      -0.467  11.853  19.712  0.00  0.00    +0.000 A 
ATOM     12  C   UNL     1       0.317  11.165  18.782  0.00  0.00    +0.000 A 
ATOM     13  C   UNL     1       0.885   9.922  19.110  0.00  0.00    +0.000 A 
ATOM     14  O   UNL     1       1.660   9.306  18.184  0.00  0.00    +0.000 OA
ENDROOT
BRANCH   1  16
ATOM     15  O   UNL     1       5.861   4.720  19.463  0.00  0.00    +0.000 OA
ATOM     16  C   UNL     1       4.810   4.626  18.848  0.00  0.00    +0.000 C 
BRANCH  16  17
ATOM     17  C   UNL     1       4.441   3.257  18.328  0.00  0.00    +0.000 C 
BRANCH  17  18
ATOM     18  N   UNL     1       3.249   2.722  19.013  0.00  0.00    +0.000 NA
ATOM     19  C   UNL     1       3.204   3.119  20.440  0.00  0.00    +0.000 C 
ATOM     20  C   UNL     1       1.979   2.497  21.121  0.00  0.00    +0.000 C 
ATOM     21  C   UNL     1       0.705   2.957  20.410  0.00  0.00    +0.000 C 
ATOM     22  C   UNL     1       0.779   2.580  18.930  0.00  0.00    +0.000 C 
ATOM     23  C   UNL     1       2.037   3.190  18.305  0.00  0.00    +0.000 C 
ENDBRANCH  17  18
ENDBRANCH  16  17
ENDBRANCH   1  16
TORSDOF 3
ENDMDL
