MODEL 1
REMARK VINA RESULT:      -8.5      0.000      0.000
REMARK  Name = 
REMARK  5 active torsions:
REMARK  status: ('A' for Active; 'I' for Inactive)
REMARK    1  A    between atoms: C_2  and  O_3
REMARK    2  A    between atoms: C_2  and  C_4
REMARK    3  A    between atoms: C_4  and  N_5
REMARK    4  A    between atoms: N_8  and  C_9
REMARK    5  A    between atoms: C_9  and  C_10
REMARK                            x       y       z     vdW  Elec       q    Type
REMARK                         _______ _______ _______ _____ _____    ______ ____
ROOT
ATOM      1  N   UNL     1       6.461   6.561  17.220  0.00  0.00    +0.000 N 
ATOM      2  N   UNL     1       5.465   6.673  18.168  0.00  0.00    +0.000 NA
ATOM      3  C   UNL     1       4.572   5.738  18.236  0.00  0.00    +0.000 A 
ATOM      4  N   UNL     1       3.473   5.649  19.076  0.00  0.00    +0.000 N 
ATOM      5  C   UNL     1       2.821   4.450  18.802  0.00  0.00    +0.000 A 
ATOM      6  C   UNL     1       1.705   3.871  19.371  0.00  0.00    +0.000 A 
ATOM      7  C   UNL     1       1.286   2.629  18.878  0.00  0.00    +0.000 A 
ATOM      8  C   UNL     1       1.978   1.989  17.834  0.00  0.00    +0.000 A 
ATOM      9  C   UNL     1       3.111   2.571  17.263  0.00  0.00    +0.000 A 
ATOM     10  C   UNL     1       3.509   3.794  17.764  0.00  0.00    +0.000 A 
ATOM     11  N   UNL     1       4.601   4.613  17.416  0.00  0.00    +0.000 N 
ATOM     12  C   UNL     1       5.551   4.368  16.463  0.00  0.00    +0.000 A 
ATOM     13  O   UNL     1       5.626   3.381  15.743  0.00  0.00    +0.000 OA
ATOM     14  C   UNL     1       6.600   5.478  16.348  0.00  0.00    +0.000 A 
ATOM     15  O   UNL     1       7.513   5.378  15.536  0.00  0.00    +0.000 OA
ENDROOT
BRANCH   1  16
ATOM     16  C   UNL     1       7.346   7.719  17.048  0.00  0.00    +0.000 C 
BRANCH  16  18
ATOM     17  O   UNL     1       8.619   9.147  18.527  0.00  0.00    +0.000 OA
ATOM     18  C   UNL     1       8.203   8.027  18.267  0.00  0.00    +0.000 C 
BRANCH  18  19
ATOM     19  O   UNL     1       8.439   6.972  19.083  0.00  0.00    +0.000 OA
ATOM     20  H   UNL     1       7.859   6.218  18.862  0.00  0.00    +0.000 HD
ENDBRANCH  18  19
ENDBRANCH  16  18
ENDBRANCH   1  16
BRANCH   4  21
ATOM     21  C   UNL     1       3.055   6.592  20.090  0.00  0.00    +0.000 C 
BRANCH  21  22
ATOM     22  C   UNL     1       2.153   7.681  19.552  0.00  0.00    +0.000 A 
ATOM     23  C   UNL     1       2.191   8.056  18.200  0.00  0.00    +0.000 A 
ATOM     24  C   UNL     1       1.461   9.163  17.754  0.00  0.00    +0.000 A 
ATOM     25  C   UNL     1       0.692   9.891  18.653  0.00  0.00    +0.000 A 
ATOM     26  F   UNL     1       0.037  10.980  18.230  0.00  0.00    +0.000 F 
ATOM     27  C   UNL     1       0.608   9.517  19.986  0.00  0.00    +0.000 A 
ATOM     28  C   UNL     1       1.334   8.414  20.423  0.00  0.00    +0.000 A 
ATOM     29  F   UNL     1       1.263   8.072  21.716  0.00  0.00    +0.000 F 
ENDBRANCH  21  22
ENDBRANCH   4  21
TORSDOF 5
ENDMDL
MODEL 2
REMARK VINA RESULT:      -7.5      0.946      1.005
REMARK  Name = 
REMARK  5 active torsions:
REMARK  status: ('A' for Active; 'I' for Inactive)
REMARK    1  A    between atoms: C_2  and  O_3
REMARK    2  A    between atoms: C_2  and  C_4
REMARK    3  A    between atoms: C_4  and  N_5
REMARK    4  A    between atoms: N_8  and  C_9
REMARK    5  A    between atoms: C_9  and  C_10
REMARK                            x       y       z     vdW  Elec       q    Type
REMARK                         _______ _______ _______ _____ _____    ______ ____
ROOT
ATOM      1  N   UNL     1       6.717   5.736  18.241  0.00  0.00    +0.000 N 
ATOM      2  N   UNL     1       5.599   6.011  19.002  0.00  0.00    +0.000 NA
ATOM      3  C   UNL     1       4.561   5.249  18.870  0.00  0.00    +0.000 A 
ATOM      4  N   UNL     1       3.329   5.346  19.497  0.00  0.00    +0.000 N 
ATOM      5  C   UNL     1       2.541   4.286  19.060  0.00  0.00    +0.000 A 
ATOM      6  C   UNL     1       1.257   3.908  19.395  0.00  0.00    +0.000 A 
ATOM      7  C   UNL     1       0.726   2.767  18.781  0.00  0.00    +0.000 A 
ATOM      8  C   UNL     1       1.476   2.026  17.849  0.00  0.00    +0.000 A 
ATOM      9  C   UNL     1       2.777   2.405  17.513  0.00  0.00    +0.000 A 
ATOM     10  C   UNL     1       3.282   3.532  18.130  0.00  0.00    +0.000 A 
ATOM     11  N   UNL     1       4.544   4.147  18.018  0.00  0.00    +0.000 N 
ATOM     12  C   UNL     1       5.594   3.749  17.237  0.00  0.00    +0.000 A 
ATOM     13  O   UNL     1       5.627   2.774  16.498  0.00  0.00    +0.000 OA
ATOM     14  C   UNL     1       6.822   4.656  17.359  0.00  0.00    +0.000 A 
ATOM     15  O   UNL     1       7.836   4.406  16.717  0.00  0.00    +0.000 OA
ENDROOT
BRANCH   1  16
ATOM     16  C   UNL     1       7.804   6.720  18.280  0.00  0.00    +0.000 C 
BRANCH  16  18
ATOM     17  O   UNL     1       8.072   9.074  17.800  0.00  0.00    +0.000 OA
ATOM     18  C   UNL     1       7.476   8.030  17.579  0.00  0.00    +0.000 C 
BRANCH  18  19
ATOM     19  O   UNL     1       6.498   7.952  16.645  0.00  0.00    +0.000 OA
ATOM     20  H   UNL     1       5.866   7.238  16.856  0.00  0.00    +0.000 HD
ENDBRANCH  18  19
ENDBRANCH  16  18
ENDBRANCH   1  16
BRANCH   4  21
ATOM     21  C   UNL     1       2.904   6.335  20.463  0.00  0.00    +0.000 C 
BRANCH  21  22
ATOM     22  C   UNL     1       2.145   7.486  19.839  0.00  0.00    +0.000 A 
ATOM     23  C   UNL     1       2.276   7.790  18.475  0.00  0.00    +0.000 A 
ATOM     24  C   UNL     1       1.688   8.945  17.950  0.00  0.00    +0.000 A 
ATOM     25  C   UNL     1       0.964   9.791  18.781  0.00  0.00    +0.000 A 
ATOM     26  F   UNL     1       0.447  10.921  18.283  0.00  0.00    +0.000 F 
ATOM     27  C   UNL     1       0.788   9.491  20.124  0.00  0.00    +0.000 A 
ATOM     28  C   UNL     1       1.375   8.340  20.640  0.00  0.00    +0.000 A 
ATOM     29  F   UNL     1       1.215   8.070  21.942  0.00  0.00    +0.000 F 
ENDBRANCH  21  22
ENDBRANCH   4  21
TORSDOF 5
ENDMDL
MODEL 3
REMARK VINA RESULT:      -7.5      7.660     10.929
REMARK  Name = 
REMARK  5 active torsions:
REMARK  status: ('A' for Active; 'I' for Inactive)
REMARK    1  A    between atoms: C_2  and  O_3
REMARK    2  A    between atoms: C_2  and  C_4
REMARK    3  A    between atoms: C_4  and  N_5
REMARK    4  A    between atoms: N_8  and  C_9
REMARK    5  A    between atoms: C_9  and  C_10
REMARK                            x       y       z     vdW  Elec       q    Type
REMARK                         _______ _______ _______ _____ _____    ______ ____
ROOT
ATOM      1  N   UNL     1      -4.607  11.669  18.028  0.00  0.00    +0.000 N 
ATOM      2  N   UNL     1      -3.498  11.909  18.813  0.00  0.00    +0.000 NA
ATOM      3  C   UNL     1      -3.682  12.280  20.040  0.00  0.00    +0.000 A 
ATOM      4  N   UNL     1      -2.734  12.604  20.999  0.00  0.00    +0.000 N 
ATOM      5  C   UNL     1      -3.405  12.913  22.178  0.00  0.00    +0.000 A 
ATOM      6  C   UNL     1      -2.936  13.266  23.426  0.00  0.00    +0.000 A 
ATOM      7  C   UNL     1      -3.875  13.512  24.436  0.00  0.00    +0.000 A 
ATOM      8  C   UNL     1      -5.255  13.406  24.188  0.00  0.00    +0.000 A 
ATOM      9  C   UNL     1      -5.730  13.043  22.926  0.00  0.00    +0.000 A 
ATOM     10  C   UNL     1      -4.790  12.803  21.946  0.00  0.00    +0.000 A 
ATOM     11  N   UNL     1      -4.949  12.410  20.603  0.00  0.00    +0.000 N 
ATOM     12  C   UNL     1      -6.123  12.169  19.943  0.00  0.00    +0.000 A 
ATOM     13  O   UNL     1      -7.252  12.245  20.408  0.00  0.00    +0.000 OA
ATOM     14  C   UNL     1      -5.927  11.757  18.481  0.00  0.00    +0.000 A 
ATOM     15  O   UNL     1      -6.899  11.505  17.778  0.00  0.00    +0.000 OA
ENDROOT
BRANCH   1  16
ATOM     16  C   UNL     1      -4.368  11.429  16.600  0.00  0.00    +0.000 C 
BRANCH  16  18
ATOM     17  O   UNL     1      -2.738   9.778  15.921  0.00  0.00    +0.000 OA
ATOM     18  C   UNL     1      -2.969  10.922  16.285  0.00  0.00    +0.000 C 
BRANCH  18  19
ATOM     19  O   UNL     1      -1.986  11.848  16.388  0.00  0.00    +0.000 OA
ATOM     20  H   UNL     1      -2.278  12.713  16.040  0.00  0.00    +0.000 HD
ENDBRANCH  18  19
ENDBRANCH  16  18
ENDBRANCH   1  16
BRANCH   4  21
ATOM     21  C   UNL     1      -1.295  12.605  20.855  0.00  0.00    +0.000 C 
BRANCH  21  22
ATOM     22  C   UNL     1      -0.676  11.241  21.072  0.00  0.00    +0.000 A 
ATOM     23  C   UNL     1      -0.541  10.699  22.360  0.00  0.00    +0.000 A 
ATOM     24  C   UNL     1       0.167   9.509  22.554  0.00  0.00    +0.000 A 
ATOM     25  C   UNL     1       0.735   8.857  21.466  0.00  0.00    +0.000 A 
ATOM     26  F   UNL     1       1.455   7.746  21.665  0.00  0.00    +0.000 F 
ATOM     27  C   UNL     1       0.582   9.352  20.179  0.00  0.00    +0.000 A 
ATOM     28  C   UNL     1      -0.125  10.536  19.993  0.00  0.00    +0.000 A 
ATOM     29  F   UNL     1      -0.251  11.017  18.749  0.00  0.00    +0.000 F 
ENDBRANCH  21  22
ENDBRANCH   4  21
TORSDOF 5
ENDMDL
MODEL 4
REMARK VINA RESULT:      -7.2      1.734      2.277
REMARK  Name = 
REMARK  5 active torsions:
REMARK  status: ('A' for Active; 'I' for Inactive)
REMARK    1  A    between atoms: C_2  and  O_3
REMARK    2  A    between atoms: C_2  and  C_4
REMARK    3  A    between atoms: C_4  and  N_5
REMARK    4  A    between atoms: N_8  and  C_9
REMARK    5  A    between atoms: C_9  and  C_10
REMARK                            x       y       z     vdW  Elec       q    Type
REMARK                         _______ _______ _______ _____ _____    ______ ____
ROOT
ATOM      1  N   UNL     1       6.242   6.236  17.898  0.00  0.00    +0.000 N 
ATOM      2  N   UNL     1       4.933   6.673  17.935  0.00  0.00    +0.000 NA
ATOM      3  C   UNL     1       4.043   5.906  18.479  0.00  0.00    +0.000 A 
ATOM      4  N   UNL     1       2.679   6.115  18.604  0.00  0.00    +0.000 N 
ATOM      5  C   UNL     1       2.139   5.029  19.286  0.00  0.00    +0.000 A 
ATOM      6  C   UNL     1       0.848   4.759  19.692  0.00  0.00    +0.000 A 
ATOM      7  C   UNL     1       0.613   3.563  20.381  0.00  0.00    +0.000 A 
ATOM      8  C   UNL     1       1.657   2.660  20.651  0.00  0.00    +0.000 A 
ATOM      9  C   UNL     1       2.964   2.935  20.246  0.00  0.00    +0.000 A 
ATOM     10  C   UNL     1       3.176   4.120  19.570  0.00  0.00    +0.000 A 
ATOM     11  N   UNL     1       4.362   4.679  19.056  0.00  0.00    +0.000 N 
ATOM     12  C   UNL     1       5.622   4.150  19.115  0.00  0.00    +0.000 A 
ATOM     13  O   UNL     1       5.946   3.091  19.635  0.00  0.00    +0.000 OA
ATOM     14  C   UNL     1       6.685   5.030  18.450  0.00  0.00    +0.000 A 
ATOM     15  O   UNL     1       7.858   4.674  18.440  0.00  0.00    +0.000 OA
ENDROOT
BRANCH   1  16
ATOM     16  C   UNL     1       7.188   7.041  17.118  0.00  0.00    +0.000 C 
BRANCH  16  18
ATOM     17  O   UNL     1       7.850   9.291  17.707  0.00  0.00    +0.000 OA
ATOM     18  C   UNL     1       7.924   8.092  17.935  0.00  0.00    +0.000 C 
BRANCH  18  19
ATOM     19  O   UNL     1       8.641   7.609  18.979  0.00  0.00    +0.000 OA
ATOM     20  H   UNL     1       8.056   7.224  19.660  0.00  0.00    +0.000 HD
ENDBRANCH  18  19
ENDBRANCH  16  18
ENDBRANCH   1  16
BRANCH   4  21
ATOM     21  C   UNL     1       1.913   7.256  18.150  0.00  0.00    +0.000 C 
BRANCH  21  22
ATOM     22  C   UNL     1       1.623   8.252  19.252  0.00  0.00    +0.000 A 
ATOM     23  C   UNL     1       1.675   7.878  20.604  0.00  0.00    +0.000 A 
ATOM     24  C   UNL     1       1.258   8.768  21.599  0.00  0.00    +0.000 A 
ATOM     25  C   UNL     1       0.795  10.030  21.247  0.00  0.00    +0.000 A 
ATOM     26  F   UNL     1       0.350  10.859  22.199  0.00  0.00    +0.000 F 
ATOM     27  C   UNL     1       0.772  10.437  19.920  0.00  0.00    +0.000 A 
ATOM     28  C   UNL     1       1.190   9.547  18.936  0.00  0.00    +0.000 A 
ATOM     29  F   UNL     1       1.145   9.941  17.657  0.00  0.00    +0.000 F 
ENDBRANCH  21  22
ENDBRANCH   4  21
TORSDOF 5
ENDMDL
MODEL 5
REMARK VINA RESULT:      -7.2      7.231     10.410
REMARK  Name = 
REMARK  5 active torsions:
REMARK  status: ('A' for Active; 'I' for Inactive)
REMARK    1  A    between atoms: C_2  and  O_3
REMARK    2  A    between atoms: C_2  and  C_4
REMARK    3  A    between atoms: C_4  and  N_5
REMARK    4  A    between atoms: N_8  and  C_9
REMARK    5  A    between atoms: C_9  and  C_10
REMARK                            x       y       z     vdW  Elec       q    Type
REMARK                         _______ _______ _______ _____ _____    ______ ____
ROOT
ATOM      1  N   UNL     1      -3.481  11.724  17.943  0.00  0.00    +0.000 N 
ATOM      2  N   UNL     1      -2.550  11.954  18.935  0.00  0.00    +0.000 NA
ATOM      3  C   UNL     1      -2.974  12.299  20.109  0.00  0.00    +0.000 A 
ATOM      4  N   UNL     1      -2.235  12.608  21.241  0.00  0.00    +0.000 N 
ATOM      5  C   UNL     1      -3.128  12.891  22.271  0.00  0.00    +0.000 A 
ATOM      6  C   UNL     1      -2.915  13.221  23.594  0.00  0.00    +0.000 A 
ATOM      7  C   UNL     1      -4.036  13.443  24.403  0.00  0.00    +0.000 A 
ATOM      8  C   UNL     1      -5.340  13.336  23.887  0.00  0.00    +0.000 A 
ATOM      9  C   UNL     1      -5.555  12.996  22.550  0.00  0.00    +0.000 A 
ATOM     10  C   UNL     1      -4.438  12.779  21.769  0.00  0.00    +0.000 A 
ATOM     11  N   UNL     1      -4.328  12.413  20.414  0.00  0.00    +0.000 N 
ATOM     12  C   UNL     1      -5.347  12.180  19.532  0.00  0.00    +0.000 A 
ATOM     13  O   UNL     1      -6.546  12.243  19.768  0.00  0.00    +0.000 OA
ATOM     14  C   UNL     1      -4.865  11.798  18.129  0.00  0.00    +0.000 A 
ATOM     15  O   UNL     1      -5.679  11.556  17.245  0.00  0.00    +0.000 OA
ENDROOT
BRANCH   1  16
ATOM     16  C   UNL     1      -2.965  11.514  16.586  0.00  0.00    +0.000 C 
BRANCH  16  18
ATOM     17  O   UNL     1      -2.789   9.339  15.545  0.00  0.00    +0.000 OA
ATOM     18  C   UNL     1      -2.356  10.138  16.363  0.00  0.00    +0.000 C 
BRANCH  18  19
ATOM     19  O   UNL     1      -1.257   9.869  17.108  0.00  0.00    +0.000 OA
ATOM     20  H   UNL     1      -0.962  10.660  17.599  0.00  0.00    +0.000 HD
ENDBRANCH  18  19
ENDBRANCH  16  18
ENDBRANCH   1  16
BRANCH   4  21
ATOM     21  C   UNL     1      -0.796  12.618  21.382  0.00  0.00    +0.000 C 
BRANCH  21  22
ATOM     22  C   UNL     1      -0.186  11.233  21.341  0.00  0.00    +0.000 A 
ATOM     23  C   UNL     1       0.478  10.764  20.197  0.00  0.00    +0.000 A 
ATOM     24  C   UNL     1       0.901   9.433  20.123  0.00  0.00    +0.000 A 
ATOM     25  C   UNL     1       0.669   8.574  21.190  0.00  0.00    +0.000 A 
ATOM     26  F   UNL     1       1.031   7.288  21.093  0.00  0.00    +0.000 F 
ATOM     27  C   UNL     1       0.050   9.025  22.347  0.00  0.00    +0.000 A 
ATOM     28  C   UNL     1      -0.367  10.350  22.415  0.00  0.00    +0.000 A 
ATOM     29  F   UNL     1      -0.982  10.771  23.528  0.00  0.00    +0.000 F 
ENDBRANCH  21  22
ENDBRANCH   4  21
TORSDOF 5
ENDMDL
MODEL 6
REMARK VINA RESULT:      -7.2      7.761     10.663
REMARK  Name = 
REMARK  5 active torsions:
REMARK  status: ('A' for Active; 'I' for Inactive)
REMARK    1  A    between atoms: C_2  and  O_3
REMARK    2  A    between atoms: C_2  and  C_4
REMARK    3  A    between atoms: C_4  and  N_5
REMARK    4  A    between atoms: N_8  and  C_9
REMARK    5  A    between atoms: C_9  and  C_10
REMARK                            x       y       z     vdW  Elec       q    Type
REMARK                         _______ _______ _______ _____ _____    ______ ____
ROOT
ATOM      1  N   UNL     1      -4.557  13.205  21.648  0.00  0.00    +0.000 N 
ATOM      2  N   UNL     1      -3.322  12.877  21.127  0.00  0.00    +0.000 NA
ATOM      3  C   UNL     1      -3.274  12.329  19.955  0.00  0.00    +0.000 A 
ATOM      4  N   UNL     1      -2.165  11.890  19.248  0.00  0.00    +0.000 N 
ATOM      5  C   UNL     1      -2.606  11.399  18.023  0.00  0.00    +0.000 A 
ATOM      6  C   UNL     1      -1.913  10.879  16.949  0.00  0.00    +0.000 A 
ATOM      7  C   UNL     1      -2.647  10.469  15.829  0.00  0.00    +0.000 A 
ATOM      8  C   UNL     1      -4.049  10.581  15.796  0.00  0.00    +0.000 A 
ATOM      9  C   UNL     1      -4.750  11.113  16.880  0.00  0.00    +0.000 A 
ATOM     10  C   UNL     1      -4.008  11.513  17.974  0.00  0.00    +0.000 A 
ATOM     11  N   UNL     1      -4.414  12.092  19.191  0.00  0.00    +0.000 N 
ATOM     12  C   UNL     1      -5.689  12.401  19.578  0.00  0.00    +0.000 A 
ATOM     13  O   UNL     1      -6.711  12.235  18.926  0.00  0.00    +0.000 OA
ATOM     14  C   UNL     1      -5.769  13.024  20.975  0.00  0.00    +0.000 A 
ATOM     15  O   UNL     1      -6.854  13.355  21.439  0.00  0.00    +0.000 OA
ENDROOT
BRANCH   1  16
ATOM     16  C   UNL     1      -4.589  13.654  23.045  0.00  0.00    +0.000 C 
BRANCH  16  18
ATOM     17  O   UNL     1      -4.732  11.981  24.785  0.00  0.00    +0.000 OA
ATOM     18  C   UNL     1      -4.029  12.640  24.032  0.00  0.00    +0.000 C 
BRANCH  18  19
ATOM     19  O   UNL     1      -2.685  12.477  23.986  0.00  0.00    +0.000 OA
ATOM     20  H   UNL     1      -2.262  12.810  24.801  0.00  0.00    +0.000 HD
ENDBRANCH  18  19
ENDBRANCH  16  18
ENDBRANCH   1  16
BRANCH   4  21
ATOM     21  C   UNL     1      -0.779  11.940  19.657  0.00  0.00    +0.000 C 
BRANCH  21  22
ATOM     22  C   UNL     1      -0.246  10.599  20.111  0.00  0.00    +0.000 A 
ATOM     23  C   UNL     1      -0.603  10.056  21.356  0.00  0.00    +0.000 A 
ATOM     24  C   UNL     1       0.015   8.892  21.821  0.00  0.00    +0.000 A 
ATOM     25  C   UNL     1       0.984   8.266  21.046  0.00  0.00    +0.000 A 
ATOM     26  F   UNL     1       1.609   7.181  21.520  0.00  0.00    +0.000 F 
ATOM     27  C   UNL     1       1.326   8.761  19.796  0.00  0.00    +0.000 A 
ATOM     28  C   UNL     1       0.705   9.918  19.338  0.00  0.00    +0.000 A 
ATOM     29  F   UNL     1       1.057  10.400  18.138  0.00  0.00    +0.000 F 
ENDBRANCH  21  22
ENDBRANCH   4  21
TORSDOF 5
ENDMDL
MODEL 7
REMARK VINA RESULT:      -7.2      3.137      5.782
REMARK  Name = 
REMARK  5 active torsions:
REMARK  status: ('A' for Active; 'I' for Inactive)
REMARK    1  A    between atoms: C_2  and  O_3
REMARK    2  A    between atoms: C_2  and  C_4
REMARK    3  A    between atoms: C_4  and  N_5
REMARK    4  A    between atoms: N_8  and  C_9
REMARK    5  A    between atoms: C_9  and  C_10
REMARK                            x       y       z     vdW  Elec       q    Type
REMARK                         _______ _______ _______ _____ _____    ______ ____
ROOT
ATOM      1  N   UNL     1       5.767   3.581  12.932  0.00  0.00    +0.000 N 
ATOM      2  N   UNL     1       5.116   3.291  14.114  0.00  0.00    +0.000 NA
ATOM      3  C   UNL     1       5.556   3.827  15.207  0.00  0.00    +0.000 A 
ATOM      4  N   UNL     1       5.090   3.662  16.502  0.00  0.00    +0.000 N 
ATOM      5  C   UNL     1       5.861   4.462  17.340  0.00  0.00    +0.000 A 
ATOM      6  C   UNL     1       5.793   4.686  18.700  0.00  0.00    +0.000 A 
ATOM      7  C   UNL     1       6.719   5.569  19.267  0.00  0.00    +0.000 A 
ATOM      8  C   UNL     1       7.692   6.211  18.478  0.00  0.00    +0.000 A 
ATOM      9  C   UNL     1       7.757   5.989  17.102  0.00  0.00    +0.000 A 
ATOM     10  C   UNL     1       6.834   5.116  16.561  0.00  0.00    +0.000 A 
ATOM     11  N   UNL     1       6.635   4.707  15.228  0.00  0.00    +0.000 N 
ATOM     12  C   UNL     1       7.342   5.100  14.126  0.00  0.00    +0.000 A 
ATOM     13  O   UNL     1       8.276   5.890  14.100  0.00  0.00    +0.000 OA
ATOM     14  C   UNL     1       6.854   4.454  12.826  0.00  0.00    +0.000 A 
ATOM     15  O   UNL     1       7.398   4.727  11.762  0.00  0.00    +0.000 OA
ENDROOT
BRANCH   1  16
ATOM     16  C   UNL     1       5.359   2.819  11.746  0.00  0.00    +0.000 C 
BRANCH  16  18
ATOM     17  O   UNL     1       5.789   0.472  11.357  0.00  0.00    +0.000 OA
ATOM     18  C   UNL     1       6.232   1.607  11.460  0.00  0.00    +0.000 C 
BRANCH  18  19
ATOM     19  O   UNL     1       7.547   1.877  11.277  0.00  0.00    +0.000 OA
ATOM     20  H   UNL     1       7.792   1.816  10.334  0.00  0.00    +0.000 HD
ENDBRANCH  18  19
ENDBRANCH  16  18
ENDBRANCH   1  16
BRANCH   4  21
ATOM     21  C   UNL     1       3.985   2.841  16.947  0.00  0.00    +0.000 C 
BRANCH  21  22
ATOM     22  C   UNL     1       3.102   3.534  17.961  0.00  0.00    +0.000 A 
ATOM     23  C   UNL     1       2.512   4.777  17.685  0.00  0.00    +0.000 A 
ATOM     24  C   UNL     1       1.825   5.470  18.687  0.00  0.00    +0.000 A 
ATOM     25  C   UNL     1       1.721   4.922  19.960  0.00  0.00    +0.000 A 
ATOM     26  F   UNL     1       1.107   5.614  20.927  0.00  0.00    +0.000 F 
ATOM     27  C   UNL     1       2.262   3.678  20.246  0.00  0.00    +0.000 A 
ATOM     28  C   UNL     1       2.943   2.993  19.245  0.00  0.00    +0.000 A 
ATOM     29  F   UNL     1       3.480   1.800  19.536  0.00  0.00    +0.000 F 
ENDBRANCH  21  22
ENDBRANCH   4  21
TORSDOF 5
ENDMDL
MODEL 8
REMARK VINA RESULT:      -7.1      7.002      9.935
REMARK  Name = 
REMARK  5 active torsions:
REMARK  status: ('A' for Active; 'I' for Inactive)
REMARK    1  A    between atoms: C_2  and  O_3
REMARK    2  A    between atoms: C_2  and  C_4
REMARK    3  A    between atoms: C_4  and  N_5
REMARK    4  A    between atoms: N_8  and  C_9
REMARK    5  A    between atoms: C_9  and  C_10
REMARK                            x       y       z     vdW  Elec       q    Type
REMARK                         _______ _______ _______ _____ _____    ______ ____
ROOT
ATOM      1  N   UNL     1      -3.117  13.229  21.724  0.00  0.00    +0.000 N 
ATOM      2  N   UNL     1      -2.071  12.759  20.957  0.00  0.00    +0.000 NA
ATOM      3  C   UNL     1      -2.341  12.224  19.809  0.00  0.00    +0.000 A 
ATOM      4  N   UNL     1      -1.470  11.662  18.888  0.00  0.00    +0.000 N 
ATOM      5  C   UNL     1      -2.218  11.244  17.791  0.00  0.00    +0.000 A 
ATOM      6  C   UNL     1      -1.838  10.657  16.602  0.00  0.00    +0.000 A 
ATOM      7  C   UNL     1      -2.838  10.354  15.669  0.00  0.00    +0.000 A 
ATOM      8  C   UNL     1      -4.190  10.637  15.934  0.00  0.00    +0.000 A 
ATOM      9  C   UNL     1      -4.574  11.237  17.135  0.00  0.00    +0.000 A 
ATOM     10  C   UNL     1      -3.574  11.529  18.040  0.00  0.00    +0.000 A 
ATOM     11  N   UNL     1      -3.638  12.138  19.308  0.00  0.00    +0.000 N 
ATOM     12  C   UNL     1      -4.754  12.596  19.953  0.00  0.00    +0.000 A 
ATOM     13  O   UNL     1      -5.904  12.564  19.536  0.00  0.00    +0.000 OA
ATOM     14  C   UNL     1      -4.458  13.206  21.326  0.00  0.00    +0.000 A 
ATOM     15  O   UNL     1      -5.371  13.662  22.005  0.00  0.00    +0.000 OA
ENDROOT
BRANCH   1  16
ATOM     16  C   UNL     1      -2.797  13.660  23.089  0.00  0.00    +0.000 C 
BRANCH  16  18
ATOM     17  O   UNL     1      -0.660  14.580  23.749  0.00  0.00    +0.000 OA
ATOM     18  C   UNL     1      -1.313  13.599  23.423  0.00  0.00    +0.000 C 
BRANCH  18  19
ATOM     19  O   UNL     1      -0.767  12.360  23.382  0.00  0.00    +0.000 OA
ATOM     20  H   UNL     1       0.205  12.401  23.470  0.00  0.00    +0.000 HD
ENDBRANCH  18  19
ENDBRANCH  16  18
ENDBRANCH   1  16
BRANCH   4  21
ATOM     21  C   UNL     1      -0.033  11.536  18.992  0.00  0.00    +0.000 C 
BRANCH  21  22
ATOM     22  C   UNL     1       0.410  10.177  19.487  0.00  0.00    +0.000 A 
ATOM     23  C   UNL     1       0.060   9.717  20.766  0.00  0.00    +0.000 A 
ATOM     24  C   UNL     1       0.602   8.527  21.261  0.00  0.00    +0.000 A 
ATOM     25  C   UNL     1       1.487   7.793  20.480  0.00  0.00    +0.000 A 
ATOM     26  F   UNL     1       2.042   6.682  20.980  0.00  0.00    +0.000 F 
ATOM     27  C   UNL     1       1.817   8.206  19.198  0.00  0.00    +0.000 A 
ATOM     28  C   UNL     1       1.272   9.390  18.710  0.00  0.00    +0.000 A 
ATOM     29  F   UNL     1       1.613   9.791  17.479  0.00  0.00    +0.000 F 
ENDBRANCH  21  22
ENDBRANCH   4  21
TORSDOF 5
ENDMDL
MODEL 9
REMARK VINA RESULT:      -7.1      4.173      6.819
REMARK  Name = 
REMARK  5 active torsions:
REMARK  status: ('A' for Active; 'I' for Inactive)
REMARK    1  A    between atoms: C_2  and  O_3
REMARK    2  A    between atoms: C_2  and  C_4
REMARK    3  A    between atoms: C_4  and  N_5
REMARK    4  A    between atoms: N_8  and  C_9
REMARK    5  A    between atoms: C_9  and  C_10
REMARK                            x       y       z     vdW  Elec       q    Type
REMARK                         _______ _______ _______ _____ _____    ______ ____
ROOT
ATOM      1  N   UNL     1       3.599   2.569  20.974  0.00  0.00    +0.000 N 
ATOM      2  N   UNL     1       4.510   3.122  20.098  0.00  0.00    +0.000 NA
ATOM      3  C   UNL     1       4.195   4.224  19.496  0.00  0.00    +0.000 A 
ATOM      4  N   UNL     1       4.926   4.941  18.562  0.00  0.00    +0.000 N 
ATOM      5  C   UNL     1       4.192   6.073  18.221  0.00  0.00    +0.000 A 
ATOM      6  C   UNL     1       4.478   7.120  17.368  0.00  0.00    +0.000 A 
ATOM      7  C   UNL     1       3.526   8.139  17.236  0.00  0.00    +0.000 A 
ATOM      8  C   UNL     1       2.314   8.099  17.949  0.00  0.00    +0.000 A 
ATOM      9  C   UNL     1       2.028   7.044  18.817  0.00  0.00    +0.000 A 
ATOM     10  C   UNL     1       2.979   6.051  18.934  0.00  0.00    +0.000 A 
ATOM     11  N   UNL     1       2.991   4.886  19.725  0.00  0.00    +0.000 N 
ATOM     12  C   UNL     1       2.021   4.461  20.591  0.00  0.00    +0.000 A 
ATOM     13  O   UNL     1       0.965   5.027  20.840  0.00  0.00    +0.000 OA
ATOM     14  C   UNL     1       2.364   3.143  21.292  0.00  0.00    +0.000 A 
ATOM     15  O   UNL     1       1.582   2.656  22.101  0.00  0.00    +0.000 OA
ENDROOT
BRANCH   1  16
ATOM     16  C   UNL     1       3.909   1.234  21.498  0.00  0.00    +0.000 C 
BRANCH  16  18
ATOM     17  O   UNL     1       6.216   0.861  22.117  0.00  0.00    +0.000 OA
ATOM     18  C   UNL     1       5.347   0.796  21.260  0.00  0.00    +0.000 C 
BRANCH  18  19
ATOM     19  O   UNL     1       5.592   0.277  20.034  0.00  0.00    +0.000 OA
ATOM     20  H   UNL     1       6.516   0.440  19.760  0.00  0.00    +0.000 HD
ENDBRANCH  18  19
ENDBRANCH  16  18
ENDBRANCH   1  16
BRANCH   4  21
ATOM     21  C   UNL     1       6.234   4.625  18.030  0.00  0.00    +0.000 C 
BRANCH  21  22
ATOM     22  C   UNL     1       6.256   4.543  16.519  0.00  0.00    +0.000 A 
ATOM     23  C   UNL     1       5.524   3.562  15.832  0.00  0.00    +0.000 A 
ATOM     24  C   UNL     1       5.675   3.408  14.450  0.00  0.00    +0.000 A 
ATOM     25  C   UNL     1       6.549   4.233  13.754  0.00  0.00    +0.000 A 
ATOM     26  F   UNL     1       6.727   4.046  12.440  0.00  0.00    +0.000 F 
ATOM     27  C   UNL     1       7.253   5.236  14.405  0.00  0.00    +0.000 A 
ATOM     28  C   UNL     1       7.097   5.385  15.779  0.00  0.00    +0.000 A 
ATOM     29  F   UNL     1       7.797   6.343  16.402  0.00  0.00    +0.000 F 
ENDBRANCH  21  22
ENDBRANCH   4  21
TORSDOF 5
ENDMDL
