MODEL 1
REMARK VINA RESULT:      -6.4      0.000      0.000
REMARK  Name = 
REMARK  11 active torsions:
REMARK  status: ('A' for Active; 'I' for Inactive)
REMARK    1  A    between atoms: C_1  and  N_2
REMARK    2  A    between atoms: N_13  and  C_14
REMARK    3  A    between atoms: C_14  and  C_15
REMARK    4  A    between atoms: C_15  and  C_16
REMARK    5  A    between atoms: C_16  and  N_17
REMARK    6  A    between atoms: N_17  and  C_18
REMARK    7  A    between atoms: N_17  and  C_21
REMARK    8  A    between atoms: C_18  and  C_19
REMARK    9  A    between atoms: C_19  and  O_20
REMARK   10  A    between atoms: C_21  and  C_22
REMARK   11  A    between atoms: C_22  and  O_23
REMARK                            x       y       z     vdW  Elec       q    Type
REMARK                         _______ _______ _______ _____ _____    ______ ____
ROOT
ATOM      1  C   UNL     1       0.095   9.649  22.294  0.00  0.00    +0.000 C 
ATOM      2  N   UNL     1       0.413  10.209  20.999  0.00  0.00    +0.000 N 
ATOM      3  C   UNL     1       0.109  11.485  20.557  0.00  0.00    +0.000 A 
ATOM      4  C   UNL     1      -0.554  12.555  21.198  0.00  0.00    +0.000 A 
ATOM      5  C   UNL     1      -0.710  13.747  20.489  0.00  0.00    +0.000 A 
ATOM      6  C   UNL     1      -0.227  13.868  19.195  0.00  0.00    +0.000 A 
ATOM      7  F   UNL     1      -0.396  15.027  18.543  0.00  0.00    +0.000 F 
ATOM      8  C   UNL     1       0.425  12.816  18.553  0.00  0.00    +0.000 A 
ATOM      9  C   UNL     1       0.593  11.599  19.247  0.00  0.00    +0.000 A 
ATOM     10  C   UNL     1       1.169  10.349  18.932  0.00  0.00    +0.000 A 
ATOM     11  N   UNL     1       1.750   9.956  17.723  0.00  0.00    +0.000 NA
ATOM     12  C   UNL     1       2.155   8.722  17.725  0.00  0.00    +0.000 A 
ATOM     13  N   UNL     1       2.097   7.812  18.774  0.00  0.00    +0.000 N 
ATOM     14  C   UNL     1       1.548   8.170  20.001  0.00  0.00    +0.000 A 
ATOM     15  O   UNL     1       1.483   7.417  20.970  0.00  0.00    +0.000 OA
ATOM     16  C   UNL     1       1.061   9.515  20.007  0.00  0.00    +0.000 A 
ENDROOT
BRANCH  13  17
ATOM     17  C   UNL     1       2.589   6.449  18.586  0.00  0.00    +0.000 C 
BRANCH  17  18
ATOM     18  C   UNL     1       4.103   6.413  18.366  0.00  0.00    +0.000 C 
BRANCH  18  19
ATOM     19  C   UNL     1       4.800   5.289  19.149  0.00  0.00    +0.000 C 
BRANCH  19  20
ATOM     20  N   UNL     1       5.207   4.087  18.378  0.00  0.00    +0.000 NA
BRANCH  20  21
ATOM     21  C   UNL     1       4.054   3.147  18.238  0.00  0.00    +0.000 C 
BRANCH  21  22
ATOM     22  C   UNL     1       3.992   1.975  19.239  0.00  0.00    +0.000 C 
BRANCH  22  23
ATOM     23  O   UNL     1       5.153   1.929  20.058  0.00  0.00    +0.000 OA
ATOM     24  H   UNL     1       5.235   1.008  20.365  0.00  0.00    +0.000 HD
ENDBRANCH  22  23
ENDBRANCH  21  22
ENDBRANCH  20  21
BRANCH  20  25
ATOM     25  C   UNL     1       5.684   4.498  17.023  0.00  0.00    +0.000 C 
BRANCH  25  26
ATOM     26  C   UNL     1       7.214   4.523  16.840  0.00  0.00    +0.000 C 
BRANCH  26  27
ATOM     27  O   UNL     1       7.875   4.199  18.057  0.00  0.00    +0.000 OA
ATOM     28  H   UNL     1       7.195   4.245  18.754  0.00  0.00    +0.000 HD
ENDBRANCH  26  27
ENDBRANCH  25  26
ENDBRANCH  20  25
ENDBRANCH  19  20
ENDBRANCH  18  19
ENDBRANCH  17  18
ENDBRANCH  13  17
TORSDOF 10
ENDMDL
MODEL 2
REMARK VINA RESULT:      -6.4      1.547      2.512
REMARK  Name = 
REMARK  11 active torsions:
REMARK  status: ('A' for Active; 'I' for Inactive)
REMARK    1  A    between atoms: C_1  and  N_2
REMARK    2  A    between atoms: N_13  and  C_14
REMARK    3  A    between atoms: C_14  and  C_15
REMARK    4  A    between atoms: C_15  and  C_16
REMARK    5  A    between atoms: C_16  and  N_17
REMARK    6  A    between atoms: N_17  and  C_18
REMARK    7  A    between atoms: N_17  and  C_21
REMARK    8  A    between atoms: C_18  and  C_19
REMARK    9  A    between atoms: C_19  and  O_20
REMARK   10  A    between atoms: C_21  and  C_22
REMARK   11  A    between atoms: C_22  and  O_23
REMARK                            x       y       z     vdW  Elec       q    Type
REMARK                         _______ _______ _______ _____ _____    ______ ____
ROOT
ATOM      1  C   UNL     1       0.060   9.093  22.447  0.00  0.00    +0.000 C 
ATOM      2  N   UNL     1       0.301   9.816  21.218  0.00  0.00    +0.000 N 
ATOM      3  C   UNL     1      -0.177  11.076  20.897  0.00  0.00    +0.000 A 
ATOM      4  C   UNL     1      -0.987  11.974  21.628  0.00  0.00    +0.000 A 
ATOM      5  C   UNL     1      -1.305  13.197  21.035  0.00  0.00    +0.000 A 
ATOM      6  C   UNL     1      -0.840  13.511  19.767  0.00  0.00    +0.000 A 
ATOM      7  F   UNL     1      -1.168  14.694  19.228  0.00  0.00    +0.000 F 
ATOM      8  C   UNL     1      -0.045  12.628  19.038  0.00  0.00    +0.000 A 
ATOM      9  C   UNL     1       0.290  11.384  19.613  0.00  0.00    +0.000 A 
ATOM     10  C   UNL     1       1.036  10.264  19.188  0.00  0.00    +0.000 A 
ATOM     11  N   UNL     1       1.670  10.076  17.956  0.00  0.00    +0.000 NA
ATOM     12  C   UNL     1       2.245   8.916  17.845  0.00  0.00    +0.000 A 
ATOM     13  N   UNL     1       2.311   7.909  18.800  0.00  0.00    +0.000 N 
ATOM     14  C   UNL     1       1.714   8.064  20.047  0.00  0.00    +0.000 A 
ATOM     15  O   UNL     1       1.752   7.217  20.936  0.00  0.00    +0.000 OA
ATOM     16  C   UNL     1       1.043   9.321  20.175  0.00  0.00    +0.000 A 
ENDROOT
BRANCH  13  17
ATOM     17  C   UNL     1       2.991   6.652  18.489  0.00  0.00    +0.000 C 
BRANCH  17  18
ATOM     18  C   UNL     1       2.000   5.536  18.150  0.00  0.00    +0.000 C 
BRANCH  18  19
ATOM     19  C   UNL     1       1.951   4.429  19.215  0.00  0.00    +0.000 C 
BRANCH  19  20
ATOM     20  N   UNL     1       2.024   3.028  18.730  0.00  0.00    +0.000 NA
BRANCH  20  21
ATOM     21  C   UNL     1       3.406   2.717  18.254  0.00  0.00    +0.000 C 
BRANCH  21  22
ATOM     22  C   UNL     1       4.570   3.223  19.129  0.00  0.00    +0.000 C 
BRANCH  22  23
ATOM     23  O   UNL     1       5.051   2.203  19.994  0.00  0.00    +0.000 OA
ATOM     24  H   UNL     1       5.573   1.596  19.439  0.00  0.00    +0.000 HD
ENDBRANCH  22  23
ENDBRANCH  21  22
ENDBRANCH  20  21
BRANCH  20  25
ATOM     25  C   UNL     1       1.655   2.095  19.837  0.00  0.00    +0.000 C 
BRANCH  25  26
ATOM     26  C   UNL     1       1.523   2.740  21.230  0.00  0.00    +0.000 C 
BRANCH  26  27
ATOM     27  O   UNL     1       2.700   2.526  22.001  0.00  0.00    +0.000 OA
ATOM     28  H   UNL     1       3.408   3.026  21.555  0.00  0.00    +0.000 HD
ENDBRANCH  26  27
ENDBRANCH  25  26
ENDBRANCH  20  25
ENDBRANCH  19  20
ENDBRANCH  18  19
ENDBRANCH  17  18
ENDBRANCH  13  17
TORSDOF 10
ENDMDL
MODEL 3
REMARK VINA RESULT:      -6.4      1.713      1.970
REMARK  Name = 
REMARK  11 active torsions:
REMARK  status: ('A' for Active; 'I' for Inactive)
REMARK    1  A    between atoms: C_1  and  N_2
REMARK    2  A    between atoms: N_13  and  C_14
REMARK    3  A    between atoms: C_14  and  C_15
REMARK    4  A    between atoms: C_15  and  C_16
REMARK    5  A    between atoms: C_16  and  N_17
REMARK    6  A    between atoms: N_17  and  C_18
REMARK    7  A    between atoms: N_17  and  C_21
REMARK    8  A    between atoms: C_18  and  C_19
REMARK    9  A    between atoms: C_19  and  O_20
REMARK   10  A    between atoms: C_21  and  C_22
REMARK   11  A    between atoms: C_22  and  O_23
REMARK                            x       y       z     vdW  Elec       q    Type
REMARK                         _______ _______ _______ _____ _____    ______ ____
ROOT
ATOM      1  C   UNL     1      -0.082   9.225  22.150  0.00  0.00    +0.000 C 
ATOM      2  N   UNL     1       0.316   9.826  20.895  0.00  0.00    +0.000 N 
ATOM      3  C   UNL     1       0.001  11.101  20.457  0.00  0.00    +0.000 A 
ATOM      4  C   UNL     1      -0.750  12.131  21.065  0.00  0.00    +0.000 A 
ATOM      5  C   UNL     1      -0.894  13.333  20.370  0.00  0.00    +0.000 A 
ATOM      6  C   UNL     1      -0.315  13.501  19.122  0.00  0.00    +0.000 A 
ATOM      7  F   UNL     1      -0.475  14.669  18.483  0.00  0.00    +0.000 F 
ATOM      8  C   UNL     1       0.424  12.488  18.513  0.00  0.00    +0.000 A 
ATOM      9  C   UNL     1       0.582  11.262  19.192  0.00  0.00    +0.000 A 
ATOM     10  C   UNL     1       1.227  10.041  18.899  0.00  0.00    +0.000 A 
ATOM     11  N   UNL     1       1.915   9.697  17.731  0.00  0.00    +0.000 NA
ATOM     12  C   UNL     1       2.364   8.478  17.740  0.00  0.00    +0.000 A 
ATOM     13  N   UNL     1       2.258   7.543  18.763  0.00  0.00    +0.000 N 
ATOM     14  C   UNL     1       1.601   7.853  19.950  0.00  0.00    +0.000 A 
ATOM     15  O   UNL     1       1.488   7.075  20.894  0.00  0.00    +0.000 OA
ATOM     16  C   UNL     1       1.066   9.179  19.945  0.00  0.00    +0.000 A 
ENDROOT
BRANCH  13  17
ATOM     17  C   UNL     1       2.814   6.202  18.587  0.00  0.00    +0.000 C 
BRANCH  17  18
ATOM     18  C   UNL     1       4.150   6.232  17.843  0.00  0.00    +0.000 C 
BRANCH  18  19
ATOM     19  C   UNL     1       5.261   5.456  18.569  0.00  0.00    +0.000 C 
BRANCH  19  20
ATOM     20  N   UNL     1       6.117   4.573  17.737  0.00  0.00    +0.000 NA
BRANCH  20  21
ATOM     21  C   UNL     1       5.573   4.484  16.348  0.00  0.00    +0.000 C 
BRANCH  21  22
ATOM     22  C   UNL     1       6.604   4.471  15.202  0.00  0.00    +0.000 C 
BRANCH  22  23
ATOM     23  O   UNL     1       6.329   3.435  14.268  0.00  0.00    +0.000 OA
ATOM     24  H   UNL     1       6.426   3.831  13.383  0.00  0.00    +0.000 HD
ENDBRANCH  22  23
ENDBRANCH  21  22
ENDBRANCH  20  21
BRANCH  20  25
ATOM     25  C   UNL     1       7.508   5.115  17.696  0.00  0.00    +0.000 C 
BRANCH  25  26
ATOM     26  C   UNL     1       7.659   6.582  18.141  0.00  0.00    +0.000 C 
BRANCH  26  27
ATOM     27  O   UNL     1       7.717   7.450  17.015  0.00  0.00    +0.000 OA
ATOM     28  H   UNL     1       8.231   8.227  17.299  0.00  0.00    +0.000 HD
ENDBRANCH  26  27
ENDBRANCH  25  26
ENDBRANCH  20  25
ENDBRANCH  19  20
ENDBRANCH  18  19
ENDBRANCH  17  18
ENDBRANCH  13  17
TORSDOF 10
ENDMDL
MODEL 4
REMARK VINA RESULT:      -6.4      2.557      3.567
REMARK  Name = 
REMARK  11 active torsions:
REMARK  status: ('A' for Active; 'I' for Inactive)
REMARK    1  A    between atoms: C_1  and  N_2
REMARK    2  A    between atoms: N_13  and  C_14
REMARK    3  A    between atoms: C_14  and  C_15
REMARK    4  A    between atoms: C_15  and  C_16
REMARK    5  A    between atoms: C_16  and  N_17
REMARK    6  A    between atoms: N_17  and  C_18
REMARK    7  A    between atoms: N_17  and  C_21
REMARK    8  A    between atoms: C_18  and  C_19
REMARK    9  A    between atoms: C_19  and  O_20
REMARK   10  A    between atoms: C_21  and  C_22
REMARK   11  A    between atoms: C_22  and  O_23
REMARK                            x       y       z     vdW  Elec       q    Type
REMARK                         _______ _______ _______ _____ _____    ______ ____
ROOT
ATOM      1  C   UNL     1       1.794  10.873  18.014  0.00  0.00    +0.000 C 
ATOM      2  N   UNL     1       1.394  10.041  19.127  0.00  0.00    +0.000 N 
ATOM      3  C   UNL     1       0.646  10.436  20.223  0.00  0.00    +0.000 A 
ATOM      4  C   UNL     1       0.082  11.688  20.558  0.00  0.00    +0.000 A 
ATOM      5  C   UNL     1      -0.640  11.782  21.749  0.00  0.00    +0.000 A 
ATOM      6  C   UNL     1      -0.792  10.677  22.572  0.00  0.00    +0.000 A 
ATOM      7  F   UNL     1      -1.490  10.804  23.710  0.00  0.00    +0.000 F 
ATOM      8  C   UNL     1      -0.235   9.440  22.251  0.00  0.00    +0.000 A 
ATOM      9  C   UNL     1       0.501   9.318  21.055  0.00  0.00    +0.000 A 
ATOM     10  C   UNL     1       1.201   8.267  20.423  0.00  0.00    +0.000 A 
ATOM     11  N   UNL     1       1.381   6.960  20.886  0.00  0.00    +0.000 NA
ATOM     12  C   UNL     1       2.112   6.232  20.098  0.00  0.00    +0.000 A 
ATOM     13  N   UNL     1       2.678   6.603  18.883  0.00  0.00    +0.000 N 
ATOM     14  C   UNL     1       2.504   7.886  18.376  0.00  0.00    +0.000 A 
ATOM     15  O   UNL     1       2.965   8.268  17.303  0.00  0.00    +0.000 OA
ATOM     16  C   UNL     1       1.731   8.716  19.248  0.00  0.00    +0.000 A 
ENDROOT
BRANCH  13  17
ATOM     17  C   UNL     1       3.494   5.647  18.136  0.00  0.00    +0.000 C 
BRANCH  17  18
ATOM     18  C   UNL     1       4.378   4.807  19.060  0.00  0.00    +0.000 C 
BRANCH  18  19
ATOM     19  C   UNL     1       5.729   4.436  18.428  0.00  0.00    +0.000 C 
BRANCH  19  20
ATOM     20  N   UNL     1       6.062   5.076  17.130  0.00  0.00    +0.000 NA
BRANCH  20  21
ATOM     21  C   UNL     1       7.262   5.954  17.279  0.00  0.00    +0.000 C 
BRANCH  21  22
ATOM     22  C   UNL     1       7.770   6.193  18.715  0.00  0.00    +0.000 C 
BRANCH  22  23
ATOM     23  O   UNL     1       8.451   7.437  18.826  0.00  0.00    +0.000 OA
ATOM     24  H   UNL     1       8.601   7.749  17.915  0.00  0.00    +0.000 HD
ENDBRANCH  22  23
ENDBRANCH  21  22
ENDBRANCH  20  21
BRANCH  20  25
ATOM     25  C   UNL     1       6.337   4.023  16.108  0.00  0.00    +0.000 C 
BRANCH  25  26
ATOM     26  C   UNL     1       6.655   4.542  14.692  0.00  0.00    +0.000 C 
BRANCH  26  27
ATOM     27  O   UNL     1       6.341   3.561  13.711  0.00  0.00    +0.000 OA
ATOM     28  H   UNL     1       6.012   4.052  12.935  0.00  0.00    +0.000 HD
ENDBRANCH  26  27
ENDBRANCH  25  26
ENDBRANCH  20  25
ENDBRANCH  19  20
ENDBRANCH  18  19
ENDBRANCH  17  18
ENDBRANCH  13  17
TORSDOF 10
ENDMDL
MODEL 5
REMARK VINA RESULT:      -6.4      1.500      1.908
REMARK  Name = 
REMARK  11 active torsions:
REMARK  status: ('A' for Active; 'I' for Inactive)
REMARK    1  A    between atoms: C_1  and  N_2
REMARK    2  A    between atoms: N_13  and  C_14
REMARK    3  A    between atoms: C_14  and  C_15
REMARK    4  A    between atoms: C_15  and  C_16
REMARK    5  A    between atoms: C_16  and  N_17
REMARK    6  A    between atoms: N_17  and  C_18
REMARK    7  A    between atoms: N_17  and  C_21
REMARK    8  A    between atoms: C_18  and  C_19
REMARK    9  A    between atoms: C_19  and  O_20
REMARK   10  A    between atoms: C_21  and  C_22
REMARK   11  A    between atoms: C_22  and  O_23
REMARK                            x       y       z     vdW  Elec       q    Type
REMARK                         _______ _______ _______ _____ _____    ______ ____
ROOT
ATOM      1  C   UNL     1       0.220   9.344  22.336  0.00  0.00    +0.000 C 
ATOM      2  N   UNL     1       0.530   9.942  21.057  0.00  0.00    +0.000 N 
ATOM      3  C   UNL     1       0.214  11.228  20.652  0.00  0.00    +0.000 A 
ATOM      4  C   UNL     1      -0.457  12.273  21.325  0.00  0.00    +0.000 A 
ATOM      5  C   UNL     1      -0.625  13.484  20.650  0.00  0.00    +0.000 A 
ATOM      6  C   UNL     1      -0.146  13.646  19.359  0.00  0.00    +0.000 A 
ATOM      7  F   UNL     1      -0.327  14.821  18.741  0.00  0.00    +0.000 F 
ATOM      8  C   UNL     1       0.512  12.618  18.686  0.00  0.00    +0.000 A 
ATOM      9  C   UNL     1       0.693  11.384  19.345  0.00  0.00    +0.000 A 
ATOM     10  C   UNL     1       1.279  10.148  18.993  0.00  0.00    +0.000 A 
ATOM     11  N   UNL     1       1.860   9.794  17.772  0.00  0.00    +0.000 NA
ATOM     12  C   UNL     1       2.276   8.564  17.738  0.00  0.00    +0.000 A 
ATOM     13  N   UNL     1       2.229   7.625  18.761  0.00  0.00    +0.000 N 
ATOM     14  C   UNL     1       1.680   7.943  19.999  0.00  0.00    +0.000 A 
ATOM     15  O   UNL     1       1.624   7.162  20.946  0.00  0.00    +0.000 OA
ATOM     16  C   UNL     1       1.182   9.283  20.045  0.00  0.00    +0.000 A 
ENDROOT
BRANCH  13  17
ATOM     17  C   UNL     1       2.732   6.271  18.533  0.00  0.00    +0.000 C 
BRANCH  17  18
ATOM     18  C   UNL     1       3.942   6.262  17.597  0.00  0.00    +0.000 C 
BRANCH  18  19
ATOM     19  C   UNL     1       5.170   5.566  18.205  0.00  0.00    +0.000 C 
BRANCH  19  20
ATOM     20  N   UNL     1       6.323   5.328  17.300  0.00  0.00    +0.000 NA
BRANCH  20  21
ATOM     21  C   UNL     1       7.564   5.084  18.097  0.00  0.00    +0.000 C 
BRANCH  21  22
ATOM     22  C   UNL     1       7.796   6.003  19.313  0.00  0.00    +0.000 C 
BRANCH  22  23
ATOM     23  O   UNL     1       8.076   5.251  20.487  0.00  0.00    +0.000 OA
ATOM     24  H   UNL     1       7.412   5.518  21.148  0.00  0.00    +0.000 HD
ENDBRANCH  22  23
ENDBRANCH  21  22
ENDBRANCH  20  21
BRANCH  20  25
ATOM     25  C   UNL     1       6.045   4.144  16.433  0.00  0.00    +0.000 C 
BRANCH  25  26
ATOM     26  C   UNL     1       6.063   4.415  14.917  0.00  0.00    +0.000 C 
BRANCH  26  27
ATOM     27  O   UNL     1       6.634   5.688  14.637  0.00  0.00    +0.000 OA
ATOM     28  H   UNL     1       5.934   6.207  14.199  0.00  0.00    +0.000 HD
ENDBRANCH  26  27
ENDBRANCH  25  26
ENDBRANCH  20  25
ENDBRANCH  19  20
ENDBRANCH  18  19
ENDBRANCH  17  18
ENDBRANCH  13  17
TORSDOF 10
ENDMDL
MODEL 6
REMARK VINA RESULT:      -6.3      3.437      8.504
REMARK  Name = 
REMARK  11 active torsions:
REMARK  status: ('A' for Active; 'I' for Inactive)
REMARK    1  A    between atoms: C_1  and  N_2
REMARK    2  A    between atoms: N_13  and  C_14
REMARK    3  A    between atoms: C_14  and  C_15
REMARK    4  A    between atoms: C_15  and  C_16
REMARK    5  A    between atoms: C_16  and  N_17
REMARK    6  A    between atoms: N_17  and  C_18
REMARK    7  A    between atoms: N_17  and  C_21
REMARK    8  A    between atoms: C_18  and  C_19
REMARK    9  A    between atoms: C_19  and  O_20
REMARK   10  A    between atoms: C_21  and  C_22
REMARK   11  A    between atoms: C_22  and  O_23
REMARK                            x       y       z     vdW  Elec       q    Type
REMARK                         _______ _______ _______ _____ _____    ______ ____
ROOT
ATOM      1  C   UNL     1       3.762   3.069  19.287  0.00  0.00    +0.000 C 
ATOM      2  N   UNL     1       3.913   4.248  18.464  0.00  0.00    +0.000 N 
ATOM      3  C   UNL     1       4.674   4.356  17.312  0.00  0.00    +0.000 A 
ATOM      4  C   UNL     1       5.475   3.407  16.638  0.00  0.00    +0.000 A 
ATOM      5  C   UNL     1       6.130   3.813  15.474  0.00  0.00    +0.000 A 
ATOM      6  C   UNL     1       5.995   5.110  15.003  0.00  0.00    +0.000 A 
ATOM      7  F   UNL     1       6.641   5.466  13.883  0.00  0.00    +0.000 F 
ATOM      8  C   UNL     1       5.211   6.053  15.665  0.00  0.00    +0.000 A 
ATOM      9  C   UNL     1       4.540   5.669  16.845  0.00  0.00    +0.000 A 
ATOM     10  C   UNL     1       3.696   6.328  17.765  0.00  0.00    +0.000 A 
ATOM     11  N   UNL     1       3.298   7.668  17.752  0.00  0.00    +0.000 NA
ATOM     12  C   UNL     1       2.550   7.992  18.763  0.00  0.00    +0.000 A 
ATOM     13  N   UNL     1       2.105   7.164  19.788  0.00  0.00    +0.000 N 
ATOM     14  C   UNL     1       2.459   5.819  19.826  0.00  0.00    +0.000 A 
ATOM     15  O   UNL     1       2.085   5.036  20.695  0.00  0.00    +0.000 OA
ATOM     16  C   UNL     1       3.315   5.452  18.740  0.00  0.00    +0.000 A 
ENDROOT
BRANCH  13  17
ATOM     17  C   UNL     1       1.278   7.712  20.861  0.00  0.00    +0.000 C 
BRANCH  17  18
ATOM     18  C   UNL     1       1.163   9.235  20.774  0.00  0.00    +0.000 C 
BRANCH  18  19
ATOM     19  C   UNL     1      -0.251   9.714  20.407  0.00  0.00    +0.000 C 
BRANCH  19  20
ATOM     20  N   UNL     1      -0.352  10.797  19.397  0.00  0.00    +0.000 NA
BRANCH  20  21
ATOM     21  C   UNL     1       0.937  10.935  18.655  0.00  0.00    +0.000 C 
BRANCH  21  22
ATOM     22  C   UNL     1       1.552  12.348  18.592  0.00  0.00    +0.000 C 
BRANCH  22  23
ATOM     23  O   UNL     1       2.564  12.431  17.597  0.00  0.00    +0.000 OA
ATOM     24  H   UNL     1       2.805  11.514  17.374  0.00  0.00    +0.000 HD
ENDBRANCH  22  23
ENDBRANCH  21  22
ENDBRANCH  20  21
BRANCH  20  25
ATOM     25  C   UNL     1      -1.452  10.485  18.436  0.00  0.00    +0.000 C 
BRANCH  25  26
ATOM     26  C   UNL     1      -2.222  11.703  17.893  0.00  0.00    +0.000 C 
BRANCH  26  27
ATOM     27  O   UNL     1      -2.115  12.808  18.783  0.00  0.00    +0.000 OA
ATOM     28  H   UNL     1      -2.294  13.603  18.249  0.00  0.00    +0.000 HD
ENDBRANCH  26  27
ENDBRANCH  25  26
ENDBRANCH  20  25
ENDBRANCH  19  20
ENDBRANCH  18  19
ENDBRANCH  17  18
ENDBRANCH  13  17
TORSDOF 10
ENDMDL
MODEL 7
REMARK VINA RESULT:      -6.3      3.618      8.785
REMARK  Name = 
REMARK  11 active torsions:
REMARK  status: ('A' for Active; 'I' for Inactive)
REMARK    1  A    between atoms: C_1  and  N_2
REMARK    2  A    between atoms: N_13  and  C_14
REMARK    3  A    between atoms: C_14  and  C_15
REMARK    4  A    between atoms: C_15  and  C_16
REMARK    5  A    between atoms: C_16  and  N_17
REMARK    6  A    between atoms: N_17  and  C_18
REMARK    7  A    between atoms: N_17  and  C_21
REMARK    8  A    between atoms: C_18  and  C_19
REMARK    9  A    between atoms: C_19  and  O_20
REMARK   10  A    between atoms: C_21  and  C_22
REMARK   11  A    between atoms: C_22  and  O_23
REMARK                            x       y       z     vdW  Elec       q    Type
REMARK                         _______ _______ _______ _____ _____    ______ ____
ROOT
ATOM      1  C   UNL     1       3.271   3.591  19.471  0.00  0.00    +0.000 C 
ATOM      2  N   UNL     1       3.567   4.700  18.591  0.00  0.00    +0.000 N 
ATOM      3  C   UNL     1       4.388   4.669  17.476  0.00  0.00    +0.000 A 
ATOM      4  C   UNL     1       5.131   3.614  16.901  0.00  0.00    +0.000 A 
ATOM      5  C   UNL     1       5.875   3.889  15.752  0.00  0.00    +0.000 A 
ATOM      6  C   UNL     1       5.881   5.161  15.201  0.00  0.00    +0.000 A 
ATOM      7  F   UNL     1       6.609   5.389  14.098  0.00  0.00    +0.000 F 
ATOM      8  C   UNL     1       5.155   6.209  15.766  0.00  0.00    +0.000 A 
ATOM      9  C   UNL     1       4.397   5.958  16.928  0.00  0.00    +0.000 A 
ATOM     10  C   UNL     1       3.574   6.744  17.764  0.00  0.00    +0.000 A 
ATOM     11  N   UNL     1       3.300   8.111  17.654  0.00  0.00    +0.000 NA
ATOM     12  C   UNL     1       2.538   8.561  18.604  0.00  0.00    +0.000 A 
ATOM     13  N   UNL     1       1.971   7.840  19.649  0.00  0.00    +0.000 N 
ATOM     14  C   UNL     1       2.200   6.474  19.782  0.00  0.00    +0.000 A 
ATOM     15  O   UNL     1       1.715   5.781  20.674  0.00  0.00    +0.000 OA
ATOM     16  C   UNL     1       3.068   5.967  18.766  0.00  0.00    +0.000 A 
ENDROOT
BRANCH  13  17
ATOM     17  C   UNL     1       1.148   8.524  20.645  0.00  0.00    +0.000 C 
BRANCH  17  18
ATOM     18  C   UNL     1       0.729   9.920  20.179  0.00  0.00    +0.000 C 
BRANCH  18  19
ATOM     19  C   UNL     1      -0.742   9.994  19.741  0.00  0.00    +0.000 C 
BRANCH  19  20
ATOM     20  N   UNL     1      -1.159  11.206  18.992  0.00  0.00    +0.000 NA
BRANCH  20  21
ATOM     21  C   UNL     1       0.030  12.057  18.682  0.00  0.00    +0.000 C 
BRANCH  21  22
ATOM     22  C   UNL     1      -0.197  13.583  18.666  0.00  0.00    +0.000 C 
BRANCH  22  23
ATOM     23  O   UNL     1      -1.450  13.928  19.242  0.00  0.00    +0.000 OA
ATOM     24  H   UNL     1      -1.682  13.202  19.849  0.00  0.00    +0.000 HD
ENDBRANCH  22  23
ENDBRANCH  21  22
ENDBRANCH  20  21
BRANCH  20  25
ATOM     25  C   UNL     1      -1.830  10.803  17.720  0.00  0.00    +0.000 C 
BRANCH  25  26
ATOM     26  C   UNL     1      -3.215  11.433  17.474  0.00  0.00    +0.000 C 
BRANCH  26  27
ATOM     27  O   UNL     1      -3.624  12.210  18.593  0.00  0.00    +0.000 OA
ATOM     28  H   UNL     1      -2.831  12.320  19.149  0.00  0.00    +0.000 HD
ENDBRANCH  26  27
ENDBRANCH  25  26
ENDBRANCH  20  25
ENDBRANCH  19  20
ENDBRANCH  18  19
ENDBRANCH  17  18
ENDBRANCH  13  17
TORSDOF 10
ENDMDL
MODEL 8
REMARK VINA RESULT:      -6.3      1.554      2.042
REMARK  Name = 
REMARK  11 active torsions:
REMARK  status: ('A' for Active; 'I' for Inactive)
REMARK    1  A    between atoms: C_1  and  N_2
REMARK    2  A    between atoms: N_13  and  C_14
REMARK    3  A    between atoms: C_14  and  C_15
REMARK    4  A    between atoms: C_15  and  C_16
REMARK    5  A    between atoms: C_16  and  N_17
REMARK    6  A    between atoms: N_17  and  C_18
REMARK    7  A    between atoms: N_17  and  C_21
REMARK    8  A    between atoms: C_18  and  C_19
REMARK    9  A    between atoms: C_19  and  O_20
REMARK   10  A    between atoms: C_21  and  C_22
REMARK   11  A    between atoms: C_22  and  O_23
REMARK                            x       y       z     vdW  Elec       q    Type
REMARK                         _______ _______ _______ _____ _____    ______ ____
ROOT
ATOM      1  C   UNL     1      -0.353  10.113  22.471  0.00  0.00    +0.000 C 
ATOM      2  N   UNL     1       0.078  10.589  21.175  0.00  0.00    +0.000 N 
ATOM      3  C   UNL     1      -0.205  11.824  20.617  0.00  0.00    +0.000 A 
ATOM      4  C   UNL     1      -0.948  12.918  21.115  0.00  0.00    +0.000 A 
ATOM      5  C   UNL     1      -1.056  14.055  20.311  0.00  0.00    +0.000 A 
ATOM      6  C   UNL     1      -0.452  14.099  19.064  0.00  0.00    +0.000 A 
ATOM      7  F   UNL     1      -0.579  15.206  18.319  0.00  0.00    +0.000 F 
ATOM      8  C   UNL     1       0.278  13.021  18.564  0.00  0.00    +0.000 A 
ATOM      9  C   UNL     1       0.401  11.860  19.355  0.00  0.00    +0.000 A 
ATOM     10  C   UNL     1       1.027  10.607  19.185  0.00  0.00    +0.000 A 
ATOM     11  N   UNL     1       1.730  10.146  18.068  0.00  0.00    +0.000 NA
ATOM     12  C   UNL     1       2.156   8.926  18.196  0.00  0.00    +0.000 A 
ATOM     13  N   UNL     1       2.014   8.089  19.297  0.00  0.00    +0.000 N 
ATOM     14  C   UNL     1       1.342   8.517  20.438  0.00  0.00    +0.000 A 
ATOM     15  O   UNL     1       1.198   7.830  21.446  0.00  0.00    +0.000 OA
ATOM     16  C   UNL     1       0.832   9.846  20.302  0.00  0.00    +0.000 A 
ENDROOT
BRANCH  13  17
ATOM     17  C   UNL     1       2.547   6.729  19.254  0.00  0.00    +0.000 C 
BRANCH  17  18
ATOM     18  C   UNL     1       2.389   6.097  17.869  0.00  0.00    +0.000 C 
BRANCH  18  19
ATOM     19  C   UNL     1       3.138   4.763  17.726  0.00  0.00    +0.000 C 
BRANCH  19  20
ATOM     20  N   UNL     1       2.999   3.791  18.839  0.00  0.00    +0.000 NA
BRANCH  20  21
ATOM     21  C   UNL     1       2.219   2.598  18.390  0.00  0.00    +0.000 C 
BRANCH  21  22
ATOM     22  C   UNL     1       0.893   2.321  19.128  0.00  0.00    +0.000 C 
BRANCH  22  23
ATOM     23  O   UNL     1       0.565   3.376  20.022  0.00  0.00    +0.000 OA
ATOM     24  H   UNL     1       1.408   3.696  20.390  0.00  0.00    +0.000 HD
ENDBRANCH  22  23
ENDBRANCH  21  22
ENDBRANCH  20  21
BRANCH  20  25
ATOM     25  C   UNL     1       4.352   3.359  19.301  0.00  0.00    +0.000 C 
BRANCH  25  26
ATOM     26  C   UNL     1       4.365   2.229  20.347  0.00  0.00    +0.000 C 
BRANCH  26  27
ATOM     27  O   UNL     1       5.191   1.152  19.920  0.00  0.00    +0.000 OA
ATOM     28  H   UNL     1       5.596   1.440  19.081  0.00  0.00    +0.000 HD
ENDBRANCH  26  27
ENDBRANCH  25  26
ENDBRANCH  20  25
ENDBRANCH  19  20
ENDBRANCH  18  19
ENDBRANCH  17  18
ENDBRANCH  13  17
TORSDOF 10
ENDMDL
MODEL 9
REMARK VINA RESULT:      -6.2      3.799      8.774
REMARK  Name = 
REMARK  11 active torsions:
REMARK  status: ('A' for Active; 'I' for Inactive)
REMARK    1  A    between atoms: C_1  and  N_2
REMARK    2  A    between atoms: N_13  and  C_14
REMARK    3  A    between atoms: C_14  and  C_15
REMARK    4  A    between atoms: C_15  and  C_16
REMARK    5  A    between atoms: C_16  and  N_17
REMARK    6  A    between atoms: N_17  and  C_18
REMARK    7  A    between atoms: N_17  and  C_21
REMARK    8  A    between atoms: C_18  and  C_19
REMARK    9  A    between atoms: C_19  and  O_20
REMARK   10  A    between atoms: C_21  and  C_22
REMARK   11  A    between atoms: C_22  and  O_23
REMARK                            x       y       z     vdW  Elec       q    Type
REMARK                         _______ _______ _______ _____ _____    ______ ____
ROOT
ATOM      1  C   UNL     1       7.505   5.951  17.771  0.00  0.00    +0.000 C 
ATOM      2  N   UNL     1       6.482   5.235  17.042  0.00  0.00    +0.000 N 
ATOM      3  C   UNL     1       6.519   4.882  15.704  0.00  0.00    +0.000 A 
ATOM      4  C   UNL     1       7.506   5.097  14.716  0.00  0.00    +0.000 A 
ATOM      5  C   UNL     1       7.261   4.610  13.430  0.00  0.00    +0.000 A 
ATOM      6  C   UNL     1       6.084   3.938  13.141  0.00  0.00    +0.000 A 
ATOM      7  F   UNL     1       5.881   3.486  11.895  0.00  0.00    +0.000 F 
ATOM      8  C   UNL     1       5.103   3.727  14.109  0.00  0.00    +0.000 A 
ATOM      9  C   UNL     1       5.324   4.211  15.415  0.00  0.00    +0.000 A 
ATOM     10  C   UNL     1       4.582   4.200  16.616  0.00  0.00    +0.000 A 
ATOM     11  N   UNL     1       3.301   3.680  16.825  0.00  0.00    +0.000 NA
ATOM     12  C   UNL     1       2.864   3.860  18.035  0.00  0.00    +0.000 A 
ATOM     13  N   UNL     1       3.530   4.463  19.096  0.00  0.00    +0.000 N 
ATOM     14  C   UNL     1       4.815   4.973  18.936  0.00  0.00    +0.000 A 
ATOM     15  O   UNL     1       5.459   5.502  19.839  0.00  0.00    +0.000 OA
ATOM     16  C   UNL     1       5.299   4.818  17.600  0.00  0.00    +0.000 A 
ENDROOT
BRANCH  13  17
ATOM     17  C   UNL     1       2.868   4.595  20.392  0.00  0.00    +0.000 C 
BRANCH  17  18
ATOM     18  C   UNL     1       1.839   5.727  20.396  0.00  0.00    +0.000 C 
BRANCH  18  19
ATOM     19  C   UNL     1       2.299   6.963  19.607  0.00  0.00    +0.000 C 
BRANCH  19  20
ATOM     20  N   UNL     1       1.896   8.288  20.140  0.00  0.00    +0.000 NA
BRANCH  20  21
ATOM     21  C   UNL     1       1.153   9.061  19.100  0.00  0.00    +0.000 C 
BRANCH  21  22
ATOM     22  C   UNL     1       2.000   9.723  17.993  0.00  0.00    +0.000 C 
BRANCH  22  23
ATOM     23  O   UNL     1       1.906  11.141  18.045  0.00  0.00    +0.000 OA
ATOM     24  H   UNL     1       1.186  11.345  18.669  0.00  0.00    +0.000 HD
ENDBRANCH  22  23
ENDBRANCH  21  22
ENDBRANCH  20  21
BRANCH  20  25
ATOM     25  C   UNL     1       1.027   8.103  21.341  0.00  0.00    +0.000 C 
BRANCH  25  26
ATOM     26  C   UNL     1       0.112   9.293  21.686  0.00  0.00    +0.000 C 
BRANCH  26  27
ATOM     27  O   UNL     1      -0.781   8.956  22.741  0.00  0.00    +0.000 OA
ATOM     28  H   UNL     1      -0.266   8.418  23.369  0.00  0.00    +0.000 HD
ENDBRANCH  26  27
ENDBRANCH  25  26
ENDBRANCH  20  25
ENDBRANCH  19  20
ENDBRANCH  18  19
ENDBRANCH  17  18
ENDBRANCH  13  17
TORSDOF 10
ENDMDL
