MODEL 1
REMARK VINA RESULT:      -6.8      0.000      0.000
REMARK  Name = 
REMARK  5 active torsions:
REMARK  status: ('A' for Active; 'I' for Inactive)
REMARK    1  A    between atoms: C_1  and  C_2
REMARK    2  A    between atoms: C_2  and  C_3
REMARK    3  A    between atoms: C_8  and  C_9
REMARK    4  A    between atoms: C_18  and  C_19
REMARK    5  A    between atoms: C_21  and  C_22
REMARK                            x       y       z     vdW  Elec       q    Type
REMARK                         _______ _______ _______ _____ _____    ______ ____
ROOT
ATOM      1  C   UNL     1      -1.285  12.853  19.570  0.00  0.00    +0.000 C 
ATOM      2  O   UNL     1      -1.098  13.949  19.039  0.00  0.00    +0.000 OA
ATOM      3  N   UNL     1      -1.086  12.683  20.939  0.00  0.00    +0.000 N 
ATOM      4  C   UNL     1      -0.714  13.830  21.746  0.00  0.00    +0.000 C 
ATOM      5  C   UNL     1      -0.968  13.424  23.205  0.00  0.00    +0.000 C 
ATOM      6  C   UNL     1      -2.192  14.137  23.778  0.00  0.00    +0.000 C 
ATOM      7  N   UNL     1      -3.274  13.273  23.381  0.00  0.00    +0.000 N 
ATOM      8  C   UNL     1      -4.554  13.722  23.273  0.00  0.00    +0.000 A 
ATOM      9  N   UNL     1      -4.756  15.050  23.295  0.00  0.00    +0.000 NA
ATOM     10  C   UNL     1      -6.001  15.519  23.099  0.00  0.00    +0.000 A 
ATOM     11  C   UNL     1      -6.184  17.005  23.090  0.00  0.00    +0.000 C 
ATOM     12  C   UNL     1      -7.075  14.682  22.907  0.00  0.00    +0.000 A 
ATOM     13  C   UNL     1      -6.803  13.330  22.928  0.00  0.00    +0.000 A 
ATOM     14  C   UNL     1      -7.915  12.335  22.783  0.00  0.00    +0.000 C 
ATOM     15  N   UNL     1      -5.556  12.841  23.104  0.00  0.00    +0.000 NA
ATOM     16  C   UNL     1      -2.880  11.885  23.416  0.00  0.00    +0.000 C 
ATOM     17  C   UNL     1      -1.355  11.927  23.156  0.00  0.00    +0.000 C 
ATOM     18  C   UNL     1      -0.956  11.482  21.747  0.00  0.00    +0.000 C 
ENDROOT
BRANCH   1  24
ATOM     19  C   UNL     1      -0.888  10.733  18.200  0.00  0.00    +0.000 A 
ATOM     20  C   UNL     1      -1.419   9.713  17.381  0.00  0.00    +0.000 A 
ATOM     21  C   UNL     1      -2.783   9.645  17.100  0.00  0.00    +0.000 A 
ATOM     22  C   UNL     1      -3.631  10.638  17.570  0.00  0.00    +0.000 A 
ATOM     23  C   UNL     1      -3.113  11.693  18.321  0.00  0.00    +0.000 A 
ATOM     24  C   UNL     1      -1.763  11.722  18.712  0.00  0.00    +0.000 A 
BRANCH  19  26
ATOM     25  C   UNL     1       1.279   9.425  17.936  0.00  0.00    +0.000 C 
ATOM     26  C   UNL     1       0.607  10.685  18.464  0.00  0.00    +0.000 C 
ENDBRANCH  19  26
ENDBRANCH   1  24
TORSDOF 2
ENDMDL
MODEL 2
REMARK VINA RESULT:      -6.7      2.629      5.680
REMARK  Name = 
REMARK  5 active torsions:
REMARK  status: ('A' for Active; 'I' for Inactive)
REMARK    1  A    between atoms: C_1  and  C_2
REMARK    2  A    between atoms: C_2  and  C_3
REMARK    3  A    between atoms: C_8  and  C_9
REMARK    4  A    between atoms: C_18  and  C_19
REMARK    5  A    between atoms: C_21  and  C_22
REMARK                            x       y       z     vdW  Elec       q    Type
REMARK                         _______ _______ _______ _____ _____    ______ ____
ROOT
ATOM      1  C   UNL     1      -6.334  12.451  20.975  0.00  0.00    +0.000 C 
ATOM      2  O   UNL     1      -6.740  11.378  21.424  0.00  0.00    +0.000 OA
ATOM      3  N   UNL     1      -5.688  13.369  21.801  0.00  0.00    +0.000 N 
ATOM      4  C   UNL     1      -5.443  13.020  23.188  0.00  0.00    +0.000 C 
ATOM      5  C   UNL     1      -4.394  14.018  23.698  0.00  0.00    +0.000 C 
ATOM      6  C   UNL     1      -3.032  13.349  23.885  0.00  0.00    +0.000 C 
ATOM      7  N   UNL     1      -2.448  13.453  22.572  0.00  0.00    +0.000 N 
ATOM      8  C   UNL     1      -1.462  12.615  22.153  0.00  0.00    +0.000 A 
ATOM      9  N   UNL     1      -1.214  11.519  22.890  0.00  0.00    +0.000 NA
ATOM     10  C   UNL     1      -0.307  10.631  22.447  0.00  0.00    +0.000 A 
ATOM     11  C   UNL     1      -0.085   9.402  23.273  0.00  0.00    +0.000 C 
ATOM     12  C   UNL     1       0.394  10.825  21.280  0.00  0.00    +0.000 A 
ATOM     13  C   UNL     1       0.115  11.984  20.588  0.00  0.00    +0.000 A 
ATOM     14  C   UNL     1       0.865  12.312  19.332  0.00  0.00    +0.000 C 
ATOM     15  N   UNL     1      -0.807  12.879  21.008  0.00  0.00    +0.000 NA
ATOM     16  C   UNL     1      -2.819  14.690  21.927  0.00  0.00    +0.000 C 
ATOM     17  C   UNL     1      -4.194  15.033  22.548  0.00  0.00    +0.000 C 
ATOM     18  C   UNL     1      -5.377  14.775  21.612  0.00  0.00    +0.000 C 
ENDROOT
BRANCH   1  24
ATOM     19  C   UNL     1      -5.559  12.366  18.541  0.00  0.00    +0.000 A 
ATOM     20  C   UNL     1      -5.808  12.681  17.188  0.00  0.00    +0.000 A 
ATOM     21  C   UNL     1      -6.992  13.303  16.794  0.00  0.00    +0.000 A 
ATOM     22  C   UNL     1      -7.916  13.689  17.754  0.00  0.00    +0.000 A 
ATOM     23  C   UNL     1      -7.656  13.451  19.103  0.00  0.00    +0.000 A 
ATOM     24  C   UNL     1      -6.524  12.725  19.514  0.00  0.00    +0.000 A 
BRANCH  19  26
ATOM     25  C   UNL     1      -3.829  10.666  17.771  0.00  0.00    +0.000 C 
ATOM     26  C   UNL     1      -4.250  11.658  18.847  0.00  0.00    +0.000 C 
ENDBRANCH  19  26
ENDBRANCH   1  24
TORSDOF 2
ENDMDL
MODEL 3
REMARK VINA RESULT:      -6.6      3.611      5.105
REMARK  Name = 
REMARK  5 active torsions:
REMARK  status: ('A' for Active; 'I' for Inactive)
REMARK    1  A    between atoms: C_1  and  C_2
REMARK    2  A    between atoms: C_2  and  C_3
REMARK    3  A    between atoms: C_8  and  C_9
REMARK    4  A    between atoms: C_18  and  C_19
REMARK    5  A    between atoms: C_21  and  C_22
REMARK                            x       y       z     vdW  Elec       q    Type
REMARK                         _______ _______ _______ _____ _____    ______ ____
ROOT
ATOM      1  C   UNL     1       1.208  15.556  19.977  0.00  0.00    +0.000 C 
ATOM      2  O   UNL     1       1.529  16.010  21.076  0.00  0.00    +0.000 OA
ATOM      3  N   UNL     1       1.182  14.180  19.756  0.00  0.00    +0.000 N 
ATOM      4  C   UNL     1       1.479  13.283  20.857  0.00  0.00    +0.000 C 
ATOM      5  C   UNL     1       0.981  11.897  20.422  0.00  0.00    +0.000 C 
ATOM      6  C   UNL     1      -0.281  11.494  21.185  0.00  0.00    +0.000 C 
ATOM      7  N   UNL     1      -1.329  12.086  20.392  0.00  0.00    +0.000 N 
ATOM      8  C   UNL     1      -2.553  12.373  20.913  0.00  0.00    +0.000 A 
ATOM      9  N   UNL     1      -2.690  12.333  22.250  0.00  0.00    +0.000 NA
ATOM     10  C   UNL     1      -3.865  12.701  22.791  0.00  0.00    +0.000 A 
ATOM     11  C   UNL     1      -3.970  12.683  24.285  0.00  0.00    +0.000 C 
ATOM     12  C   UNL     1      -4.935  13.088  22.020  0.00  0.00    +0.000 A 
ATOM     13  C   UNL     1      -4.737  13.076  20.656  0.00  0.00    +0.000 A 
ATOM     14  C   UNL     1      -5.860  13.428  19.727  0.00  0.00    +0.000 C 
ATOM     15  N   UNL     1      -3.558  12.728  20.093  0.00  0.00    +0.000 NA
ATOM     16  C   UNL     1      -1.014  12.041  18.984  0.00  0.00    +0.000 C 
ATOM     17  C   UNL     1       0.533  12.061  18.951  0.00  0.00    +0.000 C 
ATOM     18  C   UNL     1       1.124  13.407  18.527  0.00  0.00    +0.000 C 
ENDROOT
BRANCH   1  24
ATOM     19  C   UNL     1       1.758  17.104  18.019  0.00  0.00    +0.000 A 
ATOM     20  C   UNL     1       1.305  18.019  17.045  0.00  0.00    +0.000 A 
ATOM     21  C   UNL     1      -0.049  18.327  16.914  0.00  0.00    +0.000 A 
ATOM     22  C   UNL     1      -0.965  17.783  17.803  0.00  0.00    +0.000 A 
ATOM     23  C   UNL     1      -0.526  16.933  18.817  0.00  0.00    +0.000 A 
ATOM     24  C   UNL     1       0.815  16.519  18.899  0.00  0.00    +0.000 A 
BRANCH  19  26
ATOM     25  C   UNL     1       3.657  15.615  17.207  0.00  0.00    +0.000 C 
ATOM     26  C   UNL     1       3.251  16.821  18.045  0.00  0.00    +0.000 C 
ENDBRANCH  19  26
ENDBRANCH   1  24
TORSDOF 2
ENDMDL
MODEL 4
REMARK VINA RESULT:      -6.6      0.776      2.118
REMARK  Name = 
REMARK  5 active torsions:
REMARK  status: ('A' for Active; 'I' for Inactive)
REMARK    1  A    between atoms: C_1  and  C_2
REMARK    2  A    between atoms: C_2  and  C_3
REMARK    3  A    between atoms: C_8  and  C_9
REMARK    4  A    between atoms: C_18  and  C_19
REMARK    5  A    between atoms: C_21  and  C_22
REMARK                            x       y       z     vdW  Elec       q    Type
REMARK                         _______ _______ _______ _____ _____    ______ ____
ROOT
ATOM      1  C   UNL     1      -1.504  12.878  19.518  0.00  0.00    +0.000 C 
ATOM      2  O   UNL     1      -1.337  13.990  19.015  0.00  0.00    +0.000 OA
ATOM      3  N   UNL     1      -1.181  12.646  20.854  0.00  0.00    +0.000 N 
ATOM      4  C   UNL     1      -0.701  13.748  21.666  0.00  0.00    +0.000 C 
ATOM      5  C   UNL     1      -0.826  13.287  23.125  0.00  0.00    +0.000 C 
ATOM      6  C   UNL     1      -1.970  14.006  23.841  0.00  0.00    +0.000 C 
ATOM      7  N   UNL     1      -3.109  13.187  23.516  0.00  0.00    +0.000 N 
ATOM      8  C   UNL     1      -4.380  13.673  23.550  0.00  0.00    +0.000 A 
ATOM      9  N   UNL     1      -4.540  15.004  23.643  0.00  0.00    +0.000 NA
ATOM     10  C   UNL     1      -5.783  15.512  23.587  0.00  0.00    +0.000 A 
ATOM     11  C   UNL     1      -5.923  17.002  23.654  0.00  0.00    +0.000 C 
ATOM     12  C   UNL     1      -6.894  14.711  23.466  0.00  0.00    +0.000 A 
ATOM     13  C   UNL     1      -6.662  13.354  23.407  0.00  0.00    +0.000 A 
ATOM     14  C   UNL     1      -7.812  12.394  23.330  0.00  0.00    +0.000 C 
ATOM     15  N   UNL     1      -5.418  12.826  23.443  0.00  0.00    +0.000 NA
ATOM     16  C   UNL     1      -2.755  11.789  23.459  0.00  0.00    +0.000 C 
ATOM     17  C   UNL     1      -1.261  11.804  23.055  0.00  0.00    +0.000 C 
ATOM     18  C   UNL     1      -1.011  11.409  21.598  0.00  0.00    +0.000 C 
ENDROOT
BRANCH   1  24
ATOM     19  C   UNL     1      -3.488  11.550  18.606  0.00  0.00    +0.000 A 
ATOM     20  C   UNL     1      -3.958  10.496  17.793  0.00  0.00    +0.000 A 
ATOM     21  C   UNL     1      -3.084   9.723  17.030  0.00  0.00    +0.000 A 
ATOM     22  C   UNL     1      -1.717   9.941  17.122  0.00  0.00    +0.000 A 
ATOM     23  C   UNL     1      -1.228  10.931  17.974  0.00  0.00    +0.000 A 
ATOM     24  C   UNL     1      -2.094  11.796  18.666  0.00  0.00    +0.000 A 
BRANCH  19  26
ATOM     25  C   UNL     1      -5.937  12.221  18.781  0.00  0.00    +0.000 C 
ATOM     26  C   UNL     1      -4.536  12.344  19.366  0.00  0.00    +0.000 C 
ENDBRANCH  19  26
ENDBRANCH   1  24
TORSDOF 2
ENDMDL
MODEL 5
REMARK VINA RESULT:      -6.6      1.579      2.562
REMARK  Name = 
REMARK  5 active torsions:
REMARK  status: ('A' for Active; 'I' for Inactive)
REMARK    1  A    between atoms: C_1  and  C_2
REMARK    2  A    between atoms: C_2  and  C_3
REMARK    3  A    between atoms: C_8  and  C_9
REMARK    4  A    between atoms: C_18  and  C_19
REMARK    5  A    between atoms: C_21  and  C_22
REMARK                            x       y       z     vdW  Elec       q    Type
REMARK                         _______ _______ _______ _____ _____    ______ ____
ROOT
ATOM      1  C   UNL     1      -0.610  13.388  19.802  0.00  0.00    +0.000 C 
ATOM      2  O   UNL     1      -0.586  14.403  19.104  0.00  0.00    +0.000 OA
ATOM      3  N   UNL     1      -0.979  13.458  21.145  0.00  0.00    +0.000 N 
ATOM      4  C   UNL     1      -1.393  14.733  21.698  0.00  0.00    +0.000 C 
ATOM      5  C   UNL     1      -2.102  14.412  23.022  0.00  0.00    +0.000 C 
ATOM      6  C   UNL     1      -3.613  14.617  22.909  0.00  0.00    +0.000 C 
ATOM      7  N   UNL     1      -4.064  13.349  22.395  0.00  0.00    +0.000 N 
ATOM      8  C   UNL     1      -5.240  13.220  21.724  0.00  0.00    +0.000 A 
ATOM      9  N   UNL     1      -5.857  14.344  21.320  0.00  0.00    +0.000 NA
ATOM     10  C   UNL     1      -6.973  14.238  20.576  0.00  0.00    +0.000 A 
ATOM     11  C   UNL     1      -7.613  15.509  20.110  0.00  0.00    +0.000 C 
ATOM     12  C   UNL     1      -7.515  13.020  20.242  0.00  0.00    +0.000 A 
ATOM     13  C   UNL     1      -6.850  11.908  20.714  0.00  0.00    +0.000 A 
ATOM     14  C   UNL     1      -7.392  10.536  20.450  0.00  0.00    +0.000 C 
ATOM     15  N   UNL     1      -5.717  11.994  21.447  0.00  0.00    +0.000 NA
ATOM     16  C   UNL     1      -3.291  12.256  22.935  0.00  0.00    +0.000 C 
ATOM     17  C   UNL     1      -1.912  12.892  23.235  0.00  0.00    +0.000 C 
ATOM     18  C   UNL     1      -0.822  12.506  22.232  0.00  0.00    +0.000 C 
ENDROOT
BRANCH   1  24
ATOM     19  C   UNL     1      -1.250  11.222  18.607  0.00  0.00    +0.000 A 
ATOM     20  C   UNL     1      -0.842   9.995  18.041  0.00  0.00    +0.000 A 
ATOM     21  C   UNL     1       0.503   9.631  17.990  0.00  0.00    +0.000 A 
ATOM     22  C   UNL     1       1.458  10.453  18.570  0.00  0.00    +0.000 A 
ATOM     23  C   UNL     1       1.067  11.636  19.197  0.00  0.00    +0.000 A 
ATOM     24  C   UNL     1      -0.267  12.078  19.162  0.00  0.00    +0.000 A 
BRANCH  19  26
ATOM     25  C   UNL     1      -3.553  10.502  17.796  0.00  0.00    +0.000 C 
ATOM     26  C   UNL     1      -2.738  11.525  18.577  0.00  0.00    +0.000 C 
ENDBRANCH  19  26
ENDBRANCH   1  24
TORSDOF 2
ENDMDL
MODEL 6
REMARK VINA RESULT:      -6.5      2.542      5.712
REMARK  Name = 
REMARK  5 active torsions:
REMARK  status: ('A' for Active; 'I' for Inactive)
REMARK    1  A    between atoms: C_1  and  C_2
REMARK    2  A    between atoms: C_2  and  C_3
REMARK    3  A    between atoms: C_8  and  C_9
REMARK    4  A    between atoms: C_18  and  C_19
REMARK    5  A    between atoms: C_21  and  C_22
REMARK                            x       y       z     vdW  Elec       q    Type
REMARK                         _______ _______ _______ _____ _____    ______ ____
ROOT
ATOM      1  C   UNL     1      -5.642  12.973  21.217  0.00  0.00    +0.000 C 
ATOM      2  O   UNL     1      -6.131  12.175  22.018  0.00  0.00    +0.000 OA
ATOM      3  N   UNL     1      -4.685  13.899  21.630  0.00  0.00    +0.000 N 
ATOM      4  C   UNL     1      -4.225  13.873  23.006  0.00  0.00    +0.000 C 
ATOM      5  C   UNL     1      -2.932  14.700  23.037  0.00  0.00    +0.000 C 
ATOM      6  C   UNL     1      -1.703  13.807  23.209  0.00  0.00    +0.000 C 
ATOM      7  N   UNL     1      -1.395  13.432  21.852  0.00  0.00    +0.000 N 
ATOM      8  C   UNL     1      -0.682  12.311  21.559  0.00  0.00    +0.000 A 
ATOM      9  N   UNL     1      -0.488  11.416  22.542  0.00  0.00    +0.000 NA
ATOM     10  C   UNL     1       0.135  10.260  22.252  0.00  0.00    +0.000 A 
ATOM     11  C   UNL     1       0.300   9.269  23.362  0.00  0.00    +0.000 C 
ATOM     12  C   UNL     1       0.602   9.979  20.990  0.00  0.00    +0.000 A 
ATOM     13  C   UNL     1       0.398  10.953  20.035  0.00  0.00    +0.000 A 
ATOM     14  C   UNL     1       0.919  10.764  18.642  0.00  0.00    +0.000 C 
ATOM     15  N   UNL     1      -0.243  12.113  20.303  0.00  0.00    +0.000 NA
ATOM     16  C   UNL     1      -1.664  14.512  20.933  0.00  0.00    +0.000 C 
ATOM     17  C   UNL     1      -2.797  15.310  21.622  0.00  0.00    +0.000 C 
ATOM     18  C   UNL     1      -4.174  15.099  20.989  0.00  0.00    +0.000 C 
ENDROOT
BRANCH   1  24
ATOM     19  C   UNL     1      -5.233  12.411  18.758  0.00  0.00    +0.000 A 
ATOM     20  C   UNL     1      -5.715  12.394  17.432  0.00  0.00    +0.000 A 
ATOM     21  C   UNL     1      -7.010  12.812  17.125  0.00  0.00    +0.000 A 
ATOM     22  C   UNL     1      -7.821  13.323  18.128  0.00  0.00    +0.000 A 
ATOM     23  C   UNL     1      -7.336  13.416  19.432  0.00  0.00    +0.000 A 
ATOM     24  C   UNL     1      -6.078  12.897  19.786  0.00  0.00    +0.000 A 
BRANCH  19  26
ATOM     25  C   UNL     1      -3.405  10.813  17.993  0.00  0.00    +0.000 C 
ATOM     26  C   UNL     1      -3.818  11.901  18.975  0.00  0.00    +0.000 C 
ENDBRANCH  19  26
ENDBRANCH   1  24
TORSDOF 2
ENDMDL
MODEL 7
REMARK VINA RESULT:      -6.3      2.276      3.442
REMARK  Name = 
REMARK  5 active torsions:
REMARK  status: ('A' for Active; 'I' for Inactive)
REMARK    1  A    between atoms: C_1  and  C_2
REMARK    2  A    between atoms: C_2  and  C_3
REMARK    3  A    between atoms: C_8  and  C_9
REMARK    4  A    between atoms: C_18  and  C_19
REMARK    5  A    between atoms: C_21  and  C_22
REMARK                            x       y       z     vdW  Elec       q    Type
REMARK                         _______ _______ _______ _____ _____    ______ ____
ROOT
ATOM      1  C   UNL     1      -0.014  11.083  18.981  0.00  0.00    +0.000 C 
ATOM      2  O   UNL     1      -0.649  10.919  17.939  0.00  0.00    +0.000 OA
ATOM      3  N   UNL     1       0.272  12.366  19.445  0.00  0.00    +0.000 N 
ATOM      4  C   UNL     1      -0.241  13.511  18.717  0.00  0.00    +0.000 C 
ATOM      5  C   UNL     1      -0.114  14.710  19.666  0.00  0.00    +0.000 C 
ATOM      6  C   UNL     1      -1.480  15.153  20.191  0.00  0.00    +0.000 C 
ATOM      7  N   UNL     1      -1.667  14.302  21.339  0.00  0.00    +0.000 N 
ATOM      8  C   UNL     1      -2.901  14.025  21.838  0.00  0.00    +0.000 A 
ATOM      9  N   UNL     1      -3.968  14.350  21.088  0.00  0.00    +0.000 NA
ATOM     10  C   UNL     1      -5.194  14.003  21.520  0.00  0.00    +0.000 A 
ATOM     11  C   UNL     1      -6.357  14.345  20.641  0.00  0.00    +0.000 C 
ATOM     12  C   UNL     1      -5.389  13.354  22.717  0.00  0.00    +0.000 A 
ATOM     13  C   UNL     1      -4.256  13.078  23.451  0.00  0.00    +0.000 A 
ATOM     14  C   UNL     1      -4.368  12.422  24.795  0.00  0.00    +0.000 C 
ATOM     15  N   UNL     1      -3.014  13.402  23.025  0.00  0.00    +0.000 NA
ATOM     16  C   UNL     1      -0.419  14.059  22.023  0.00  0.00    +0.000 C 
ATOM     17  C   UNL     1       0.644  14.179  20.905  0.00  0.00    +0.000 C 
ATOM     18  C   UNL     1       1.214  12.834  20.448  0.00  0.00    +0.000 C 
ENDROOT
BRANCH   1  24
ATOM     19  C   UNL     1       1.404   8.977  19.278  0.00  0.00    +0.000 A 
ATOM     20  C   UNL     1       1.729   7.846  20.058  0.00  0.00    +0.000 A 
ATOM     21  C   UNL     1       1.118   7.614  21.289  0.00  0.00    +0.000 A 
ATOM     22  C   UNL     1       0.118   8.468  21.731  0.00  0.00    +0.000 A 
ATOM     23  C   UNL     1      -0.267   9.551  20.941  0.00  0.00    +0.000 A 
ATOM     24  C   UNL     1       0.411   9.870  19.751  0.00  0.00    +0.000 A 
BRANCH  19  26
ATOM     25  C   UNL     1       3.050   7.957  17.626  0.00  0.00    +0.000 C 
ATOM     26  C   UNL     1       2.159   9.144  17.970  0.00  0.00    +0.000 C 
ENDBRANCH  19  26
ENDBRANCH   1  24
TORSDOF 2
ENDMDL
MODEL 8
REMARK VINA RESULT:      -6.3      1.841      2.413
REMARK  Name = 
REMARK  5 active torsions:
REMARK  status: ('A' for Active; 'I' for Inactive)
REMARK    1  A    between atoms: C_1  and  C_2
REMARK    2  A    between atoms: C_2  and  C_3
REMARK    3  A    between atoms: C_8  and  C_9
REMARK    4  A    between atoms: C_18  and  C_19
REMARK    5  A    between atoms: C_21  and  C_22
REMARK                            x       y       z     vdW  Elec       q    Type
REMARK                         _______ _______ _______ _____ _____    ______ ____
ROOT
ATOM      1  C   UNL     1      -0.721  13.682  20.007  0.00  0.00    +0.000 C 
ATOM      2  O   UNL     1      -0.717  14.689  19.297  0.00  0.00    +0.000 OA
ATOM      3  N   UNL     1      -1.129  13.751  21.338  0.00  0.00    +0.000 N 
ATOM      4  C   UNL     1      -1.609  15.015  21.864  0.00  0.00    +0.000 C 
ATOM      5  C   UNL     1      -2.341  14.680  23.172  0.00  0.00    +0.000 C 
ATOM      6  C   UNL     1      -3.855  14.822  23.016  0.00  0.00    +0.000 C 
ATOM      7  N   UNL     1      -4.241  13.532  22.504  0.00  0.00    +0.000 N 
ATOM      8  C   UNL     1      -5.392  13.349  21.802  0.00  0.00    +0.000 A 
ATOM      9  N   UNL     1      -6.042  14.443  21.368  0.00  0.00    +0.000 NA
ATOM     10  C   UNL     1      -7.131  14.285  20.596  0.00  0.00    +0.000 A 
ATOM     11  C   UNL     1      -7.808  15.524  20.098  0.00  0.00    +0.000 C 
ATOM     12  C   UNL     1      -7.615  13.042  20.261  0.00  0.00    +0.000 A 
ATOM     13  C   UNL     1      -6.920  11.964  20.764  0.00  0.00    +0.000 A 
ATOM     14  C   UNL     1      -7.400  10.567  20.501  0.00  0.00    +0.000 C 
ATOM     15  N   UNL     1      -5.812  12.102  21.527  0.00  0.00    +0.000 NA
ATOM     16  C   UNL     1      -3.440  12.477  23.077  0.00  0.00    +0.000 C 
ATOM     17  C   UNL     1      -2.097  13.170  23.408  0.00  0.00    +0.000 C 
ATOM     18  C   UNL     1      -0.965  12.818  22.440  0.00  0.00    +0.000 C 
ENDROOT
BRANCH   1  24
ATOM     19  C   UNL     1       1.047  12.044  19.155  0.00  0.00    +0.000 A 
ATOM     20  C   UNL     1       1.346  10.804  18.551  0.00  0.00    +0.000 A 
ATOM     21  C   UNL     1       0.339   9.899  18.216  0.00  0.00    +0.000 A 
ATOM     22  C   UNL     1      -0.989  10.247  18.412  0.00  0.00    +0.000 A 
ATOM     23  C   UNL     1      -1.307  11.497  18.942  0.00  0.00    +0.000 A 
ATOM     24  C   UNL     1      -0.309  12.380  19.391  0.00  0.00    +0.000 A 
BRANCH  19  26
ATOM     25  C   UNL     1       2.759  13.733  18.322  0.00  0.00    +0.000 C 
ATOM     26  C   UNL     1       2.227  12.934  19.505  0.00  0.00    +0.000 C 
ENDBRANCH  19  26
ENDBRANCH   1  24
TORSDOF 2
ENDMDL
MODEL 9
REMARK VINA RESULT:      -6.3      2.374      3.906
REMARK  Name = 
REMARK  5 active torsions:
REMARK  status: ('A' for Active; 'I' for Inactive)
REMARK    1  A    between atoms: C_1  and  C_2
REMARK    2  A    between atoms: C_2  and  C_3
REMARK    3  A    between atoms: C_8  and  C_9
REMARK    4  A    between atoms: C_18  and  C_19
REMARK    5  A    between atoms: C_21  and  C_22
REMARK                            x       y       z     vdW  Elec       q    Type
REMARK                         _______ _______ _______ _____ _____    ______ ____
ROOT
ATOM      1  C   UNL     1       0.266  10.949  18.796  0.00  0.00    +0.000 C 
ATOM      2  O   UNL     1      -0.373  10.791  17.756  0.00  0.00    +0.000 OA
ATOM      3  N   UNL     1       0.569  12.230  19.257  0.00  0.00    +0.000 N 
ATOM      4  C   UNL     1       0.068  13.379  18.527  0.00  0.00    +0.000 C 
ATOM      5  C   UNL     1       0.211  14.579  19.474  0.00  0.00    +0.000 C 
ATOM      6  C   UNL     1      -1.148  15.040  20.000  0.00  0.00    +0.000 C 
ATOM      7  N   UNL     1      -1.343  14.194  21.150  0.00  0.00    +0.000 N 
ATOM      8  C   UNL     1      -2.580  13.933  21.652  0.00  0.00    +0.000 A 
ATOM      9  N   UNL     1      -3.644  14.269  20.903  0.00  0.00    +0.000 NA
ATOM     10  C   UNL     1      -4.873  13.939  21.338  0.00  0.00    +0.000 A 
ATOM     11  C   UNL     1      -6.033  14.294  20.460  0.00  0.00    +0.000 C 
ATOM     12  C   UNL     1      -5.075  13.295  22.536  0.00  0.00    +0.000 A 
ATOM     13  C   UNL     1      -3.944  13.007  23.269  0.00  0.00    +0.000 A 
ATOM     14  C   UNL     1      -4.062  12.355  24.614  0.00  0.00    +0.000 C 
ATOM     15  N   UNL     1      -2.699  13.314  22.840  0.00  0.00    +0.000 NA
ATOM     16  C   UNL     1      -0.098  13.937  21.833  0.00  0.00    +0.000 C 
ATOM     17  C   UNL     1       0.966  14.041  20.713  0.00  0.00    +0.000 C 
ATOM     18  C   UNL     1       1.518  12.689  20.258  0.00  0.00    +0.000 C 
ENDROOT
BRANCH   1  24
ATOM     19  C   UNL     1       0.215   9.472  20.881  0.00  0.00    +0.000 A 
ATOM     20  C   UNL     1       0.669   8.312  21.545  0.00  0.00    +0.000 A 
ATOM     21  C   UNL     1       1.532   7.411  20.921  0.00  0.00    +0.000 A 
ATOM     22  C   UNL     1       2.014   7.689  19.651  0.00  0.00    +0.000 A 
ATOM     23  C   UNL     1       1.632   8.866  19.007  0.00  0.00    +0.000 A 
ATOM     24  C   UNL     1       0.677   9.733  19.568  0.00  0.00    +0.000 A 
BRANCH  19  26
ATOM     25  C   UNL     1      -0.720  10.136  23.154  0.00  0.00    +0.000 C 
ATOM     26  C   UNL     1      -0.748  10.363  21.648  0.00  0.00    +0.000 C 
ENDBRANCH  19  26
ENDBRANCH   1  24
TORSDOF 2
ENDMDL
