MODEL 1
REMARK VINA RESULT:      -7.7      0.000      0.000
REMARK  Name = 
REMARK  3 active torsions:
REMARK  status: ('A' for Active; 'I' for Inactive)
REMARK    1  A    between atoms: C_5  and  C_6
REMARK    2  A    between atoms: C_6  and  O_7
REMARK    3  A    between atoms: O_7  and  C_8
REMARK                            x       y       z     vdW  Elec       q    Type
REMARK                         _______ _______ _______ _____ _____    ______ ____
ROOT
ATOM      1  C   UNL     1       3.285   3.765  17.606  0.00  0.00    +0.000 A 
ATOM      2  C   UNL     1       3.104   2.381  17.740  0.00  0.00    +0.000 A 
ATOM      3  C   UNL     1       2.417   1.861  18.832  0.00  0.00    +0.000 A 
ATOM      4  C   UNL     1       1.910   2.722  19.798  0.00  0.00    +0.000 A 
ATOM      5  C   UNL     1       2.088   4.109  19.678  0.00  0.00    +0.000 A 
ATOM      6  C   UNL     1       1.580   4.975  20.654  0.00  0.00    +0.000 A 
ATOM      7  C   UNL     1       1.761   6.344  20.530  0.00  0.00    +0.000 A 
ATOM      8  C   UNL     1       2.446   6.804  19.424  0.00  0.00    +0.000 A 
ATOM      9  N   UNL     1       2.950   6.001  18.463  0.00  0.00    +0.000 NA
ATOM     10  C   UNL     1       2.784   4.658  18.574  0.00  0.00    +0.000 A 
ENDROOT
BRANCH   1  11
ATOM     11  O   UNL     1       4.008   4.329  16.576  0.00  0.00    +0.000 OA
BRANCH  11  12
ATOM     12  C   UNL     1       5.383   3.963  16.469  0.00  0.00    +0.000 C 
BRANCH  12  17
ATOM     13  F   UNL     1       8.652   7.896  18.868  0.00  0.00    +0.000 F 
ATOM     14  C   UNL     1       7.871   6.961  18.312  0.00  0.00    +0.000 A 
ATOM     15  C   UNL     1       7.078   7.295  17.221  0.00  0.00    +0.000 A 
ATOM     16  C   UNL     1       6.271   6.319  16.634  0.00  0.00    +0.000 A 
ATOM     17  C   UNL     1       6.266   5.002  17.130  0.00  0.00    +0.000 A 
ATOM     18  C   UNL     1       7.058   4.695  18.247  0.00  0.00    +0.000 A 
ATOM     19  C   UNL     1       7.864   5.673  18.833  0.00  0.00    +0.000 A 
ENDBRANCH  12  17
ENDBRANCH  11  12
ENDBRANCH   1  11
TORSDOF 3
ENDMDL
MODEL 2
REMARK VINA RESULT:      -7.6      0.230      1.132
REMARK  Name = 
REMARK  3 active torsions:
REMARK  status: ('A' for Active; 'I' for Inactive)
REMARK    1  A    between atoms: C_5  and  C_6
REMARK    2  A    between atoms: C_6  and  O_7
REMARK    3  A    between atoms: O_7  and  C_8
REMARK                            x       y       z     vdW  Elec       q    Type
REMARK                         _______ _______ _______ _____ _____    ______ ____
ROOT
ATOM      1  C   UNL     1       3.502   3.646  17.601  0.00  0.00    +0.000 A 
ATOM      2  C   UNL     1       3.432   2.262  17.816  0.00  0.00    +0.000 A 
ATOM      3  C   UNL     1       2.824   1.756  18.960  0.00  0.00    +0.000 A 
ATOM      4  C   UNL     1       2.285   2.629  19.896  0.00  0.00    +0.000 A 
ATOM      5  C   UNL     1       2.351   4.017  19.694  0.00  0.00    +0.000 A 
ATOM      6  C   UNL     1       1.811   4.896  20.640  0.00  0.00    +0.000 A 
ATOM      7  C   UNL     1       1.881   6.266  20.435  0.00  0.00    +0.000 A 
ATOM      8  C   UNL     1       2.492   6.713  19.282  0.00  0.00    +0.000 A 
ATOM      9  N   UNL     1       3.024   5.895  18.347  0.00  0.00    +0.000 NA
ATOM     10  C   UNL     1       2.965   4.553  18.536  0.00  0.00    +0.000 A 
ENDROOT
BRANCH   1  11
ATOM     11  O   UNL     1       4.144   4.204  16.515  0.00  0.00    +0.000 OA
BRANCH  11  12
ATOM     12  C   UNL     1       5.538   3.932  16.373  0.00  0.00    +0.000 C 
BRANCH  12  17
ATOM     13  F   UNL     1       8.637   7.909  18.921  0.00  0.00    +0.000 F 
ATOM     14  C   UNL     1       7.909   6.969  18.304  0.00  0.00    +0.000 A 
ATOM     15  C   UNL     1       7.843   5.692  18.849  0.00  0.00    +0.000 A 
ATOM     16  C   UNL     1       7.077   4.714  18.213  0.00  0.00    +0.000 A 
ATOM     17  C   UNL     1       6.364   5.014  17.038  0.00  0.00    +0.000 A 
ATOM     18  C   UNL     1       6.466   6.304  16.494  0.00  0.00    +0.000 A 
ATOM     19  C   UNL     1       7.233   7.282  17.131  0.00  0.00    +0.000 A 
ENDBRANCH  12  17
ENDBRANCH  11  12
ENDBRANCH   1  11
TORSDOF 3
ENDMDL
MODEL 3
REMARK VINA RESULT:      -7.5      1.044      2.636
REMARK  Name = 
REMARK  3 active torsions:
REMARK  status: ('A' for Active; 'I' for Inactive)
REMARK    1  A    between atoms: C_5  and  C_6
REMARK    2  A    between atoms: C_6  and  O_7
REMARK    3  A    between atoms: O_7  and  C_8
REMARK                            x       y       z     vdW  Elec       q    Type
REMARK                         _______ _______ _______ _____ _____    ______ ____
ROOT
ATOM      1  C   UNL     1       3.151   5.194  17.974  0.00  0.00    +0.000 A 
ATOM      2  C   UNL     1       3.128   6.570  18.248  0.00  0.00    +0.000 A 
ATOM      3  C   UNL     1       2.504   7.050  19.394  0.00  0.00    +0.000 A 
ATOM      4  C   UNL     1       1.897   6.160  20.271  0.00  0.00    +0.000 A 
ATOM      5  C   UNL     1       1.910   4.781  20.007  0.00  0.00    +0.000 A 
ATOM      6  C   UNL     1       1.294   3.886  20.890  0.00  0.00    +0.000 A 
ATOM      7  C   UNL     1       1.309   2.525  20.621  0.00  0.00    +0.000 A 
ATOM      8  C   UNL     1       1.945   2.104  19.473  0.00  0.00    +0.000 A 
ATOM      9  N   UNL     1       2.550   2.937  18.598  0.00  0.00    +0.000 NA
ATOM     10  C   UNL     1       2.540   4.272  18.846  0.00  0.00    +0.000 A 
ENDROOT
BRANCH   1  11
ATOM     11  O   UNL     1       3.703   4.668  16.824  0.00  0.00    +0.000 OA
BRANCH  11  12
ATOM     12  C   UNL     1       4.993   4.069  16.937  0.00  0.00    +0.000 C 
BRANCH  12  17
ATOM     13  F   UNL     1       8.786   7.781  18.872  0.00  0.00    +0.000 F 
ATOM     14  C   UNL     1       7.894   6.899  18.401  0.00  0.00    +0.000 A 
ATOM     15  C   UNL     1       7.535   5.808  19.184  0.00  0.00    +0.000 A 
ATOM     16  C   UNL     1       6.599   4.894  18.699  0.00  0.00    +0.000 A 
ATOM     17  C   UNL     1       6.009   5.076  17.434  0.00  0.00    +0.000 A 
ATOM     18  C   UNL     1       6.406   6.173  16.653  0.00  0.00    +0.000 A 
ATOM     19  C   UNL     1       7.343   7.086  17.140  0.00  0.00    +0.000 A 
ENDBRANCH  12  17
ENDBRANCH  11  12
ENDBRANCH   1  11
TORSDOF 3
ENDMDL
MODEL 4
REMARK VINA RESULT:      -7.4      0.874      1.462
REMARK  Name = 
REMARK  3 active torsions:
REMARK  status: ('A' for Active; 'I' for Inactive)
REMARK    1  A    between atoms: C_5  and  C_6
REMARK    2  A    between atoms: C_6  and  O_7
REMARK    3  A    between atoms: O_7  and  C_8
REMARK                            x       y       z     vdW  Elec       q    Type
REMARK                         _______ _______ _______ _____ _____    ______ ____
ROOT
ATOM      1  C   UNL     1       2.577   4.007  18.253  0.00  0.00    +0.000 A 
ATOM      2  C   UNL     1       2.196   2.758  18.765  0.00  0.00    +0.000 A 
ATOM      3  C   UNL     1       1.535   2.668  19.985  0.00  0.00    +0.000 A 
ATOM      4  C   UNL     1       1.254   3.824  20.703  0.00  0.00    +0.000 A 
ATOM      5  C   UNL     1       1.634   5.080  20.203  0.00  0.00    +0.000 A 
ATOM      6  C   UNL     1       1.353   6.244  20.929  0.00  0.00    +0.000 A 
ATOM      7  C   UNL     1       1.733   7.481  20.431  0.00  0.00    +0.000 A 
ATOM      8  C   UNL     1       2.381   7.513  19.214  0.00  0.00    +0.000 A 
ATOM      9  N   UNL     1       2.668   6.412  18.485  0.00  0.00    +0.000 NA
ATOM     10  C   UNL     1       2.307   5.194  18.963  0.00  0.00    +0.000 A 
ENDROOT
BRANCH   1  11
ATOM     11  O   UNL     1       3.285   4.150  17.078  0.00  0.00    +0.000 OA
BRANCH  11  12
ATOM     12  C   UNL     1       4.593   3.580  17.033  0.00  0.00    +0.000 C 
BRANCH  12  17
ATOM     13  F   UNL     1       8.463   7.343  18.697  0.00  0.00    +0.000 F 
ATOM     14  C   UNL     1       7.555   6.446  18.293  0.00  0.00    +0.000 A 
ATOM     15  C   UNL     1       6.987   5.583  19.222  0.00  0.00    +0.000 A 
ATOM     16  C   UNL     1       6.032   4.655  18.804  0.00  0.00    +0.000 A 
ATOM     17  C   UNL     1       5.634   4.596  17.456  0.00  0.00    +0.000 A 
ATOM     18  C   UNL     1       6.240   5.462  16.531  0.00  0.00    +0.000 A 
ATOM     19  C   UNL     1       7.195   6.389  16.952  0.00  0.00    +0.000 A 
ENDBRANCH  12  17
ENDBRANCH  11  12
ENDBRANCH   1  11
TORSDOF 3
ENDMDL
MODEL 5
REMARK VINA RESULT:      -7.4      1.062      2.389
REMARK  Name = 
REMARK  3 active torsions:
REMARK  status: ('A' for Active; 'I' for Inactive)
REMARK    1  A    between atoms: C_5  and  C_6
REMARK    2  A    between atoms: C_6  and  O_7
REMARK    3  A    between atoms: O_7  and  C_8
REMARK                            x       y       z     vdW  Elec       q    Type
REMARK                         _______ _______ _______ _____ _____    ______ ____
ROOT
ATOM      1  C   UNL     1       3.199   5.119  17.888  0.00  0.00    +0.000 A 
ATOM      2  C   UNL     1       3.194   6.508  18.082  0.00  0.00    +0.000 A 
ATOM      3  C   UNL     1       2.584   7.061  19.204  0.00  0.00    +0.000 A 
ATOM      4  C   UNL     1       1.975   6.230  20.135  0.00  0.00    +0.000 A 
ATOM      5  C   UNL     1       1.970   4.838  19.950  0.00  0.00    +0.000 A 
ATOM      6  C   UNL     1       1.351   4.002  20.887  0.00  0.00    +0.000 A 
ATOM      7  C   UNL     1       1.348   2.628  20.697  0.00  0.00    +0.000 A 
ATOM      8  C   UNL     1       1.971   2.134  19.570  0.00  0.00    +0.000 A 
ATOM      9  N   UNL     1       2.578   2.909  18.644  0.00  0.00    +0.000 NA
ATOM     10  C   UNL     1       2.585   4.256  18.815  0.00  0.00    +0.000 A 
ENDROOT
BRANCH   1  11
ATOM     11  O   UNL     1       3.736   4.522  16.766  0.00  0.00    +0.000 OA
BRANCH  11  12
ATOM     12  C   UNL     1       5.029   3.932  16.898  0.00  0.00    +0.000 C 
BRANCH  12  17
ATOM     13  F   UNL     1       8.736   7.720  18.852  0.00  0.00    +0.000 F 
ATOM     14  C   UNL     1       7.848   6.824  18.401  0.00  0.00    +0.000 A 
ATOM     15  C   UNL     1       7.356   6.945  17.107  0.00  0.00    +0.000 A 
ATOM     16  C   UNL     1       6.439   6.007  16.631  0.00  0.00    +0.000 A 
ATOM     17  C   UNL     1       6.022   4.937  17.445  0.00  0.00    +0.000 A 
ATOM     18  C   UNL     1       6.515   4.850  18.756  0.00  0.00    +0.000 A 
ATOM     19  C   UNL     1       7.432   5.791  19.231  0.00  0.00    +0.000 A 
ENDBRANCH  12  17
ENDBRANCH  11  12
ENDBRANCH   1  11
TORSDOF 3
ENDMDL
MODEL 6
REMARK VINA RESULT:      -7.3      2.892      5.913
REMARK  Name = 
REMARK  3 active torsions:
REMARK  status: ('A' for Active; 'I' for Inactive)
REMARK    1  A    between atoms: C_5  and  C_6
REMARK    2  A    between atoms: C_6  and  O_7
REMARK    3  A    between atoms: O_7  and  C_8
REMARK                            x       y       z     vdW  Elec       q    Type
REMARK                         _______ _______ _______ _____ _____    ______ ____
ROOT
ATOM      1  C   UNL     1       5.265   3.894  16.630  0.00  0.00    +0.000 A 
ATOM      2  C   UNL     1       5.227   4.041  15.235  0.00  0.00    +0.000 A 
ATOM      3  C   UNL     1       6.016   4.998  14.606  0.00  0.00    +0.000 A 
ATOM      4  C   UNL     1       6.844   5.815  15.365  0.00  0.00    +0.000 A 
ATOM      5  C   UNL     1       6.887   5.680  16.762  0.00  0.00    +0.000 A 
ATOM      6  C   UNL     1       7.719   6.508  17.526  0.00  0.00    +0.000 A 
ATOM      7  C   UNL     1       7.757   6.371  18.906  0.00  0.00    +0.000 A 
ATOM      8  C   UNL     1       6.957   5.403  19.477  0.00  0.00    +0.000 A 
ATOM      9  N   UNL     1       6.143   4.587  18.773  0.00  0.00    +0.000 NA
ATOM     10  C   UNL     1       6.093   4.713  17.422  0.00  0.00    +0.000 A 
ENDROOT
BRANCH   1  11
ATOM     11  O   UNL     1       4.462   3.003  17.311  0.00  0.00    +0.000 OA
BRANCH  11  12
ATOM     12  C   UNL     1       3.056   3.250  17.296  0.00  0.00    +0.000 C 
BRANCH  12  17
ATOM     13  F   UNL     1       0.953   2.629  22.501  0.00  0.00    +0.000 F 
ATOM     14  C   UNL     1       1.446   2.790  21.267  0.00  0.00    +0.000 A 
ATOM     15  C   UNL     1       2.797   2.556  21.036  0.00  0.00    +0.000 A 
ATOM     16  C   UNL     1       3.310   2.714  19.748  0.00  0.00    +0.000 A 
ATOM     17  C   UNL     1       2.471   3.092  18.684  0.00  0.00    +0.000 A 
ATOM     18  C   UNL     1       1.115   3.346  18.947  0.00  0.00    +0.000 A 
ATOM     19  C   UNL     1       0.604   3.189  20.236  0.00  0.00    +0.000 A 
ENDBRANCH  12  17
ENDBRANCH  11  12
ENDBRANCH   1  11
TORSDOF 3
ENDMDL
MODEL 7
REMARK VINA RESULT:      -7.3      2.902      5.854
REMARK  Name = 
REMARK  3 active torsions:
REMARK  status: ('A' for Active; 'I' for Inactive)
REMARK    1  A    between atoms: C_5  and  C_6
REMARK    2  A    between atoms: C_6  and  O_7
REMARK    3  A    between atoms: O_7  and  C_8
REMARK                            x       y       z     vdW  Elec       q    Type
REMARK                         _______ _______ _______ _____ _____    ______ ____
ROOT
ATOM      1  C   UNL     1       5.257   3.869  16.566  0.00  0.00    +0.000 A 
ATOM      2  C   UNL     1       5.266   3.966  15.166  0.00  0.00    +0.000 A 
ATOM      3  C   UNL     1       6.094   4.884  14.529  0.00  0.00    +0.000 A 
ATOM      4  C   UNL     1       6.915   5.711  15.285  0.00  0.00    +0.000 A 
ATOM      5  C   UNL     1       6.912   5.626  16.686  0.00  0.00    +0.000 A 
ATOM      6  C   UNL     1       7.737   6.464  17.447  0.00  0.00    +0.000 A 
ATOM      7  C   UNL     1       7.728   6.376  18.831  0.00  0.00    +0.000 A 
ATOM      8  C   UNL     1       6.890   5.446  19.411  0.00  0.00    +0.000 A 
ATOM      9  N   UNL     1       6.081   4.621  18.710  0.00  0.00    +0.000 NA
ATOM     10  C   UNL     1       6.077   4.699  17.355  0.00  0.00    +0.000 A 
ENDROOT
BRANCH   1  11
ATOM     11  O   UNL     1       4.414   3.019  17.252  0.00  0.00    +0.000 OA
BRANCH  11  12
ATOM     12  C   UNL     1       3.037   3.386  17.322  0.00  0.00    +0.000 C 
BRANCH  12  17
ATOM     13  F   UNL     1       0.933   2.582  22.503  0.00  0.00    +0.000 F 
ATOM     14  C   UNL     1       1.438   2.760  21.275  0.00  0.00    +0.000 A 
ATOM     15  C   UNL     1       0.587   3.095  20.229  0.00  0.00    +0.000 A 
ATOM     16  C   UNL     1       1.113   3.290  18.951  0.00  0.00    +0.000 A 
ATOM     17  C   UNL     1       2.495   3.164  18.719  0.00  0.00    +0.000 A 
ATOM     18  C   UNL     1       3.331   2.801  19.787  0.00  0.00    +0.000 A 
ATOM     19  C   UNL     1       2.803   2.605  21.064  0.00  0.00    +0.000 A 
ENDBRANCH  12  17
ENDBRANCH  11  12
ENDBRANCH   1  11
TORSDOF 3
ENDMDL
MODEL 8
REMARK VINA RESULT:      -7.2      0.870      1.072
REMARK  Name = 
REMARK  3 active torsions:
REMARK  status: ('A' for Active; 'I' for Inactive)
REMARK    1  A    between atoms: C_5  and  C_6
REMARK    2  A    between atoms: C_6  and  O_7
REMARK    3  A    between atoms: O_7  and  C_8
REMARK                            x       y       z     vdW  Elec       q    Type
REMARK                         _______ _______ _______ _____ _____    ______ ____
ROOT
ATOM      1  C   UNL     1       2.536   3.928  18.275  0.00  0.00    +0.000 A 
ATOM      2  C   UNL     1       2.121   2.704  18.819  0.00  0.00    +0.000 A 
ATOM      3  C   UNL     1       1.489   2.661  20.057  0.00  0.00    +0.000 A 
ATOM      4  C   UNL     1       1.270   3.840  20.759  0.00  0.00    +0.000 A 
ATOM      5  C   UNL     1       1.684   5.071  20.227  0.00  0.00    +0.000 A 
ATOM      6  C   UNL     1       1.467   6.258  20.937  0.00  0.00    +0.000 A 
ATOM      7  C   UNL     1       1.880   7.471  20.406  0.00  0.00    +0.000 A 
ATOM      8  C   UNL     1       2.498   7.455  19.173  0.00  0.00    +0.000 A 
ATOM      9  N   UNL     1       2.724   6.331  18.459  0.00  0.00    +0.000 NA
ATOM     10  C   UNL     1       2.329   5.137  18.968  0.00  0.00    +0.000 A 
ENDROOT
BRANCH   1  11
ATOM     11  O   UNL     1       3.219   4.023  17.080  0.00  0.00    +0.000 OA
BRANCH  11  12
ATOM     12  C   UNL     1       4.541   3.487  17.042  0.00  0.00    +0.000 C 
BRANCH  12  17
ATOM     13  F   UNL     1       8.318   7.426  18.500  0.00  0.00    +0.000 F 
ATOM     14  C   UNL     1       7.415   6.495  18.167  0.00  0.00    +0.000 A 
ATOM     15  C   UNL     1       6.839   6.526  16.902  0.00  0.00    +0.000 A 
ATOM     16  C   UNL     1       5.905   5.551  16.549  0.00  0.00    +0.000 A 
ATOM     17  C   UNL     1       5.555   4.534  17.456  0.00  0.00    +0.000 A 
ATOM     18  C   UNL     1       6.132   4.538  18.735  0.00  0.00    +0.000 A 
ATOM     19  C   UNL     1       7.066   5.515  19.087  0.00  0.00    +0.000 A 
ENDBRANCH  12  17
ENDBRANCH  11  12
ENDBRANCH   1  11
TORSDOF 3
ENDMDL
MODEL 9
REMARK VINA RESULT:      -7.2      0.969      1.492
REMARK  Name = 
REMARK  3 active torsions:
REMARK  status: ('A' for Active; 'I' for Inactive)
REMARK    1  A    between atoms: C_5  and  C_6
REMARK    2  A    between atoms: C_6  and  O_7
REMARK    3  A    between atoms: O_7  and  C_8
REMARK                            x       y       z     vdW  Elec       q    Type
REMARK                         _______ _______ _______ _____ _____    ______ ____
ROOT
ATOM      1  C   UNL     1       3.110   4.837  18.311  0.00  0.00    +0.000 A 
ATOM      2  C   UNL     1       3.114   3.708  19.143  0.00  0.00    +0.000 A 
ATOM      3  C   UNL     1       2.634   3.791  20.446  0.00  0.00    +0.000 A 
ATOM      4  C   UNL     1       2.150   5.003  20.925  0.00  0.00    +0.000 A 
ATOM      5  C   UNL     1       2.144   6.140  20.102  0.00  0.00    +0.000 A 
ATOM      6  C   UNL     1       1.661   7.361  20.588  0.00  0.00    +0.000 A 
ATOM      7  C   UNL     1       1.659   8.482  19.771  0.00  0.00    +0.000 A 
ATOM      8  C   UNL     1       2.143   8.341  18.487  0.00  0.00    +0.000 A 
ATOM      9  N   UNL     1       2.617   7.181  17.984  0.00  0.00    +0.000 NA
ATOM     10  C   UNL     1       2.628   6.077  18.774  0.00  0.00    +0.000 A 
ENDROOT
BRANCH   1  11
ATOM     11  O   UNL     1       3.628   4.826  17.032  0.00  0.00    +0.000 OA
BRANCH  11  12
ATOM     12  C   UNL     1       4.940   4.290  16.866  0.00  0.00    +0.000 C 
BRANCH  12  17
ATOM     13  F   UNL     1       8.801   7.944  18.776  0.00  0.00    +0.000 F 
ATOM     14  C   UNL     1       7.881   7.076  18.337  0.00  0.00    +0.000 A 
ATOM     15  C   UNL     1       7.010   7.458  17.323  0.00  0.00    +0.000 A 
ATOM     16  C   UNL     1       6.058   6.551  16.858  0.00  0.00    +0.000 A 
ATOM     17  C   UNL     1       5.982   5.253  17.396  0.00  0.00    +0.000 A 
ATOM     18  C   UNL     1       6.856   4.898  18.435  0.00  0.00    +0.000 A 
ATOM     19  C   UNL     1       7.808   5.807  18.900  0.00  0.00    +0.000 A 
ENDBRANCH  12  17
ENDBRANCH  11  12
ENDBRANCH   1  11
TORSDOF 3
ENDMDL
