MODEL 1
REMARK VINA RESULT:      -7.5      0.000      0.000
REMARK  Name = 
REMARK  1 active torsions:
REMARK  status: ('A' for Active; 'I' for Inactive)
REMARK    1  A    between atoms: C_4  and  C_5
REMARK                            x       y       z     vdW  Elec       q    Type
REMARK                         _______ _______ _______ _____ _____    ______ ____
ROOT
ATOM      1  C   UNL     1       2.162   6.595  19.916  0.00  0.00    +0.000 A 
ATOM      2  C   UNL     1       3.093   6.249  18.960  0.00  0.00    +0.000 A 
ATOM      3  C   UNL     1       3.391   4.859  18.909  0.00  0.00    +0.000 A 
ATOM      4  C   UNL     1       4.259   4.117  18.085  0.00  0.00    +0.000 A 
ATOM      5  N   UNL     1       5.044   4.749  17.135  0.00  0.00    +0.000 N 
ATOM      6  C   UNL     1       5.548   4.005  15.987  0.00  0.00    +0.000 C 
ATOM      7  C   UNL     1       6.986   4.489  15.813  0.00  0.00    +0.000 C 
ATOM      8  C   UNL     1       6.986   5.874  16.433  0.00  0.00    +0.000 C 
ATOM      9  C   UNL     1       6.029   5.724  17.607  0.00  0.00    +0.000 C 
ATOM     10  N   UNL     1       4.237   2.769  18.211  0.00  0.00    +0.000 NA
ATOM     11  C   UNL     1       3.436   2.215  19.144  0.00  0.00    +0.000 A 
ATOM     12  N   UNL     1       2.608   2.834  20.003  0.00  0.00    +0.000 NA
ATOM     13  C   UNL     1       2.620   4.166  19.824  0.00  0.00    +0.000 A 
ATOM     14  S   UNL     1       1.621   5.201  20.752  0.00  0.00    +0.000 S 
ENDROOT
BRANCH   1  18
ATOM     15  C   UNL     1       0.498  10.440  20.765  0.00  0.00    +0.000 A 
ATOM     16  C   UNL     1       0.695   9.515  21.785  0.00  0.00    +0.000 A 
ATOM     17  C   UNL     1       1.298   8.293  21.498  0.00  0.00    +0.000 A 
ATOM     18  C   UNL     1       1.695   7.960  20.187  0.00  0.00    +0.000 A 
ATOM     19  C   UNL     1       1.510   8.911  19.178  0.00  0.00    +0.000 A 
ATOM     20  C   UNL     1       0.917  10.144  19.468  0.00  0.00    +0.000 A 
ENDBRANCH   1  18
TORSDOF 1
ENDMDL
MODEL 2
REMARK VINA RESULT:      -7.3      0.250      1.104
REMARK  Name = 
REMARK  1 active torsions:
REMARK  status: ('A' for Active; 'I' for Inactive)
REMARK    1  A    between atoms: C_4  and  C_5
REMARK                            x       y       z     vdW  Elec       q    Type
REMARK                         _______ _______ _______ _____ _____    ______ ____
ROOT
ATOM      1  C   UNL     1       2.122   6.630  19.930  0.00  0.00    +0.000 A 
ATOM      2  C   UNL     1       3.081   6.291  19.000  0.00  0.00    +0.000 A 
ATOM      3  C   UNL     1       3.456   4.919  19.019  0.00  0.00    +0.000 A 
ATOM      4  C   UNL     1       4.372   4.189  18.238  0.00  0.00    +0.000 A 
ATOM      5  N   UNL     1       5.133   4.818  17.266  0.00  0.00    +0.000 N 
ATOM      6  C   UNL     1       5.691   4.050  16.160  0.00  0.00    +0.000 C 
ATOM      7  C   UNL     1       7.102   4.604  15.975  0.00  0.00    +0.000 C 
ATOM      8  C   UNL     1       7.018   6.015  16.528  0.00  0.00    +0.000 C 
ATOM      9  C   UNL     1       6.057   5.867  17.700  0.00  0.00    +0.000 C 
ATOM     10  N   UNL     1       4.424   2.849  18.428  0.00  0.00    +0.000 NA
ATOM     11  C   UNL     1       3.644   2.297  19.379  0.00  0.00    +0.000 A 
ATOM     12  N   UNL     1       2.773   2.908  20.200  0.00  0.00    +0.000 NA
ATOM     13  C   UNL     1       2.714   4.229  19.959  0.00  0.00    +0.000 A 
ATOM     14  S   UNL     1       1.649   5.250  20.827  0.00  0.00    +0.000 S 
ENDROOT
BRANCH   1  18
ATOM     15  C   UNL     1       0.842  10.676  20.448  0.00  0.00    +0.000 A 
ATOM     16  C   UNL     1       1.141  10.186  19.181  0.00  0.00    +0.000 A 
ATOM     17  C   UNL     1       1.493   8.848  19.026  0.00  0.00    +0.000 A 
ATOM     18  C   UNL     1       1.577   7.979  20.132  0.00  0.00    +0.000 A 
ATOM     19  C   UNL     1       1.250   8.482  21.396  0.00  0.00    +0.000 A 
ATOM     20  C   UNL     1       0.883   9.823  21.550  0.00  0.00    +0.000 A 
ENDBRANCH   1  18
TORSDOF 1
ENDMDL
MODEL 3
REMARK VINA RESULT:      -7.2      2.243      4.311
REMARK  Name = 
REMARK  1 active torsions:
REMARK  status: ('A' for Active; 'I' for Inactive)
REMARK    1  A    between atoms: C_4  and  C_5
REMARK                            x       y       z     vdW  Elec       q    Type
REMARK                         _______ _______ _______ _____ _____    ______ ____
ROOT
ATOM      1  C   UNL     1       1.063   8.852  20.264  0.00  0.00    +0.000 A 
ATOM      2  C   UNL     1       1.421   7.543  20.510  0.00  0.00    +0.000 A 
ATOM      3  C   UNL     1       2.241   6.962  19.504  0.00  0.00    +0.000 A 
ATOM      4  C   UNL     1       2.815   5.681  19.390  0.00  0.00    +0.000 A 
ATOM      5  N   UNL     1       2.583   4.713  20.352  0.00  0.00    +0.000 N 
ATOM      6  C   UNL     1       3.515   3.605  20.519  0.00  0.00    +0.000 C 
ATOM      7  C   UNL     1       2.628   2.381  20.737  0.00  0.00    +0.000 C 
ATOM      8  C   UNL     1       1.342   2.955  21.301  0.00  0.00    +0.000 C 
ATOM      9  C   UNL     1       1.201   4.276  20.557  0.00  0.00    +0.000 C 
ATOM     10  N   UNL     1       3.653   5.465  18.347  0.00  0.00    +0.000 NA
ATOM     11  C   UNL     1       3.849   6.455  17.454  0.00  0.00    +0.000 A 
ATOM     12  N   UNL     1       3.319   7.690  17.451  0.00  0.00    +0.000 NA
ATOM     13  C   UNL     1       2.527   7.888  18.519  0.00  0.00    +0.000 A 
ATOM     14  S   UNL     1       1.758   9.392  18.794  0.00  0.00    +0.000 S 
ENDROOT
BRANCH   1  18
ATOM     15  C   UNL     1      -1.161  11.452  22.826  0.00  0.00    +0.000 A 
ATOM     16  C   UNL     1      -0.827  11.849  21.535  0.00  0.00    +0.000 A 
ATOM     17  C   UNL     1      -0.158  10.963  20.695  0.00  0.00    +0.000 A 
ATOM     18  C   UNL     1       0.210   9.674  21.131  0.00  0.00    +0.000 A 
ATOM     19  C   UNL     1      -0.155   9.282  22.424  0.00  0.00    +0.000 A 
ATOM     20  C   UNL     1      -0.838  10.168  23.264  0.00  0.00    +0.000 A 
ENDBRANCH   1  18
TORSDOF 1
ENDMDL
MODEL 4
REMARK VINA RESULT:      -7.2      3.252      7.130
REMARK  Name = 
REMARK  1 active torsions:
REMARK  status: ('A' for Active; 'I' for Inactive)
REMARK    1  A    between atoms: C_4  and  C_5
REMARK                            x       y       z     vdW  Elec       q    Type
REMARK                         _______ _______ _______ _____ _____    ______ ____
ROOT
ATOM      1  C   UNL     1       2.624   5.959  19.498  0.00  0.00    +0.000 A 
ATOM      2  C   UNL     1       1.830   6.857  20.180  0.00  0.00    +0.000 A 
ATOM      3  C   UNL     1       1.739   8.139  19.570  0.00  0.00    +0.000 A 
ATOM      4  C   UNL     1       1.036   9.302  19.938  0.00  0.00    +0.000 A 
ATOM      5  N   UNL     1       0.289   9.339  21.104  0.00  0.00    +0.000 N 
ATOM      6  C   UNL     1      -0.797  10.300  21.250  0.00  0.00    +0.000 C 
ATOM      7  C   UNL     1      -0.675  10.808  22.685  0.00  0.00    +0.000 C 
ATOM      8  C   UNL     1       0.027   9.679  23.416  0.00  0.00    +0.000 C 
ATOM      9  C   UNL     1       0.997   9.144  22.371  0.00  0.00    +0.000 C 
ATOM     10  N   UNL     1       1.064  10.346  19.075  0.00  0.00    +0.000 NA
ATOM     11  C   UNL     1       1.797  10.239  17.949  0.00  0.00    +0.000 A 
ATOM     12  N   UNL     1       2.532   9.195  17.530  0.00  0.00    +0.000 NA
ATOM     13  C   UNL     1       2.451   8.162  18.386  0.00  0.00    +0.000 A 
ATOM     14  S   UNL     1       3.251   6.680  18.076  0.00  0.00    +0.000 S 
ENDROOT
BRANCH   1  18
ATOM     15  C   UNL     1       3.540   2.071  21.020  0.00  0.00    +0.000 A 
ATOM     16  C   UNL     1       2.479   2.803  21.544  0.00  0.00    +0.000 A 
ATOM     17  C   UNL     1       2.157   4.039  20.990  0.00  0.00    +0.000 A 
ATOM     18  C   UNL     1       2.899   4.581  19.921  0.00  0.00    +0.000 A 
ATOM     19  C   UNL     1       3.948   3.821  19.391  0.00  0.00    +0.000 A 
ATOM     20  C   UNL     1       4.263   2.573  19.938  0.00  0.00    +0.000 A 
ENDBRANCH   1  18
TORSDOF 1
ENDMDL
MODEL 5
REMARK VINA RESULT:      -7.1      1.883      6.317
REMARK  Name = 
REMARK  1 active torsions:
REMARK  status: ('A' for Active; 'I' for Inactive)
REMARK    1  A    between atoms: C_4  and  C_5
REMARK                            x       y       z     vdW  Elec       q    Type
REMARK                         _______ _______ _______ _____ _____    ______ ____
ROOT
ATOM      1  C   UNL     1       4.396   4.298  17.120  0.00  0.00    +0.000 A 
ATOM      2  C   UNL     1       3.832   5.410  17.711  0.00  0.00    +0.000 A 
ATOM      3  C   UNL     1       2.885   5.114  18.729  0.00  0.00    +0.000 A 
ATOM      4  C   UNL     1       2.114   5.949  19.561  0.00  0.00    +0.000 A 
ATOM      5  N   UNL     1       2.179   7.326  19.436  0.00  0.00    +0.000 N 
ATOM      6  C   UNL     1       1.802   8.183  20.553  0.00  0.00    +0.000 C 
ATOM      7  C   UNL     1       1.011   9.325  19.918  0.00  0.00    +0.000 C 
ATOM      8  C   UNL     1       1.525   9.378  18.492  0.00  0.00    +0.000 C 
ATOM      9  C   UNL     1       1.769   7.913  18.159  0.00  0.00    +0.000 C 
ATOM     10  N   UNL     1       1.372   5.353  20.525  0.00  0.00    +0.000 NA
ATOM     11  C   UNL     1       1.367   4.007  20.604  0.00  0.00    +0.000 A 
ATOM     12  N   UNL     1       2.029   3.126  19.836  0.00  0.00    +0.000 NA
ATOM     13  C   UNL     1       2.789   3.748  18.917  0.00  0.00    +0.000 A 
ATOM     14  S   UNL     1       3.779   2.868  17.833  0.00  0.00    +0.000 S 
ENDROOT
BRANCH   1  18
ATOM     15  C   UNL     1       7.225   4.712  13.942  0.00  0.00    +0.000 A 
ATOM     16  C   UNL     1       7.526   5.173  15.220  0.00  0.00    +0.000 A 
ATOM     17  C   UNL     1       6.617   4.970  16.255  0.00  0.00    +0.000 A 
ATOM     18  C   UNL     1       5.383   4.326  16.033  0.00  0.00    +0.000 A 
ATOM     19  C   UNL     1       5.107   3.848  14.747  0.00  0.00    +0.000 A 
ATOM     20  C   UNL     1       6.025   4.040  13.710  0.00  0.00    +0.000 A 
ENDBRANCH   1  18
TORSDOF 1
ENDMDL
MODEL 6
REMARK VINA RESULT:      -7.1      2.202      4.158
REMARK  Name = 
REMARK  1 active torsions:
REMARK  status: ('A' for Active; 'I' for Inactive)
REMARK    1  A    between atoms: C_4  and  C_5
REMARK                            x       y       z     vdW  Elec       q    Type
REMARK                         _______ _______ _______ _____ _____    ______ ____
ROOT
ATOM      1  C   UNL     1       1.250   8.867  20.245  0.00  0.00    +0.000 A 
ATOM      2  C   UNL     1       1.560   7.545  20.485  0.00  0.00    +0.000 A 
ATOM      3  C   UNL     1       2.321   6.925  19.456  0.00  0.00    +0.000 A 
ATOM      4  C   UNL     1       2.836   5.621  19.330  0.00  0.00    +0.000 A 
ATOM      5  N   UNL     1       2.594   4.667  20.304  0.00  0.00    +0.000 N 
ATOM      6  C   UNL     1       3.483   3.520  20.446  0.00  0.00    +0.000 C 
ATOM      7  C   UNL     1       2.552   2.336  20.698  0.00  0.00    +0.000 C 
ATOM      8  C   UNL     1       1.310   2.967  21.301  0.00  0.00    +0.000 C 
ATOM      9  C   UNL     1       1.202   4.290  20.555  0.00  0.00    +0.000 C 
ATOM     10  N   UNL     1       3.629   5.365  18.261  0.00  0.00    +0.000 NA
ATOM     11  C   UNL     1       3.839   6.343  17.358  0.00  0.00    +0.000 A 
ATOM     12  N   UNL     1       3.362   7.599  17.366  0.00  0.00    +0.000 NA
ATOM     13  C   UNL     1       2.614   7.835  18.458  0.00  0.00    +0.000 A 
ATOM     14  S   UNL     1       1.919   9.372  18.751  0.00  0.00    +0.000 S 
ENDROOT
BRANCH   1  18
ATOM     15  C   UNL     1      -1.282  11.132  22.838  0.00  0.00    +0.000 A 
ATOM     16  C   UNL     1      -0.631   9.994  23.304  0.00  0.00    +0.000 A 
ATOM     17  C   UNL     1       0.240   9.308  22.462  0.00  0.00    +0.000 A 
ATOM     18  C   UNL     1       0.461   9.727  21.135  0.00  0.00    +0.000 A 
ATOM     19  C   UNL     1      -0.184  10.887  20.690  0.00  0.00    +0.000 A 
ATOM     20  C   UNL     1      -1.049  11.584  21.540  0.00  0.00    +0.000 A 
ENDBRANCH   1  18
TORSDOF 1
ENDMDL
MODEL 7
REMARK VINA RESULT:      -7.1      3.320      7.386
REMARK  Name = 
REMARK  1 active torsions:
REMARK  status: ('A' for Active; 'I' for Inactive)
REMARK    1  A    between atoms: C_4  and  C_5
REMARK                            x       y       z     vdW  Elec       q    Type
REMARK                         _______ _______ _______ _____ _____    ______ ____
ROOT
ATOM      1  C   UNL     1       5.953   4.262  15.143  0.00  0.00    +0.000 A 
ATOM      2  C   UNL     1       4.875   4.252  16.003  0.00  0.00    +0.000 A 
ATOM      3  C   UNL     1       5.199   4.562  17.353  0.00  0.00    +0.000 A 
ATOM      4  C   UNL     1       4.400   4.665  18.507  0.00  0.00    +0.000 A 
ATOM      5  N   UNL     1       3.040   4.407  18.452  0.00  0.00    +0.000 N 
ATOM      6  C   UNL     1       2.146   4.963  19.459  0.00  0.00    +0.000 C 
ATOM      7  C   UNL     1       1.170   3.833  19.779  0.00  0.00    +0.000 C 
ATOM      8  C   UNL     1       1.173   2.979  18.525  0.00  0.00    +0.000 C 
ATOM      9  C   UNL     1       2.620   3.061  18.058  0.00  0.00    +0.000 C 
ATOM     10  N   UNL     1       5.000   5.093  19.644  0.00  0.00    +0.000 NA
ATOM     11  C   UNL     1       6.324   5.344  19.626  0.00  0.00    +0.000 A 
ATOM     12  N   UNL     1       7.177   5.237  18.594  0.00  0.00    +0.000 NA
ATOM     13  C   UNL     1       6.546   4.851  17.471  0.00  0.00    +0.000 A 
ATOM     14  S   UNL     1       7.383   4.680  15.988  0.00  0.00    +0.000 S 
ENDROOT
BRANCH   1  18
ATOM     15  C   UNL     1       5.706   3.061  11.048  0.00  0.00    +0.000 A 
ATOM     16  C   UNL     1       4.556   3.161  11.826  0.00  0.00    +0.000 A 
ATOM     17  C   UNL     1       4.652   3.615  13.138  0.00  0.00    +0.000 A 
ATOM     18  C   UNL     1       5.894   3.958  13.708  0.00  0.00    +0.000 A 
ATOM     19  C   UNL     1       7.037   3.875  12.905  0.00  0.00    +0.000 A 
ATOM     20  C   UNL     1       6.940   3.430  11.582  0.00  0.00    +0.000 A 
ENDBRANCH   1  18
TORSDOF 1
ENDMDL
MODEL 8
REMARK VINA RESULT:      -6.9      3.243      7.230
REMARK  Name = 
REMARK  1 active torsions:
REMARK  status: ('A' for Active; 'I' for Inactive)
REMARK    1  A    between atoms: C_4  and  C_5
REMARK                            x       y       z     vdW  Elec       q    Type
REMARK                         _______ _______ _______ _____ _____    ______ ____
ROOT
ATOM      1  C   UNL     1       2.688   6.063  19.604  0.00  0.00    +0.000 A 
ATOM      2  C   UNL     1       1.858   6.946  20.262  0.00  0.00    +0.000 A 
ATOM      3  C   UNL     1       1.697   8.198  19.606  0.00  0.00    +0.000 A 
ATOM      4  C   UNL     1       0.941   9.337  19.939  0.00  0.00    +0.000 A 
ATOM      5  N   UNL     1       0.205   9.381  21.111  0.00  0.00    +0.000 N 
ATOM      6  C   UNL     1      -0.926  10.292  21.235  0.00  0.00    +0.000 C 
ATOM      7  C   UNL     1      -0.815  10.859  22.649  0.00  0.00    +0.000 C 
ATOM      8  C   UNL     1      -0.049   9.795  23.412  0.00  0.00    +0.000 C 
ATOM      9  C   UNL     1       0.935   9.270  22.376  0.00  0.00    +0.000 C 
ATOM     10  N   UNL     1       0.907  10.348  19.037  0.00  0.00    +0.000 NA
ATOM     11  C   UNL     1       1.633  10.235  17.906  0.00  0.00    +0.000 A 
ATOM     12  N   UNL     1       2.415   9.214  17.518  0.00  0.00    +0.000 NA
ATOM     13  C   UNL     1       2.394   8.210  18.412  0.00  0.00    +0.000 A 
ATOM     14  S   UNL     1       3.264   6.760  18.149  0.00  0.00    +0.000 S 
ENDROOT
BRANCH   1  18
ATOM     15  C   UNL     1       3.587   2.026  20.683  0.00  0.00    +0.000 A 
ATOM     16  C   UNL     1       4.338   2.681  19.713  0.00  0.00    +0.000 A 
ATOM     17  C   UNL     1       4.071   4.016  19.423  0.00  0.00    +0.000 A 
ATOM     18  C   UNL     1       3.036   4.717  20.075  0.00  0.00    +0.000 A 
ATOM     19  C   UNL     1       2.306   4.049  21.064  0.00  0.00    +0.000 A 
ATOM     20  C   UNL     1       2.583   2.711  21.365  0.00  0.00    +0.000 A 
ENDBRANCH   1  18
TORSDOF 1
ENDMDL
MODEL 9
REMARK VINA RESULT:      -6.9      1.902      6.391
REMARK  Name = 
REMARK  1 active torsions:
REMARK  status: ('A' for Active; 'I' for Inactive)
REMARK    1  A    between atoms: C_4  and  C_5
REMARK                            x       y       z     vdW  Elec       q    Type
REMARK                         _______ _______ _______ _____ _____    ______ ____
ROOT
ATOM      1  C   UNL     1       4.371   4.574  17.101  0.00  0.00    +0.000 A 
ATOM      2  C   UNL     1       3.788   5.642  17.750  0.00  0.00    +0.000 A 
ATOM      3  C   UNL     1       2.866   5.276  18.769  0.00  0.00    +0.000 A 
ATOM      4  C   UNL     1       2.088   6.052  19.649  0.00  0.00    +0.000 A 
ATOM      5  N   UNL     1       2.113   7.435  19.584  0.00  0.00    +0.000 N 
ATOM      6  C   UNL     1       1.732   8.232  20.743  0.00  0.00    +0.000 C 
ATOM      7  C   UNL     1       0.900   9.377  20.171  0.00  0.00    +0.000 C 
ATOM      8  C   UNL     1       1.389   9.507  18.741  0.00  0.00    +0.000 C 
ATOM      9  C   UNL     1       1.666   8.065  18.340  0.00  0.00    +0.000 C 
ATOM     10  N   UNL     1       1.379   5.395  20.597  0.00  0.00    +0.000 NA
ATOM     11  C   UNL     1       1.411   4.047  20.617  0.00  0.00    +0.000 A 
ATOM     12  N   UNL     1       2.084   3.219  19.800  0.00  0.00    +0.000 NA
ATOM     13  C   UNL     1       2.810   3.901  18.898  0.00  0.00    +0.000 A 
ATOM     14  S   UNL     1       3.806   3.097  17.760  0.00  0.00    +0.000 S 
ENDROOT
BRANCH   1  18
ATOM     15  C   UNL     1       7.231   4.540  13.924  0.00  0.00    +0.000 A 
ATOM     16  C   UNL     1       5.961   4.003  13.737  0.00  0.00    +0.000 A 
ATOM     17  C   UNL     1       5.024   4.082  14.764  0.00  0.00    +0.000 A 
ATOM     18  C   UNL     1       5.339   4.676  16.002  0.00  0.00    +0.000 A 
ATOM     19  C   UNL     1       6.613   5.232  16.164  0.00  0.00    +0.000 A 
ATOM     20  C   UNL     1       7.551   5.165  15.129  0.00  0.00    +0.000 A 
ENDBRANCH   1  18
TORSDOF 1
ENDMDL
