MODEL 1
REMARK VINA RESULT:      -7.4      0.000      0.000
REMARK  Name = 
REMARK  3 active torsions:
REMARK  status: ('A' for Active; 'I' for Inactive)
REMARK    1  A    between atoms: C_11  and  C_12
REMARK    2  A    between atoms: C_12  and  N_13
REMARK    3  A    between atoms: C_20  and  C_21
REMARK                            x       y       z     vdW  Elec       q    Type
REMARK                         _______ _______ _______ _____ _____    ______ ____
ROOT
ATOM      1  C   UNL     1       3.054   3.731  17.262  0.00  0.00    +0.000 C 
ENDROOT
BRANCH   1  12
ATOM      2 CL   UNL     1       1.883   1.883  19.532  0.00  0.00    +0.000 Cl
ATOM      3  C   UNL     1       1.903   3.612  19.556  0.00  0.00    +0.000 A 
ATOM      4  C   UNL     1       1.359   4.232  20.687  0.00  0.00    +0.000 A 
ATOM      5  C   UNL     1       1.335   5.618  20.774  0.00  0.00    +0.000 A 
ATOM      6  C   UNL     1       1.870   6.388  19.738  0.00  0.00    +0.000 A 
ATOM      7  C   UNL     1       1.837   7.789  19.791  0.00  0.00    +0.000 A 
ATOM      8  C   UNL     1       2.387   8.536  18.756  0.00  0.00    +0.000 A 
ATOM      9  C   UNL     1       2.963   7.856  17.707  0.00  0.00    +0.000 A 
ATOM     10  N   UNL     1       2.998   6.511  17.616  0.00  0.00    +0.000 NA
ATOM     11  C   UNL     1       2.452   5.770  18.607  0.00  0.00    +0.000 A 
ATOM     12  C   UNL     1       2.454   4.373  18.508  0.00  0.00    +0.000 A 
ENDBRANCH   1  12
BRANCH   1  13
ATOM     13  N   UNL     1       4.468   3.340  17.363  0.00  0.00    +0.000 NA
ATOM     14  C   UNL     1       5.076   3.695  18.656  0.00  0.00    +0.000 C 
ATOM     15  C   UNL     1       5.983   4.945  18.742  0.00  0.00    +0.000 C 
ATOM     16  N   UNL     1       6.599   5.299  17.493  0.00  0.00    +0.000 N 
ATOM     17  C   UNL     1       6.299   4.706  16.306  0.00  0.00    +0.000 A 
ATOM     18  N   UNL     1       7.015   5.272  15.354  0.00  0.00    +0.000 NA
ATOM     19  N   UNL     1       7.697   6.328  15.920  0.00  0.00    +0.000 NA
ATOM     20  C   UNL     1       7.388   6.374  17.199  0.00  0.00    +0.000 A 
ATOM     21  C   UNL     1       5.293   3.619  16.172  0.00  0.00    +0.000 C 
BRANCH  20  22
ATOM     22  C   UNL     1       7.746   7.526  18.128  0.00  0.00    +0.000 C 
ATOM     23  C   UNL     1       8.584   8.697  17.660  0.00  0.00    +0.000 C 
ATOM     24  C   UNL     1       7.107   8.855  17.755  0.00  0.00    +0.000 C 
ENDBRANCH  20  22
ENDBRANCH   1  13
TORSDOF 3
ENDMDL
MODEL 2
REMARK VINA RESULT:      -7.1      3.219      6.270
REMARK  Name = 
REMARK  3 active torsions:
REMARK  status: ('A' for Active; 'I' for Inactive)
REMARK    1  A    between atoms: C_11  and  C_12
REMARK    2  A    between atoms: C_12  and  N_13
REMARK    3  A    between atoms: C_20  and  C_21
REMARK                            x       y       z     vdW  Elec       q    Type
REMARK                         _______ _______ _______ _____ _____    ______ ____
ROOT
ATOM      1  C   UNL     1       3.177   7.168  19.340  0.00  0.00    +0.000 C 
ENDROOT
BRANCH   1  12
ATOM      2 CL   UNL     1       2.038   4.708  20.951  0.00  0.00    +0.000 Cl
ATOM      3  C   UNL     1       2.920   4.615  19.466  0.00  0.00    +0.000 A 
ATOM      4  C   UNL     1       3.133   3.335  18.940  0.00  0.00    +0.000 A 
ATOM      5  C   UNL     1       3.839   3.182  17.754  0.00  0.00    +0.000 A 
ATOM      6  C   UNL     1       4.320   4.307  17.082  0.00  0.00    +0.000 A 
ATOM      7  C   UNL     1       5.056   4.178  15.894  0.00  0.00    +0.000 A 
ATOM      8  C   UNL     1       5.513   5.311  15.234  0.00  0.00    +0.000 A 
ATOM      9  C   UNL     1       5.209   6.539  15.776  0.00  0.00    +0.000 A 
ATOM     10  N   UNL     1       4.518   6.700  16.924  0.00  0.00    +0.000 NA
ATOM     11  C   UNL     1       4.081   5.606  17.587  0.00  0.00    +0.000 A 
ATOM     12  C   UNL     1       3.391   5.759  18.796  0.00  0.00    +0.000 A 
ENDBRANCH   1  12
BRANCH   1  13
ATOM     13  N   UNL     1       1.790   7.657  19.320  0.00  0.00    +0.000 NA
ATOM     14  C   UNL     1       1.457   8.404  18.097  0.00  0.00    +0.000 C 
ATOM     15  C   UNL     1       1.422   9.949  18.145  0.00  0.00    +0.000 C 
ATOM     16  N   UNL     1       1.153  10.480  19.453  0.00  0.00    +0.000 N 
ATOM     17  C   UNL     1       1.095   9.721  20.582  0.00  0.00    +0.000 A 
ATOM     18  N   UNL     1       0.857  10.508  21.612  0.00  0.00    +0.000 NA
ATOM     19  N   UNL     1       0.883  11.809  21.156  0.00  0.00    +0.000 NA
ATOM     20  C   UNL     1       1.127  11.783  19.862  0.00  0.00    +0.000 A 
ATOM     21  C   UNL     1       1.305   8.250  20.582  0.00  0.00    +0.000 C 
BRANCH  20  22
ATOM     22  C   UNL     1       1.463  13.010  19.027  0.00  0.00    +0.000 C 
ATOM     23  C   UNL     1       1.716  14.361  19.661  0.00  0.00    +0.000 C 
ATOM     24  C   UNL     1       2.876  13.536  19.225  0.00  0.00    +0.000 C 
ENDBRANCH  20  22
ENDBRANCH   1  13
TORSDOF 3
ENDMDL
MODEL 3
REMARK VINA RESULT:      -7.0      3.580      6.548
REMARK  Name = 
REMARK  3 active torsions:
REMARK  status: ('A' for Active; 'I' for Inactive)
REMARK    1  A    between atoms: C_11  and  C_12
REMARK    2  A    between atoms: C_12  and  N_13
REMARK    3  A    between atoms: C_20  and  C_21
REMARK                            x       y       z     vdW  Elec       q    Type
REMARK                         _______ _______ _______ _____ _____    ______ ____
ROOT
ATOM      1  C   UNL     1       3.101   7.183  19.312  0.00  0.00    +0.000 C 
ENDROOT
BRANCH   1  12
ATOM      2 CL   UNL     1       4.670   6.908  16.591  0.00  0.00    +0.000 Cl
ATOM      3  C   UNL     1       3.956   5.604  17.474  0.00  0.00    +0.000 A 
ATOM      4  C   UNL     1       4.100   4.322  16.930  0.00  0.00    +0.000 A 
ATOM      5  C   UNL     1       3.547   3.227  17.581  0.00  0.00    +0.000 A 
ATOM      6  C   UNL     1       2.863   3.407  18.785  0.00  0.00    +0.000 A 
ATOM      7  C   UNL     1       2.275   2.320  19.450  0.00  0.00    +0.000 A 
ATOM      8  C   UNL     1       1.611   2.520  20.654  0.00  0.00    +0.000 A 
ATOM      9  C   UNL     1       1.567   3.799  21.161  0.00  0.00    +0.000 A 
ATOM     10  N   UNL     1       2.106   4.869  20.540  0.00  0.00    +0.000 NA
ATOM     11  C   UNL     1       2.742   4.693  19.360  0.00  0.00    +0.000 A 
ATOM     12  C   UNL     1       3.277   5.801  18.691  0.00  0.00    +0.000 A 
ENDBRANCH   1  12
BRANCH   1  13
ATOM     13  N   UNL     1       1.747   7.751  19.230  0.00  0.00    +0.000 NA
ATOM     14  C   UNL     1       1.542   8.589  18.037  0.00  0.00    +0.000 C 
ATOM     15  C   UNL     1       1.587  10.127  18.182  0.00  0.00    +0.000 C 
ATOM     16  N   UNL     1       1.255  10.594  19.500  0.00  0.00    +0.000 N 
ATOM     17  C   UNL     1       1.077   9.773  20.571  0.00  0.00    +0.000 A 
ATOM     18  N   UNL     1       0.809  10.509  21.632  0.00  0.00    +0.000 NA
ATOM     19  N   UNL     1       0.937  11.831  21.263  0.00  0.00    +0.000 NA
ATOM     20  C   UNL     1       1.269  11.869  19.989  0.00  0.00    +0.000 A 
ATOM     21  C   UNL     1       1.207   8.295  20.491  0.00  0.00    +0.000 C 
BRANCH  20  22
ATOM     22  C   UNL     1       1.730  13.123  19.259  0.00  0.00    +0.000 C 
ATOM     23  C   UNL     1       1.695  14.486  19.915  0.00  0.00    +0.000 C 
ATOM     24  C   UNL     1       2.989  13.755  19.829  0.00  0.00    +0.000 C 
ENDBRANCH  20  22
ENDBRANCH   1  13
TORSDOF 3
ENDMDL
MODEL 4
REMARK VINA RESULT:      -6.8      3.318      6.702
REMARK  Name = 
REMARK  3 active torsions:
REMARK  status: ('A' for Active; 'I' for Inactive)
REMARK    1  A    between atoms: C_11  and  C_12
REMARK    2  A    between atoms: C_12  and  N_13
REMARK    3  A    between atoms: C_20  and  C_21
REMARK                            x       y       z     vdW  Elec       q    Type
REMARK                         _______ _______ _______ _____ _____    ______ ____
ROOT
ATOM      1  C   UNL     1       2.021   6.578  17.802  0.00  0.00    +0.000 C 
ENDROOT
BRANCH   1  12
ATOM      2 CL   UNL     1       4.775   6.762  16.279  0.00  0.00    +0.000 Cl
ATOM      3  C   UNL     1       4.139   5.343  17.034  0.00  0.00    +0.000 A 
ATOM      4  C   UNL     1       4.925   4.186  16.965  0.00  0.00    +0.000 A 
ATOM      5  C   UNL     1       4.475   3.007  17.543  0.00  0.00    +0.000 A 
ATOM      6  C   UNL     1       3.246   2.983  18.207  0.00  0.00    +0.000 A 
ATOM      7  C   UNL     1       2.759   1.798  18.780  0.00  0.00    +0.000 A 
ATOM      8  C   UNL     1       1.541   1.800  19.448  0.00  0.00    +0.000 A 
ATOM      9  C   UNL     1       0.854   2.991  19.532  0.00  0.00    +0.000 A 
ATOM     10  N   UNL     1       1.285   4.143  18.979  0.00  0.00    +0.000 NA
ATOM     11  C   UNL     1       2.461   4.154  18.312  0.00  0.00    +0.000 A 
ATOM     12  C   UNL     1       2.903   5.338  17.707  0.00  0.00    +0.000 A 
ENDBRANCH   1  12
BRANCH   1  13
ATOM     13  N   UNL     1       2.589   7.709  18.551  0.00  0.00    +0.000 NA
ATOM     14  C   UNL     1       2.537   7.523  20.010  0.00  0.00    +0.000 C 
ATOM     15  C   UNL     1       1.437   8.246  20.821  0.00  0.00    +0.000 C 
ATOM     16  N   UNL     1       0.949   9.443  20.194  0.00  0.00    +0.000 N 
ATOM     17  C   UNL     1       1.289   9.830  18.934  0.00  0.00    +0.000 A 
ATOM     18  N   UNL     1       0.656  10.951  18.648  0.00  0.00    +0.000 NA
ATOM     19  N   UNL     1      -0.199  11.225  19.695  0.00  0.00    +0.000 NA
ATOM     20  C   UNL     1      -0.059  10.273  20.594  0.00  0.00    +0.000 A 
ATOM     21  C   UNL     1       2.208   9.050  18.065  0.00  0.00    +0.000 C 
BRANCH  20  22
ATOM     22  C   UNL     1      -0.984  10.078  21.788  0.00  0.00    +0.000 C 
ATOM     23  C   UNL     1      -0.445   9.835  23.182  0.00  0.00    +0.000 C 
ATOM     24  C   UNL     1      -0.925  11.196  22.816  0.00  0.00    +0.000 C 
ENDBRANCH  20  22
ENDBRANCH   1  13
TORSDOF 3
ENDMDL
MODEL 5
REMARK VINA RESULT:      -6.7      2.751      6.311
REMARK  Name = 
REMARK  3 active torsions:
REMARK  status: ('A' for Active; 'I' for Inactive)
REMARK    1  A    between atoms: C_11  and  C_12
REMARK    2  A    between atoms: C_12  and  N_13
REMARK    3  A    between atoms: C_20  and  C_21
REMARK                            x       y       z     vdW  Elec       q    Type
REMARK                         _______ _______ _______ _____ _____    ______ ____
ROOT
ATOM      1  C   UNL     1       1.830   6.183  18.092  0.00  0.00    +0.000 C 
ENDROOT
BRANCH   1  12
ATOM      2 CL   UNL     1       0.790   3.548  19.476  0.00  0.00    +0.000 Cl
ATOM      3  C   UNL     1       2.252   3.694  18.566  0.00  0.00    +0.000 A 
ATOM      4  C   UNL     1       3.029   2.536  18.431  0.00  0.00    +0.000 A 
ATOM      5  C   UNL     1       4.220   2.579  17.719  0.00  0.00    +0.000 A 
ATOM      6  C   UNL     1       4.631   3.775  17.125  0.00  0.00    +0.000 A 
ATOM      7  C   UNL     1       5.842   3.850  16.421  0.00  0.00    +0.000 A 
ATOM      8  C   UNL     1       6.227   5.046  15.826  0.00  0.00    +0.000 A 
ATOM      9  C   UNL     1       5.380   6.125  15.945  0.00  0.00    +0.000 A 
ATOM     10  N   UNL     1       4.218   6.092  16.629  0.00  0.00    +0.000 NA
ATOM     11  C   UNL     1       3.838   4.941  17.227  0.00  0.00    +0.000 A 
ATOM     12  C   UNL     1       2.649   4.904  17.966  0.00  0.00    +0.000 A 
ENDBRANCH   1  12
BRANCH   1  13
ATOM     13  N   UNL     1       2.483   7.292  18.805  0.00  0.00    +0.000 NA
ATOM     14  C   UNL     1       2.341   7.205  20.267  0.00  0.00    +0.000 C 
ATOM     15  C   UNL     1       1.292   8.092  20.975  0.00  0.00    +0.000 C 
ATOM     16  N   UNL     1       0.969   9.293  20.254  0.00  0.00    +0.000 N 
ATOM     17  C   UNL     1       1.409   9.560  18.994  0.00  0.00    +0.000 A 
ATOM     18  N   UNL     1       0.918  10.723  18.610  0.00  0.00    +0.000 NA
ATOM     19  N   UNL     1       0.050  11.152  19.591  0.00  0.00    +0.000 NA
ATOM     20  C   UNL     1       0.041  10.250  20.550  0.00  0.00    +0.000 A 
ATOM     21  C   UNL     1       2.277   8.633  18.223  0.00  0.00    +0.000 C 
BRANCH  20  22
ATOM     22  C   UNL     1      -0.955  10.231  21.702  0.00  0.00    +0.000 C 
ATOM     23  C   UNL     1      -0.518   9.983  23.130  0.00  0.00    +0.000 C 
ATOM     24  C   UNL     1      -0.796  11.378  22.688  0.00  0.00    +0.000 C 
ENDBRANCH  20  22
ENDBRANCH   1  13
TORSDOF 3
ENDMDL
MODEL 6
REMARK VINA RESULT:      -6.6      2.168      4.273
REMARK  Name = 
REMARK  3 active torsions:
REMARK  status: ('A' for Active; 'I' for Inactive)
REMARK    1  A    between atoms: C_11  and  C_12
REMARK    2  A    between atoms: C_12  and  N_13
REMARK    3  A    between atoms: C_20  and  C_21
REMARK                            x       y       z     vdW  Elec       q    Type
REMARK                         _______ _______ _______ _____ _____    ______ ____
ROOT
ATOM      1  C   UNL     1       4.610   5.782  19.395  0.00  0.00    +0.000 C 
ENDROOT
BRANCH   1  12
ATOM      2 CL   UNL     1       2.205   7.460  20.550  0.00  0.00    +0.000 Cl
ATOM      3  C   UNL     1       2.170   5.768  20.198  0.00  0.00    +0.000 A 
ATOM      4  C   UNL     1       0.965   5.098  20.442  0.00  0.00    +0.000 A 
ATOM      5  C   UNL     1       0.865   3.737  20.188  0.00  0.00    +0.000 A 
ATOM      6  C   UNL     1       1.963   3.043  19.675  0.00  0.00    +0.000 A 
ATOM      7  C   UNL     1       1.895   1.663  19.432  0.00  0.00    +0.000 A 
ATOM      8  C   UNL     1       2.994   0.995  18.908  0.00  0.00    +0.000 A 
ATOM      9  C   UNL     1       4.124   1.732  18.632  0.00  0.00    +0.000 A 
ATOM     10  N   UNL     1       4.230   3.056  18.868  0.00  0.00    +0.000 NA
ATOM     11  C   UNL     1       3.174   3.717  19.393  0.00  0.00    +0.000 A 
ATOM     12  C   UNL     1       3.283   5.085  19.672  0.00  0.00    +0.000 A 
ENDBRANCH   1  12
BRANCH   1  13
ATOM     13  N   UNL     1       4.676   6.556  18.146  0.00  0.00    +0.000 NA
ATOM     14  C   UNL     1       3.746   6.071  17.114  0.00  0.00    +0.000 C 
ATOM     15  C   UNL     1       4.291   5.199  15.960  0.00  0.00    +0.000 C 
ATOM     16  N   UNL     1       5.684   5.414  15.681  0.00  0.00    +0.000 N 
ATOM     17  C   UNL     1       6.500   6.184  16.452  0.00  0.00    +0.000 A 
ATOM     18  N   UNL     1       7.716   6.157  15.942  0.00  0.00    +0.000 NA
ATOM     19  N   UNL     1       7.709   5.257  14.898  0.00  0.00    +0.000 NA
ATOM     20  C   UNL     1       6.492   4.768  14.790  0.00  0.00    +0.000 A 
ATOM     21  C   UNL     1       6.034   6.890  17.674  0.00  0.00    +0.000 C 
BRANCH  20  22
ATOM     22  C   UNL     1       6.119   3.579  13.914  0.00  0.00    +0.000 C 
ATOM     23  C   UNL     1       5.099   3.697  12.801  0.00  0.00    +0.000 C 
ATOM     24  C   UNL     1       6.549   3.710  12.461  0.00  0.00    +0.000 C 
ENDBRANCH  20  22
ENDBRANCH   1  13
TORSDOF 3
ENDMDL
MODEL 7
REMARK VINA RESULT:      -6.5      1.649      2.827
REMARK  Name = 
REMARK  3 active torsions:
REMARK  status: ('A' for Active; 'I' for Inactive)
REMARK    1  A    between atoms: C_11  and  C_12
REMARK    2  A    between atoms: C_12  and  N_13
REMARK    3  A    between atoms: C_20  and  C_21
REMARK                            x       y       z     vdW  Elec       q    Type
REMARK                         _______ _______ _______ _____ _____    ______ ____
ROOT
ATOM      1  C   UNL     1       3.577   3.961  17.125  0.00  0.00    +0.000 C 
ENDROOT
BRANCH   1  12
ATOM      2 CL   UNL     1       3.643   7.113  17.117  0.00  0.00    +0.000 Cl
ATOM      3  C   UNL     1       2.961   6.127  18.362  0.00  0.00    +0.000 A 
ATOM      4  C   UNL     1       2.385   6.795  19.450  0.00  0.00    +0.000 A 
ATOM      5  C   UNL     1       1.824   6.068  20.491  0.00  0.00    +0.000 A 
ATOM      6  C   UNL     1       1.821   4.672  20.442  0.00  0.00    +0.000 A 
ATOM      7  C   UNL     1       1.281   3.914  21.492  0.00  0.00    +0.000 A 
ATOM      8  C   UNL     1       1.276   2.527  21.417  0.00  0.00    +0.000 A 
ATOM      9  C   UNL     1       1.801   1.942  20.286  0.00  0.00    +0.000 A 
ATOM     10  N   UNL     1       2.343   2.639  19.266  0.00  0.00    +0.000 NA
ATOM     11  C   UNL     1       2.370   3.989  19.332  0.00  0.00    +0.000 A 
ATOM     12  C   UNL     1       2.959   4.721  18.293  0.00  0.00    +0.000 A 
ENDBRANCH   1  12
BRANCH   1  13
ATOM     13  N   UNL     1       5.013   3.666  17.244  0.00  0.00    +0.000 NA
ATOM     14  C   UNL     1       5.561   3.980  18.574  0.00  0.00    +0.000 C 
ATOM     15  C   UNL     1       6.371   5.283  18.764  0.00  0.00    +0.000 C 
ATOM     16  N   UNL     1       6.992   5.759  17.559  0.00  0.00    +0.000 N 
ATOM     17  C   UNL     1       6.766   5.223  16.328  0.00  0.00    +0.000 A 
ATOM     18  N   UNL     1       7.463   5.898  15.435  0.00  0.00    +0.000 NA
ATOM     19  N   UNL     1       8.051   6.962  16.085  0.00  0.00    +0.000 NA
ATOM     20  C   UNL     1       7.708   6.904  17.355  0.00  0.00    +0.000 A 
ATOM     21  C   UNL     1       5.846   4.078  16.098  0.00  0.00    +0.000 C 
BRANCH  20  22
ATOM     22  C   UNL     1       7.957   8.017  18.363  0.00  0.00    +0.000 C 
ATOM     23  C   UNL     1       8.963   9.118  18.104  0.00  0.00    +0.000 C 
ATOM     24  C   UNL     1       7.515   9.396  17.899  0.00  0.00    +0.000 C 
ENDBRANCH  20  22
ENDBRANCH   1  13
TORSDOF 3
ENDMDL
MODEL 8
REMARK VINA RESULT:      -6.3      2.075      3.553
REMARK  Name = 
REMARK  3 active torsions:
REMARK  status: ('A' for Active; 'I' for Inactive)
REMARK    1  A    between atoms: C_11  and  C_12
REMARK    2  A    between atoms: C_12  and  N_13
REMARK    3  A    between atoms: C_20  and  C_21
REMARK                            x       y       z     vdW  Elec       q    Type
REMARK                         _______ _______ _______ _____ _____    ______ ____
ROOT
ATOM      1  C   UNL     1       5.158   4.305  18.846  0.00  0.00    +0.000 C 
ENDROOT
BRANCH   1  12
ATOM      2 CL   UNL     1       4.767   1.433  20.088  0.00  0.00    +0.000 Cl
ATOM      3  C   UNL     1       3.723   2.788  20.343  0.00  0.00    +0.000 A 
ATOM      4  C   UNL     1       2.619   2.583  21.179  0.00  0.00    +0.000 A 
ATOM      5  C   UNL     1       1.733   3.624  21.425  0.00  0.00    +0.000 A 
ATOM      6  C   UNL     1       1.957   4.877  20.848  0.00  0.00    +0.000 A 
ATOM      7  C   UNL     1       1.064   5.938  21.062  0.00  0.00    +0.000 A 
ATOM      8  C   UNL     1       1.312   7.180  20.491  0.00  0.00    +0.000 A 
ATOM      9  C   UNL     1       2.453   7.324  19.734  0.00  0.00    +0.000 A 
ATOM     10  N   UNL     1       3.323   6.322  19.494  0.00  0.00    +0.000 NA
ATOM     11  C   UNL     1       3.087   5.103  20.030  0.00  0.00    +0.000 A 
ATOM     12  C   UNL     1       3.967   4.046  19.762  0.00  0.00    +0.000 A 
ENDBRANCH   1  12
BRANCH   1  13
ATOM     13  N   UNL     1       4.916   5.234  17.731  0.00  0.00    +0.000 NA
ATOM     14  C   UNL     1       4.000   4.694  16.714  0.00  0.00    +0.000 C 
ATOM     15  C   UNL     1       4.584   4.131  15.398  0.00  0.00    +0.000 C 
ATOM     16  N   UNL     1       5.859   4.692  15.046  0.00  0.00    +0.000 N 
ATOM     17  C   UNL     1       6.575   5.516  15.859  0.00  0.00    +0.000 A 
ATOM     18  N   UNL     1       7.704   5.834  15.256  0.00  0.00    +0.000 NA
ATOM     19  N   UNL     1       7.770   5.105  14.088  0.00  0.00    +0.000 NA
ATOM     20  C   UNL     1       6.681   4.371  14.003  0.00  0.00    +0.000 A 
ATOM     21  C   UNL     1       6.110   5.927  17.209  0.00  0.00    +0.000 C 
BRANCH  20  22
ATOM     22  C   UNL     1       6.473   3.258  12.985  0.00  0.00    +0.000 C 
ATOM     23  C   UNL     1       5.355   3.307  11.966  0.00  0.00    +0.000 C 
ATOM     24  C   UNL     1       6.737   3.666  11.545  0.00  0.00    +0.000 C 
ENDBRANCH  20  22
ENDBRANCH   1  13
TORSDOF 3
ENDMDL
MODEL 9
REMARK VINA RESULT:      -6.3      5.226      8.739
REMARK  Name = 
REMARK  3 active torsions:
REMARK  status: ('A' for Active; 'I' for Inactive)
REMARK    1  A    between atoms: C_11  and  C_12
REMARK    2  A    between atoms: C_12  and  N_13
REMARK    3  A    between atoms: C_20  and  C_21
REMARK                            x       y       z     vdW  Elec       q    Type
REMARK                         _______ _______ _______ _____ _____    ______ ____
ROOT
ATOM      1  C   UNL     1       0.651   8.668  20.175  0.00  0.00    +0.000 C 
ENDROOT
BRANCH   1  12
ATOM      2 CL   UNL     1       1.927  10.249  17.764  0.00  0.00    +0.000 Cl
ATOM      3  C   UNL     1       2.357   8.648  18.254  0.00  0.00    +0.000 A 
ATOM      4  C   UNL     1       3.364   8.012  17.517  0.00  0.00    +0.000 A 
ATOM      5  C   UNL     1       3.757   6.723  17.848  0.00  0.00    +0.000 A 
ATOM      6  C   UNL     1       3.157   6.070  18.928  0.00  0.00    +0.000 A 
ATOM      7  C   UNL     1       3.520   4.758  19.269  0.00  0.00    +0.000 A 
ATOM      8  C   UNL     1       2.922   4.132  20.355  0.00  0.00    +0.000 A 
ATOM      9  C   UNL     1       1.987   4.843  21.073  0.00  0.00    +0.000 A 
ATOM     10  N   UNL     1       1.603   6.099  20.764  0.00  0.00    +0.000 NA
ATOM     11  C   UNL     1       2.164   6.715  19.700  0.00  0.00    +0.000 A 
ATOM     12  C   UNL     1       1.750   8.007  19.350  0.00  0.00    +0.000 A 
ENDBRANCH   1  12
BRANCH   1  13
ATOM     13  N   UNL     1       1.109   9.572  21.241  0.00  0.00    +0.000 NA
ATOM     14  C   UNL     1       0.549   9.242  22.561  0.00  0.00    +0.000 C 
ATOM     15  C   UNL     1      -0.629  10.080  23.109  0.00  0.00    +0.000 C 
ATOM     16  N   UNL     1      -0.689  11.412  22.574  0.00  0.00    +0.000 N 
ATOM     17  C   UNL     1       0.104  11.857  21.561  0.00  0.00    +0.000 A 
ATOM     18  N   UNL     1      -0.214  13.108  21.290  0.00  0.00    +0.000 NA
ATOM     19  N   UNL     1      -1.313  13.433  22.056  0.00  0.00    +0.000 NA
ATOM     20  C   UNL     1      -1.630  12.380  22.781  0.00  0.00    +0.000 A 
ATOM     21  C   UNL     1       1.125  11.007  20.896  0.00  0.00    +0.000 C 
BRANCH  20  22
ATOM     22  C   UNL     1      -2.915  12.247  23.586  0.00  0.00    +0.000 C 
ATOM     23  C   UNL     1      -3.700  13.459  24.041  0.00  0.00    +0.000 C 
ATOM     24  C   UNL     1      -4.167  12.698  22.850  0.00  0.00    +0.000 C 
ENDBRANCH  20  22
ENDBRANCH   1  13
TORSDOF 3
ENDMDL
