MODEL 1
REMARK VINA RESULT:      -8.0      0.000      0.000
REMARK  Name = 
REMARK  7 active torsions:
REMARK  status: ('A' for Active; 'I' for Inactive)
REMARK    1  A    between atoms: C_2  and  C_12
REMARK    2  A    between atoms: N_3  and  C_4
REMARK    3  A    between atoms: C_4  and  C_5
REMARK    4  A    between atoms: C_5  and  N_6
REMARK    5  A    between atoms: C_12  and  N_21
REMARK    6  A    between atoms: C_13  and  C_14
REMARK    7  A    between atoms: C_22  and  C_24
REMARK                            x       y       z     vdW  Elec       q    Type
REMARK                         _______ _______ _______ _____ _____    ______ ____
ROOT
ATOM      1  C   UNL     1       3.973   4.307  17.205  0.00  0.00    +0.000 C 
ATOM      2  C   UNL     1       3.406   3.196  17.724  0.00  0.00    +0.000 C 
ENDROOT
BRANCH   2   3
ATOM      3  C   UNL     1       2.732   3.066  19.024  0.00  0.00    +0.000 A 
ATOM      4  C   UNL     1       3.459   2.677  20.157  0.00  0.00    +0.000 A 
ATOM      5  C   UNL     1       2.806   2.501  21.378  0.00  0.00    +0.000 A 
ATOM      6  C   UNL     1       1.434   2.714  21.462  0.00  0.00    +0.000 A 
ATOM      7  F   UNL     1       0.810   2.532  22.633  0.00  0.00    +0.000 F 
ATOM      8  C   UNL     1       0.701   3.109  20.349  0.00  0.00    +0.000 A 
ATOM      9  C   UNL     1       1.351   3.291  19.127  0.00  0.00    +0.000 A 
ENDBRANCH   2   3
BRANCH   1  11
ATOM     10  O   UNL     1       4.793   5.875  18.855  0.00  0.00    +0.000 OA
ATOM     11  C   UNL     1       3.947   5.600  18.009  0.00  0.00    +0.000 C 
ATOM     12  N   UNL     1       2.926   6.484  17.722  0.00  0.00    +0.000 N 
ATOM     13  H   UNL     1       2.054   6.102  17.385  0.00  0.00    +0.000 HD
BRANCH  12  14
ATOM     14  C   UNL     1       2.853   7.725  18.495  0.00  0.00    +0.000 C 
BRANCH  14  15
ATOM     15  C   UNL     1       1.587   8.570  18.190  0.00  0.00    +0.000 C 
BRANCH  15  16
ATOM     16  N   UNL     1       1.551   9.906  18.823  0.00  0.00    +0.000 NA
ATOM     17  C   UNL     1       1.207   9.785  20.267  0.00  0.00    +0.000 C 
ATOM     18  C   UNL     1      -0.269   9.436  20.552  0.00  0.00    +0.000 C 
ATOM     19  O   UNL     1      -1.164  10.354  19.911  0.00  0.00    +0.000 OA
ATOM     20  C   UNL     1      -0.917  10.398  18.499  0.00  0.00    +0.000 C 
ATOM     21  C   UNL     1       0.539  10.807  18.217  0.00  0.00    +0.000 C 
ENDBRANCH  15  16
ENDBRANCH  14  15
ENDBRANCH  12  14
ENDBRANCH   1  11
BRANCH   1  22
ATOM     22  N   UNL     1       4.636   4.317  15.975  0.00  0.00    +0.000 N 
ATOM     23  C   UNL     1       6.013   4.288  15.799  0.00  0.00    +0.000 C 
ATOM     24  O   UNL     1       6.850   4.303  16.697  0.00  0.00    +0.000 OA
ATOM     25  H   UNL     1       4.096   4.630  15.180  0.00  0.00    +0.000 HD
BRANCH  23  26
ATOM     26  C   UNL     1       6.509   4.340  14.393  0.00  0.00    +0.000 A 
ATOM     27  C   UNL     1       5.905   3.497  13.449  0.00  0.00    +0.000 A 
ATOM     28  C   UNL     1       6.310   3.523  12.112  0.00  0.00    +0.000 A 
ATOM     29  C   UNL     1       7.314   4.405  11.714  0.00  0.00    +0.000 A 
ATOM     30  C   UNL     1       7.905   5.264  12.645  0.00  0.00    +0.000 A 
ATOM     31  C   UNL     1       7.504   5.235  13.986  0.00  0.00    +0.000 A 
ENDBRANCH  23  26
ENDBRANCH   1  22
TORSDOF 7
ENDMDL
MODEL 2
REMARK VINA RESULT:      -8.0      0.239      1.291
REMARK  Name = 
REMARK  7 active torsions:
REMARK  status: ('A' for Active; 'I' for Inactive)
REMARK    1  A    between atoms: C_2  and  C_12
REMARK    2  A    between atoms: N_3  and  C_4
REMARK    3  A    between atoms: C_4  and  C_5
REMARK    4  A    between atoms: C_5  and  N_6
REMARK    5  A    between atoms: C_12  and  N_21
REMARK    6  A    between atoms: C_13  and  C_14
REMARK    7  A    between atoms: C_22  and  C_24
REMARK                            x       y       z     vdW  Elec       q    Type
REMARK                         _______ _______ _______ _____ _____    ______ ____
ROOT
ATOM      1  C   UNL     1       3.917   4.195  17.195  0.00  0.00    +0.000 C 
ATOM      2  C   UNL     1       3.380   3.057  17.687  0.00  0.00    +0.000 C 
ENDROOT
BRANCH   2   3
ATOM      3  C   UNL     1       2.720   2.875  18.988  0.00  0.00    +0.000 A 
ATOM      4  C   UNL     1       1.328   2.998  19.093  0.00  0.00    +0.000 A 
ATOM      5  C   UNL     1       0.709   2.879  20.339  0.00  0.00    +0.000 A 
ATOM      6  C   UNL     1       1.480   2.638  21.470  0.00  0.00    +0.000 A 
ATOM      7  F   UNL     1       0.883   2.537  22.665  0.00  0.00    +0.000 F 
ATOM      8  C   UNL     1       2.860   2.503  21.381  0.00  0.00    +0.000 A 
ATOM      9  C   UNL     1       3.483   2.617  20.136  0.00  0.00    +0.000 A 
ENDBRANCH   2   3
BRANCH   1  11
ATOM     10  O   UNL     1       4.837   5.883  18.662  0.00  0.00    +0.000 OA
ATOM     11  C   UNL     1       3.869   5.464  18.035  0.00  0.00    +0.000 C 
ATOM     12  N   UNL     1       2.673   6.154  18.040  0.00  0.00    +0.000 N 
ATOM     13  H   UNL     1       1.823   5.624  17.909  0.00  0.00    +0.000 HD
BRANCH  12  14
ATOM     14  C   UNL     1       2.582   7.365  18.859  0.00  0.00    +0.000 C 
BRANCH  14  15
ATOM     15  C   UNL     1       1.819   8.524  18.165  0.00  0.00    +0.000 C 
BRANCH  15  16
ATOM     16  N   UNL     1       1.768   9.792  18.926  0.00  0.00    +0.000 NA
ATOM     17  C   UNL     1       1.253   9.550  20.301  0.00  0.00    +0.000 C 
ATOM     18  C   UNL     1      -0.260   9.257  20.382  0.00  0.00    +0.000 C 
ATOM     19  O   UNL     1      -1.033  10.281  19.744  0.00  0.00    +0.000 OA
ATOM     20  C   UNL     1      -0.621  10.450  18.381  0.00  0.00    +0.000 C 
ATOM     21  C   UNL     1       0.874  10.803  18.307  0.00  0.00    +0.000 C 
ENDBRANCH  15  16
ENDBRANCH  14  15
ENDBRANCH  12  14
ENDBRANCH   1  11
BRANCH   1  22
ATOM     22  N   UNL     1       4.569   4.253  15.960  0.00  0.00    +0.000 N 
ATOM     23  C   UNL     1       5.941   4.187  15.767  0.00  0.00    +0.000 C 
ATOM     24  O   UNL     1       6.786   4.122  16.655  0.00  0.00    +0.000 OA
ATOM     25  H   UNL     1       4.032   4.630  15.191  0.00  0.00    +0.000 HD
BRANCH  23  26
ATOM     26  C   UNL     1       6.426   4.305  14.361  0.00  0.00    +0.000 A 
ATOM     27  C   UNL     1       7.456   5.218  14.093  0.00  0.00    +0.000 A 
ATOM     28  C   UNL     1       7.969   5.351  12.800  0.00  0.00    +0.000 A 
ATOM     29  C   UNL     1       7.459   4.558  11.772  0.00  0.00    +0.000 A 
ATOM     30  C   UNL     1       6.447   3.631  12.036  0.00  0.00    +0.000 A 
ATOM     31  C   UNL     1       5.929   3.500  13.330  0.00  0.00    +0.000 A 
ENDBRANCH  23  26
ENDBRANCH   1  22
TORSDOF 7
ENDMDL
MODEL 3
REMARK VINA RESULT:      -7.9      0.626      1.185
REMARK  Name = 
REMARK  7 active torsions:
REMARK  status: ('A' for Active; 'I' for Inactive)
REMARK    1  A    between atoms: C_2  and  C_12
REMARK    2  A    between atoms: N_3  and  C_4
REMARK    3  A    between atoms: C_4  and  C_5
REMARK    4  A    between atoms: C_5  and  N_6
REMARK    5  A    between atoms: C_12  and  N_21
REMARK    6  A    between atoms: C_13  and  C_14
REMARK    7  A    between atoms: C_22  and  C_24
REMARK                            x       y       z     vdW  Elec       q    Type
REMARK                         _______ _______ _______ _____ _____    ______ ____
ROOT
ATOM      1  C   UNL     1       3.930   4.373  17.200  0.00  0.00    +0.000 C 
ATOM      2  C   UNL     1       3.360   3.263  17.719  0.00  0.00    +0.000 C 
ENDROOT
BRANCH   2   3
ATOM      3  C   UNL     1       2.704   3.129  19.028  0.00  0.00    +0.000 A 
ATOM      4  C   UNL     1       3.445   2.726  20.147  0.00  0.00    +0.000 A 
ATOM      5  C   UNL     1       2.809   2.547  21.377  0.00  0.00    +0.000 A 
ATOM      6  C   UNL     1       1.441   2.770  21.482  0.00  0.00    +0.000 A 
ATOM      7  F   UNL     1       0.833   2.585  22.662  0.00  0.00    +0.000 F 
ATOM      8  C   UNL     1       0.695   3.180  20.384  0.00  0.00    +0.000 A 
ATOM      9  C   UNL     1       1.327   3.365  19.153  0.00  0.00    +0.000 A 
ENDBRANCH   2   3
BRANCH   1  11
ATOM     10  O   UNL     1       4.695   5.853  18.954  0.00  0.00    +0.000 OA
ATOM     11  C   UNL     1       3.929   5.660  18.014  0.00  0.00    +0.000 C 
ATOM     12  N   UNL     1       3.031   6.633  17.626  0.00  0.00    +0.000 N 
ATOM     13  H   UNL     1       2.172   6.333  17.188  0.00  0.00    +0.000 HD
BRANCH  12  14
ATOM     14  C   UNL     1       2.983   7.873  18.404  0.00  0.00    +0.000 C 
BRANCH  14  15
ATOM     15  C   UNL     1       1.540   8.384  18.663  0.00  0.00    +0.000 C 
BRANCH  15  16
ATOM     16  N   UNL     1       1.138   9.570  17.875  0.00  0.00    +0.000 NA
ATOM     17  C   UNL     1       1.781  10.796  18.420  0.00  0.00    +0.000 C 
ATOM     18  C   UNL     1       1.196  11.291  19.759  0.00  0.00    +0.000 C 
ATOM     19  O   UNL     1      -0.223  11.478  19.680  0.00  0.00    +0.000 OA
ATOM     20  C   UNL     1      -0.869  10.268  19.261  0.00  0.00    +0.000 C 
ATOM     21  C   UNL     1      -0.326   9.810  17.896  0.00  0.00    +0.000 C 
ENDBRANCH  15  16
ENDBRANCH  14  15
ENDBRANCH  12  14
ENDBRANCH   1  11
BRANCH   1  22
ATOM     22  N   UNL     1       4.575   4.386  15.960  0.00  0.00    +0.000 N 
ATOM     23  C   UNL     1       5.943   4.269  15.759  0.00  0.00    +0.000 C 
ATOM     24  O   UNL     1       6.792   4.192  16.643  0.00  0.00    +0.000 OA
ATOM     25  H   UNL     1       4.046   4.765  15.187  0.00  0.00    +0.000 HD
BRANCH  23  26
ATOM     26  C   UNL     1       6.421   4.343  14.348  0.00  0.00    +0.000 A 
ATOM     27  C   UNL     1       7.456   5.242  14.049  0.00  0.00    +0.000 A 
ATOM     28  C   UNL     1       7.962   5.335  12.750  0.00  0.00    +0.000 A 
ATOM     29  C   UNL     1       7.442   4.515  11.748  0.00  0.00    +0.000 A 
ATOM     30  C   UNL     1       6.427   3.602  12.044  0.00  0.00    +0.000 A 
ATOM     31  C   UNL     1       5.915   3.512  13.344  0.00  0.00    +0.000 A 
ENDBRANCH  23  26
ENDBRANCH   1  22
TORSDOF 7
ENDMDL
MODEL 4
REMARK VINA RESULT:      -7.8      0.965      1.720
REMARK  Name = 
REMARK  7 active torsions:
REMARK  status: ('A' for Active; 'I' for Inactive)
REMARK    1  A    between atoms: C_2  and  C_12
REMARK    2  A    between atoms: N_3  and  C_4
REMARK    3  A    between atoms: C_4  and  C_5
REMARK    4  A    between atoms: C_5  and  N_6
REMARK    5  A    between atoms: C_12  and  N_21
REMARK    6  A    between atoms: C_13  and  C_14
REMARK    7  A    between atoms: C_22  and  C_24
REMARK                            x       y       z     vdW  Elec       q    Type
REMARK                         _______ _______ _______ _____ _____    ______ ____
ROOT
ATOM      1  C   UNL     1       3.883   4.402  17.207  0.00  0.00    +0.000 C 
ATOM      2  C   UNL     1       3.330   3.291  17.743  0.00  0.00    +0.000 C 
ENDROOT
BRANCH   2   3
ATOM      3  C   UNL     1       2.672   3.167  19.051  0.00  0.00    +0.000 A 
ATOM      4  C   UNL     1       3.403   2.743  20.168  0.00  0.00    +0.000 A 
ATOM      5  C   UNL     1       2.764   2.574  21.398  0.00  0.00    +0.000 A 
ATOM      6  C   UNL     1       1.401   2.828  21.505  0.00  0.00    +0.000 A 
ATOM      7  F   UNL     1       0.789   2.652  22.684  0.00  0.00    +0.000 F 
ATOM      8  C   UNL     1       0.664   3.258  20.408  0.00  0.00    +0.000 A 
ATOM      9  C   UNL     1       1.300   3.434  19.178  0.00  0.00    +0.000 A 
ENDBRANCH   2   3
BRANCH   1  11
ATOM     10  O   UNL     1       4.789   6.064  18.714  0.00  0.00    +0.000 OA
ATOM     11  C   UNL     1       3.857   5.701  18.001  0.00  0.00    +0.000 C 
ATOM     12  N   UNL     1       2.731   6.486  17.861  0.00  0.00    +0.000 N 
ATOM     13  H   UNL     1       1.857   6.023  17.657  0.00  0.00    +0.000 HD
BRANCH  12  14
ATOM     14  C   UNL     1       2.659   7.730  18.631  0.00  0.00    +0.000 C 
BRANCH  14  15
ATOM     15  C   UNL     1       2.012   7.554  20.031  0.00  0.00    +0.000 C 
BRANCH  15  16
ATOM     16  N   UNL     1       0.671   8.157  20.188  0.00  0.00    +0.000 NA
ATOM     17  C   UNL     1       0.657   9.539  19.636  0.00  0.00    +0.000 C 
ATOM     18  C   UNL     1       1.401  10.584  20.495  0.00  0.00    +0.000 C 
ATOM     19  O   UNL     1       0.926  10.592  21.847  0.00  0.00    +0.000 OA
ATOM     20  C   UNL     1       1.037   9.286  22.430  0.00  0.00    +0.000 C 
ATOM     21  C   UNL     1       0.244   8.258  21.606  0.00  0.00    +0.000 C 
ENDBRANCH  15  16
ENDBRANCH  14  15
ENDBRANCH  12  14
ENDBRANCH   1  11
BRANCH   1  22
ATOM     22  N   UNL     1       4.532   4.406  15.970  0.00  0.00    +0.000 N 
ATOM     23  C   UNL     1       5.899   4.269  15.774  0.00  0.00    +0.000 C 
ATOM     24  O   UNL     1       6.744   4.178  16.660  0.00  0.00    +0.000 OA
ATOM     25  H   UNL     1       4.012   4.794  15.195  0.00  0.00    +0.000 HD
BRANCH  23  26
ATOM     26  C   UNL     1       6.383   4.336  14.364  0.00  0.00    +0.000 A 
ATOM     27  C   UNL     1       7.422   5.230  14.066  0.00  0.00    +0.000 A 
ATOM     28  C   UNL     1       7.934   5.317  12.769  0.00  0.00    +0.000 A 
ATOM     29  C   UNL     1       7.415   4.496  11.768  0.00  0.00    +0.000 A 
ATOM     30  C   UNL     1       6.395   3.587  12.063  0.00  0.00    +0.000 A 
ATOM     31  C   UNL     1       5.877   3.503  13.360  0.00  0.00    +0.000 A 
ENDBRANCH  23  26
ENDBRANCH   1  22
TORSDOF 7
ENDMDL
MODEL 5
REMARK VINA RESULT:      -7.7      0.681      1.495
REMARK  Name = 
REMARK  7 active torsions:
REMARK  status: ('A' for Active; 'I' for Inactive)
REMARK    1  A    between atoms: C_2  and  C_12
REMARK    2  A    between atoms: N_3  and  C_4
REMARK    3  A    between atoms: C_4  and  C_5
REMARK    4  A    between atoms: C_5  and  N_6
REMARK    5  A    between atoms: C_12  and  N_21
REMARK    6  A    between atoms: C_13  and  C_14
REMARK    7  A    between atoms: C_22  and  C_24
REMARK                            x       y       z     vdW  Elec       q    Type
REMARK                         _______ _______ _______ _____ _____    ______ ____
ROOT
ATOM      1  C   UNL     1       3.942   4.284  17.189  0.00  0.00    +0.000 C 
ATOM      2  C   UNL     1       3.385   3.145  17.656  0.00  0.00    +0.000 C 
ENDROOT
BRANCH   2   3
ATOM      3  C   UNL     1       2.694   2.954  18.939  0.00  0.00    +0.000 A 
ATOM      4  C   UNL     1       1.300   3.080  19.011  0.00  0.00    +0.000 A 
ATOM      5  C   UNL     1       0.651   2.951  20.240  0.00  0.00    +0.000 A 
ATOM      6  C   UNL     1       1.394   2.698  21.388  0.00  0.00    +0.000 A 
ATOM      7  F   UNL     1       0.767   2.588  22.567  0.00  0.00    +0.000 F 
ATOM      8  C   UNL     1       2.775   2.561  21.331  0.00  0.00    +0.000 A 
ATOM      9  C   UNL     1       3.429   2.683  20.103  0.00  0.00    +0.000 A 
ENDBRANCH   2   3
BRANCH   1  11
ATOM     10  O   UNL     1       4.872   6.019  18.595  0.00  0.00    +0.000 OA
ATOM     11  C   UNL     1       3.884   5.544  18.042  0.00  0.00    +0.000 C 
ATOM     12  N   UNL     1       2.653   6.160  18.148  0.00  0.00    +0.000 N 
ATOM     13  H   UNL     1       1.829   5.580  18.080  0.00  0.00    +0.000 HD
BRANCH  12  14
ATOM     14  C   UNL     1       2.553   7.359  18.983  0.00  0.00    +0.000 C 
BRANCH  14  15
ATOM     15  C   UNL     1       2.116   8.624  18.198  0.00  0.00    +0.000 C 
BRANCH  15  16
ATOM     16  N   UNL     1       0.773   9.145  18.534  0.00  0.00    +0.000 NA
ATOM     17  C   UNL     1       0.637  10.557  18.084  0.00  0.00    +0.000 C 
ATOM     18  C   UNL     1       1.420  11.582  18.932  0.00  0.00    +0.000 C 
ATOM     19  O   UNL     1       1.093  11.479  20.323  0.00  0.00    +0.000 OA
ATOM     20  C   UNL     1       1.324  10.147  20.799  0.00  0.00    +0.000 C 
ATOM     21  C   UNL     1       0.495   9.133  19.992  0.00  0.00    +0.000 C 
ENDBRANCH  15  16
ENDBRANCH  14  15
ENDBRANCH  12  14
ENDBRANCH   1  11
BRANCH   1  22
ATOM     22  N   UNL     1       4.623   4.352  15.971  0.00  0.00    +0.000 N 
ATOM     23  C   UNL     1       5.997   4.240  15.806  0.00  0.00    +0.000 C 
ATOM     24  O   UNL     1       6.819   4.120  16.709  0.00  0.00    +0.000 OA
ATOM     25  H   UNL     1       4.119   4.769  15.201  0.00  0.00    +0.000 HD
BRANCH  23  26
ATOM     26  C   UNL     1       6.517   4.378  14.414  0.00  0.00    +0.000 A 
ATOM     27  C   UNL     1       5.937   3.586  13.413  0.00  0.00    +0.000 A 
ATOM     28  C   UNL     1       6.365   3.692  12.087  0.00  0.00    +0.000 A 
ATOM     29  C   UNL     1       7.368   4.604  11.758  0.00  0.00    +0.000 A 
ATOM     30  C   UNL     1       7.936   5.412  12.748  0.00  0.00    +0.000 A 
ATOM     31  C   UNL     1       7.511   5.303  14.077  0.00  0.00    +0.000 A 
ENDBRANCH  23  26
ENDBRANCH   1  22
TORSDOF 7
ENDMDL
MODEL 6
REMARK VINA RESULT:      -7.4      3.052      7.905
REMARK  Name = 
REMARK  7 active torsions:
REMARK  status: ('A' for Active; 'I' for Inactive)
REMARK    1  A    between atoms: C_2  and  C_12
REMARK    2  A    between atoms: N_3  and  C_4
REMARK    3  A    between atoms: C_4  and  C_5
REMARK    4  A    between atoms: C_5  and  N_6
REMARK    5  A    between atoms: C_12  and  N_21
REMARK    6  A    between atoms: C_13  and  C_14
REMARK    7  A    between atoms: C_22  and  C_24
REMARK                            x       y       z     vdW  Elec       q    Type
REMARK                         _______ _______ _______ _____ _____    ______ ____
ROOT
ATOM      1  C   UNL     1       2.889   7.676  17.684  0.00  0.00    +0.000 C 
ATOM      2  C   UNL     1       4.109   7.830  17.122  0.00  0.00    +0.000 C 
ENDROOT
BRANCH   2   3
ATOM      3  C   UNL     1       5.212   6.859  17.111  0.00  0.00    +0.000 A 
ATOM      4  C   UNL     1       5.096   5.674  16.373  0.00  0.00    +0.000 A 
ATOM      5  C   UNL     1       6.122   4.728  16.406  0.00  0.00    +0.000 A 
ATOM      6  C   UNL     1       7.256   4.970  17.174  0.00  0.00    +0.000 A 
ATOM      7  F   UNL     1       8.232   4.053  17.213  0.00  0.00    +0.000 F 
ATOM      8  C   UNL     1       7.390   6.145  17.903  0.00  0.00    +0.000 A 
ATOM      9  C   UNL     1       6.368   7.096  17.869  0.00  0.00    +0.000 A 
ENDBRANCH   2   3
BRANCH   1  11
ATOM     10  O   UNL     1       1.921   5.468  17.877  0.00  0.00    +0.000 OA
ATOM     11  C   UNL     1       2.561   6.374  18.402  0.00  0.00    +0.000 C 
ATOM     12  N   UNL     1       3.046   6.240  19.688  0.00  0.00    +0.000 N 
ATOM     13  H   UNL     1       3.168   7.081  20.234  0.00  0.00    +0.000 HD
BRANCH  12  14
ATOM     14  C   UNL     1       2.726   5.013  20.419  0.00  0.00    +0.000 C 
BRANCH  14  15
ATOM     15  C   UNL     1       3.671   3.828  20.081  0.00  0.00    +0.000 C 
BRANCH  15  16
ATOM     16  N   UNL     1       3.090   2.482  20.273  0.00  0.00    +0.000 NA
ATOM     17  C   UNL     1       3.195   1.689  19.018  0.00  0.00    +0.000 C 
ATOM     18  C   UNL     1       2.224   2.121  17.898  0.00  0.00    +0.000 C 
ATOM     19  O   UNL     1       0.865   2.138  18.354  0.00  0.00    +0.000 OA
ATOM     20  C   UNL     1       0.727   2.988  19.501  0.00  0.00    +0.000 C 
ATOM     21  C   UNL     1       1.651   2.518  20.636  0.00  0.00    +0.000 C 
ENDBRANCH  15  16
ENDBRANCH  14  15
ENDBRANCH  12  14
ENDBRANCH   1  11
BRANCH   1  22
ATOM     22  N   UNL     1       1.920   8.683  17.683  0.00  0.00    +0.000 N 
ATOM     23  C   UNL     1       1.312   9.220  18.809  0.00  0.00    +0.000 C 
ATOM     24  O   UNL     1       1.496   8.853  19.965  0.00  0.00    +0.000 OA
ATOM     25  H   UNL     1       1.445   8.843  16.805  0.00  0.00    +0.000 HD
BRANCH  23  26
ATOM     26  C   UNL     1       0.276  10.267  18.574  0.00  0.00    +0.000 A 
ATOM     27  C   UNL     1       0.578  11.588  18.936  0.00  0.00    +0.000 A 
ATOM     28  C   UNL     1      -0.344  12.614  18.715  0.00  0.00    +0.000 A 
ATOM     29  C   UNL     1      -1.569  12.321  18.117  0.00  0.00    +0.000 A 
ATOM     30  C   UNL     1      -1.869  11.011  17.734  0.00  0.00    +0.000 A 
ATOM     31  C   UNL     1      -0.948   9.981  17.959  0.00  0.00    +0.000 A 
ENDBRANCH  23  26
ENDBRANCH   1  22
TORSDOF 7
ENDMDL
MODEL 7
REMARK VINA RESULT:      -7.4      2.437      8.106
REMARK  Name = 
REMARK  7 active torsions:
REMARK  status: ('A' for Active; 'I' for Inactive)
REMARK    1  A    between atoms: C_2  and  C_12
REMARK    2  A    between atoms: N_3  and  C_4
REMARK    3  A    between atoms: C_4  and  C_5
REMARK    4  A    between atoms: C_5  and  N_6
REMARK    5  A    between atoms: C_12  and  N_21
REMARK    6  A    between atoms: C_13  and  C_14
REMARK    7  A    between atoms: C_22  and  C_24
REMARK                            x       y       z     vdW  Elec       q    Type
REMARK                         _______ _______ _______ _____ _____    ______ ____
ROOT
ATOM      1  C   UNL     1       1.774   6.467  20.117  0.00  0.00    +0.000 C 
ATOM      2  C   UNL     1       1.885   5.225  20.638  0.00  0.00    +0.000 C 
ENDROOT
BRANCH   2   3
ATOM      3  C   UNL     1       2.459   4.037  19.990  0.00  0.00    +0.000 A 
ATOM      4  C   UNL     1       1.625   3.125  19.330  0.00  0.00    +0.000 A 
ATOM      5  C   UNL     1       2.165   1.969  18.763  0.00  0.00    +0.000 A 
ATOM      6  C   UNL     1       3.531   1.731  18.857  0.00  0.00    +0.000 A 
ATOM      7  F   UNL     1       4.044   0.614  18.322  0.00  0.00    +0.000 F 
ATOM      8  C   UNL     1       4.373   2.631  19.500  0.00  0.00    +0.000 A 
ATOM      9  C   UNL     1       3.838   3.790  20.064  0.00  0.00    +0.000 A 
ENDBRANCH   2   3
BRANCH   1  11
ATOM     10  O   UNL     1       1.576   6.572  17.708  0.00  0.00    +0.000 OA
ATOM     11  C   UNL     1       2.278   6.728  18.704  0.00  0.00    +0.000 C 
ATOM     12  N   UNL     1       3.575   7.185  18.586  0.00  0.00    +0.000 N 
ATOM     13  H   UNL     1       4.238   6.906  19.295  0.00  0.00    +0.000 HD
BRANCH  12  14
ATOM     14  C   UNL     1       4.102   7.420  17.240  0.00  0.00    +0.000 C 
BRANCH  14  15
ATOM     15  C   UNL     1       4.878   6.207  16.659  0.00  0.00    +0.000 C 
BRANCH  15  16
ATOM     16  N   UNL     1       6.258   6.495  16.212  0.00  0.00    +0.000 NA
ATOM     17  C   UNL     1       6.765   5.389  15.354  0.00  0.00    +0.000 C 
ATOM     18  C   UNL     1       7.113   4.091  16.113  0.00  0.00    +0.000 C 
ATOM     19  O   UNL     1       8.029   4.336  17.188  0.00  0.00    +0.000 OA
ATOM     20  C   UNL     1       7.504   5.324  18.085  0.00  0.00    +0.000 C 
ATOM     21  C   UNL     1       7.215   6.636  17.337  0.00  0.00    +0.000 C 
ENDBRANCH  15  16
ENDBRANCH  14  15
ENDBRANCH  12  14
ENDBRANCH   1  11
BRANCH   1  22
ATOM     22  N   UNL     1       1.166   7.525  20.798  0.00  0.00    +0.000 N 
ATOM     23  C   UNL     1       1.012   8.816  20.314  0.00  0.00    +0.000 C 
ATOM     24  O   UNL     1       1.433   9.232  19.239  0.00  0.00    +0.000 OA
ATOM     25  H   UNL     1       1.072   7.414  21.799  0.00  0.00    +0.000 HD
BRANCH  23  26
ATOM     26  C   UNL     1       0.361   9.800  21.227  0.00  0.00    +0.000 A 
ATOM     27  C   UNL     1       0.354  11.149  20.845  0.00  0.00    +0.000 A 
ATOM     28  C   UNL     1      -0.265  12.111  21.647  0.00  0.00    +0.000 A 
ATOM     29  C   UNL     1      -0.892  11.721  22.830  0.00  0.00    +0.000 A 
ATOM     30  C   UNL     1      -0.907  10.375  23.207  0.00  0.00    +0.000 A 
ATOM     31  C   UNL     1      -0.284   9.411  22.407  0.00  0.00    +0.000 A 
ENDBRANCH  23  26
ENDBRANCH   1  22
TORSDOF 7
ENDMDL
MODEL 8
REMARK VINA RESULT:      -7.3      0.929      1.072
REMARK  Name = 
REMARK  7 active torsions:
REMARK  status: ('A' for Active; 'I' for Inactive)
REMARK    1  A    between atoms: C_2  and  C_12
REMARK    2  A    between atoms: N_3  and  C_4
REMARK    3  A    between atoms: C_4  and  C_5
REMARK    4  A    between atoms: C_5  and  N_6
REMARK    5  A    between atoms: C_12  and  N_21
REMARK    6  A    between atoms: C_13  and  C_14
REMARK    7  A    between atoms: C_22  and  C_24
REMARK                            x       y       z     vdW  Elec       q    Type
REMARK                         _______ _______ _______ _____ _____    ______ ____
ROOT
ATOM      1  C   UNL     1       4.236   4.018  17.378  0.00  0.00    +0.000 C 
ATOM      2  C   UNL     1       3.575   2.963  17.905  0.00  0.00    +0.000 C 
ENDROOT
BRANCH   2   3
ATOM      3  C   UNL     1       2.823   2.925  19.167  0.00  0.00    +0.000 A 
ATOM      4  C   UNL     1       3.471   2.580  20.361  0.00  0.00    +0.000 A 
ATOM      5  C   UNL     1       2.743   2.492  21.549  0.00  0.00    +0.000 A 
ATOM      6  C   UNL     1       1.376   2.748  21.539  0.00  0.00    +0.000 A 
ATOM      7  F   UNL     1       0.680   2.649  22.680  0.00  0.00    +0.000 F 
ATOM      8  C   UNL     1       0.722   3.100  20.366  0.00  0.00    +0.000 A 
ATOM      9  C   UNL     1       1.446   3.195  19.176  0.00  0.00    +0.000 A 
ENDBRANCH   2   3
BRANCH   1  11
ATOM     10  O   UNL     1       5.102   5.633  18.958  0.00  0.00    +0.000 OA
ATOM     11  C   UNL     1       4.243   5.342  18.130  0.00  0.00    +0.000 C 
ATOM     12  N   UNL     1       3.237   6.234  17.817  0.00  0.00    +0.000 N 
ATOM     13  H   UNL     1       2.354   5.856  17.504  0.00  0.00    +0.000 HD
BRANCH  12  14
ATOM     14  C   UNL     1       3.196   7.506  18.541  0.00  0.00    +0.000 C 
BRANCH  14  15
ATOM     15  C   UNL     1       1.762   8.079  18.704  0.00  0.00    +0.000 C 
BRANCH  15  16
ATOM     16  N   UNL     1       1.387   9.129  17.732  0.00  0.00    +0.000 NA
ATOM     17  C   UNL     1       2.094  10.401  18.046  0.00  0.00    +0.000 C 
ATOM     18  C   UNL     1       1.565  11.142  19.292  0.00  0.00    +0.000 C 
ATOM     19  O   UNL     1       0.153  11.375  19.210  0.00  0.00    +0.000 OA
ATOM     20  C   UNL     1      -0.552  10.141  19.018  0.00  0.00    +0.000 C 
ATOM     21  C   UNL     1      -0.065   9.434  17.741  0.00  0.00    +0.000 C 
ENDBRANCH  15  16
ENDBRANCH  14  15
ENDBRANCH  12  14
ENDBRANCH   1  11
BRANCH   1  22
ATOM     22  N   UNL     1       4.966   3.939  16.190  0.00  0.00    +0.000 N 
ATOM     23  C   UNL     1       5.398   5.020  15.433  0.00  0.00    +0.000 C 
ATOM     24  O   UNL     1       5.156   6.200  15.668  0.00  0.00    +0.000 OA
ATOM     25  H   UNL     1       4.950   3.047  15.716  0.00  0.00    +0.000 HD
BRANCH  23  26
ATOM     26  C   UNL     1       6.136   4.704  14.176  0.00  0.00    +0.000 A 
ATOM     27  C   UNL     1       5.603   3.723  13.327  0.00  0.00    +0.000 A 
ATOM     28  C   UNL     1       6.236   3.406  12.122  0.00  0.00    +0.000 A 
ATOM     29  C   UNL     1       7.400   4.082  11.758  0.00  0.00    +0.000 A 
ATOM     30  C   UNL     1       7.925   5.076  12.588  0.00  0.00    +0.000 A 
ATOM     31  C   UNL     1       7.294   5.392  13.798  0.00  0.00    +0.000 A 
ENDBRANCH  23  26
ENDBRANCH   1  22
TORSDOF 7
ENDMDL
MODEL 9
REMARK VINA RESULT:      -7.3      3.022      7.844
REMARK  Name = 
REMARK  7 active torsions:
REMARK  status: ('A' for Active; 'I' for Inactive)
REMARK    1  A    between atoms: C_2  and  C_12
REMARK    2  A    between atoms: N_3  and  C_4
REMARK    3  A    between atoms: C_4  and  C_5
REMARK    4  A    between atoms: C_5  and  N_6
REMARK    5  A    between atoms: C_12  and  N_21
REMARK    6  A    between atoms: C_13  and  C_14
REMARK    7  A    between atoms: C_22  and  C_24
REMARK                            x       y       z     vdW  Elec       q    Type
REMARK                         _______ _______ _______ _____ _____    ______ ____
ROOT
ATOM      1  C   UNL     1       2.832   7.654  17.712  0.00  0.00    +0.000 C 
ATOM      2  C   UNL     1       4.050   7.776  17.138  0.00  0.00    +0.000 C 
ENDROOT
BRANCH   2   3
ATOM      3  C   UNL     1       5.130   6.780  17.122  0.00  0.00    +0.000 A 
ATOM      4  C   UNL     1       6.192   6.881  18.031  0.00  0.00    +0.000 A 
ATOM      5  C   UNL     1       7.244   5.965  17.979  0.00  0.00    +0.000 A 
ATOM      6  C   UNL     1       7.231   4.956  17.023  0.00  0.00    +0.000 A 
ATOM      7  F   UNL     1       8.249   4.086  16.968  0.00  0.00    +0.000 F 
ATOM      8  C   UNL     1       6.180   4.836  16.121  0.00  0.00    +0.000 A 
ATOM      9  C   UNL     1       5.123   5.747  16.173  0.00  0.00    +0.000 A 
ENDBRANCH   2   3
BRANCH   1  11
ATOM     10  O   UNL     1       1.878   5.440  17.909  0.00  0.00    +0.000 OA
ATOM     11  C   UNL     1       2.482   6.365  18.444  0.00  0.00    +0.000 C 
ATOM     12  N   UNL     1       2.904   6.266  19.755  0.00  0.00    +0.000 N 
ATOM     13  H   UNL     1       2.990   7.120  20.287  0.00  0.00    +0.000 HD
BRANCH  12  14
ATOM     14  C   UNL     1       2.560   5.052  20.498  0.00  0.00    +0.000 C 
BRANCH  14  15
ATOM     15  C   UNL     1       3.545   3.878  20.253  0.00  0.00    +0.000 C 
BRANCH  15  16
ATOM     16  N   UNL     1       2.971   2.525  20.422  0.00  0.00    +0.000 NA
ATOM     17  C   UNL     1       3.170   1.720  19.185  0.00  0.00    +0.000 C 
ATOM     18  C   UNL     1       2.270   2.127  17.999  0.00  0.00    +0.000 C 
ATOM     19  O   UNL     1       0.884   2.129  18.363  0.00  0.00    +0.000 OA
ATOM     20  C   UNL     1       0.658   2.989  19.488  0.00  0.00    +0.000 C 
ATOM     21  C   UNL     1       1.512   2.544  20.688  0.00  0.00    +0.000 C 
ENDBRANCH  15  16
ENDBRANCH  14  15
ENDBRANCH  12  14
ENDBRANCH   1  11
BRANCH   1  22
ATOM     22  N   UNL     1       1.887   8.683  17.714  0.00  0.00    +0.000 N 
ATOM     23  C   UNL     1       1.314   9.252  18.842  0.00  0.00    +0.000 C 
ATOM     24  O   UNL     1       1.512   8.900  20.001  0.00  0.00    +0.000 OA
ATOM     25  H   UNL     1       1.398   8.839  16.843  0.00  0.00    +0.000 HD
BRANCH  23  26
ATOM     26  C   UNL     1       0.297  10.319  18.611  0.00  0.00    +0.000 A 
ATOM     27  C   UNL     1      -0.860   9.982  17.893  0.00  0.00    +0.000 A 
ATOM     28  C   UNL     1      -1.859  10.933  17.669  0.00  0.00    +0.000 A 
ATOM     29  C   UNL     1      -1.708  12.223  18.177  0.00  0.00    +0.000 A 
ATOM     30  C   UNL     1      -0.568  12.559  18.912  0.00  0.00    +0.000 A 
ATOM     31  C   UNL     1       0.437  11.609  19.132  0.00  0.00    +0.000 A 
ENDBRANCH  23  26
ENDBRANCH   1  22
TORSDOF 7
ENDMDL
