MODEL 1
REMARK VINA RESULT:      -9.1      0.000      0.000
REMARK  Name = 
REMARK  4 active torsions:
REMARK  status: ('A' for Active; 'I' for Inactive)
REMARK    1  A    between atoms: C_7  and  C_8
REMARK    2  A    between atoms: C_11  and  C_12
REMARK    3  A    between atoms: C_15  and  S_16
REMARK    4  A    between atoms: S_16  and  N_19
REMARK                            x       y       z     vdW  Elec       q    Type
REMARK                         _______ _______ _______ _____ _____    ______ ____
ROOT
ATOM      1  C   UNL     1       1.127   9.320  19.800  0.00  0.00    +0.000 A 
ATOM      2  C   UNL     1       1.144   8.494  20.931  0.00  0.00    +0.000 A 
ATOM      3  C   UNL     1       1.779   7.238  20.890  0.00  0.00    +0.000 A 
ATOM      4  C   UNL     1       2.389   6.796  19.708  0.00  0.00    +0.000 A 
ATOM      5  C   UNL     1       2.460   7.655  18.610  0.00  0.00    +0.000 A 
ATOM      6  C   UNL     1       1.819   8.896  18.654  0.00  0.00    +0.000 A 
ENDROOT
BRANCH   1  10
ATOM      7  C   UNL     1      -1.551  11.619  19.301  0.00  0.00    +0.000 A 
ATOM      8  C   UNL     1      -0.683  12.540  19.872  0.00  0.00    +0.000 A 
ATOM      9  C   UNL     1       0.532  11.863  20.178  0.00  0.00    +0.000 A 
ATOM     10  C   UNL     1       0.367  10.563  19.759  0.00  0.00    +0.000 A 
ATOM     11  O   UNL     1      -0.864  10.434  19.194  0.00  0.00    +0.000 OA
BRANCH   7  18
ATOM     12  N   UNL     1      -3.776  10.078  14.162  0.00  0.00    +0.000 NA
ATOM     13  C   UNL     1      -3.791  10.593  15.332  0.00  0.00    +0.000 C 
ATOM     14  N   UNL     1      -4.883  11.119  15.932  0.00  0.00    +0.000 N 
ATOM     15  C   UNL     1      -4.722  11.606  17.196  0.00  0.00    +0.000 C 
ATOM     16  O   UNL     1      -5.614  12.104  17.865  0.00  0.00    +0.000 OA
ATOM     17  C   UNL     1      -3.308  11.430  17.635  0.00  0.00    +0.000 C 
ATOM     18  C   UNL     1      -2.899  11.776  18.868  0.00  0.00    +0.000 C 
ATOM     19  S   UNL     1      -2.404  10.694  16.355  0.00  0.00    +0.000 S 
ATOM     20  H   UNL     1      -4.700  10.112  13.732  0.00  0.00    +0.000 HD
ATOM     21  H   UNL     1      -5.788  11.158  15.493  0.00  0.00    +0.000 HD
ENDBRANCH   7  18
ENDBRANCH   1  10
BRANCH   4  22
ATOM     22  S   UNL     1       3.269   5.239  19.646  0.00  0.00    +0.000 S 
ATOM     23  O   UNL     1       4.672   5.563  19.484  0.00  0.00    +0.000 OA
ATOM     24  O   UNL     1       2.818   4.470  20.793  0.00  0.00    +0.000 OA
BRANCH  22  25
ATOM     25  N   UNL     1       2.772   4.420  18.262  0.00  0.00    +0.000 NA
ATOM     26  C   UNL     1       3.690   3.518  17.539  0.00  0.00    +0.000 C 
ATOM     27  C   UNL     1       3.520   2.066  18.017  0.00  0.00    +0.000 C 
ATOM     28  N   UNL     1       2.136   1.570  18.070  0.00  0.00    +0.000 NA
ATOM     29  C   UNL     1       1.152   2.551  18.554  0.00  0.00    +0.000 C 
ATOM     30  C   UNL     1       1.366   3.995  18.078  0.00  0.00    +0.000 C 
ATOM     31  H   UNL     1       2.101   0.747  18.677  0.00  0.00    +0.000 HD
ENDBRANCH  22  25
ENDBRANCH   4  22
TORSDOF 4
ENDMDL
MODEL 2
REMARK VINA RESULT:      -9.1      0.875      1.361
REMARK  Name = 
REMARK  4 active torsions:
REMARK  status: ('A' for Active; 'I' for Inactive)
REMARK    1  A    between atoms: C_7  and  C_8
REMARK    2  A    between atoms: C_11  and  C_12
REMARK    3  A    between atoms: C_15  and  S_16
REMARK    4  A    between atoms: S_16  and  N_19
REMARK                            x       y       z     vdW  Elec       q    Type
REMARK                         _______ _______ _______ _____ _____    ______ ____
ROOT
ATOM      1  C   UNL     1       1.192   9.191  19.701  0.00  0.00    +0.000 A 
ATOM      2  C   UNL     1       1.408   8.257  20.721  0.00  0.00    +0.000 A 
ATOM      3  C   UNL     1       2.089   7.053  20.457  0.00  0.00    +0.000 A 
ATOM      4  C   UNL     1       2.545   6.773  19.161  0.00  0.00    +0.000 A 
ATOM      5  C   UNL     1       2.419   7.742  18.165  0.00  0.00    +0.000 A 
ATOM      6  C   UNL     1       1.733   8.931  18.432  0.00  0.00    +0.000 A 
ENDROOT
BRANCH   1  10
ATOM      7  C   UNL     1      -1.548  11.467  19.539  0.00  0.00    +0.000 A 
ATOM      8  C   UNL     1      -0.780  12.236  20.404  0.00  0.00    +0.000 A 
ATOM      9  C   UNL     1       0.437  11.537  20.646  0.00  0.00    +0.000 A 
ATOM     10  C   UNL     1       0.376  10.383  19.900  0.00  0.00    +0.000 A 
ATOM     11  O   UNL     1      -0.794  10.368  19.205  0.00  0.00    +0.000 OA
BRANCH   7  18
ATOM     12  N   UNL     1      -3.538  10.094  14.258  0.00  0.00    +0.000 NA
ATOM     13  C   UNL     1      -3.598  10.595  15.433  0.00  0.00    +0.000 C 
ATOM     14  N   UNL     1      -4.697  11.164  15.978  0.00  0.00    +0.000 N 
ATOM     15  C   UNL     1      -4.588  11.628  17.255  0.00  0.00    +0.000 C 
ATOM     16  O   UNL     1      -5.494  12.160  17.879  0.00  0.00    +0.000 OA
ATOM     17  C   UNL     1      -3.211  11.381  17.773  0.00  0.00    +0.000 C 
ATOM     18  C   UNL     1      -2.859  11.692  19.032  0.00  0.00    +0.000 C 
ATOM     19  S   UNL     1      -2.269  10.619  16.536  0.00  0.00    +0.000 S 
ATOM     20  H   UNL     1      -4.433  10.177  13.777  0.00  0.00    +0.000 HD
ATOM     21  H   UNL     1      -5.572  11.251  15.488  0.00  0.00    +0.000 HD
ENDBRANCH   7  18
ENDBRANCH   1  10
BRANCH   4  22
ATOM     22  S   UNL     1       3.479   5.288  18.810  0.00  0.00    +0.000 S 
ATOM     23  O   UNL     1       3.272   4.992  17.406  0.00  0.00    +0.000 OA
ATOM     24  O   UNL     1       4.819   5.518  19.323  0.00  0.00    +0.000 OA
BRANCH  22  25
ATOM     25  N   UNL     1       2.804   4.030  19.701  0.00  0.00    +0.000 NA
ATOM     26  C   UNL     1       1.347   3.794  19.703  0.00  0.00    +0.000 C 
ATOM     27  C   UNL     1       0.959   2.759  18.634  0.00  0.00    +0.000 C 
ATOM     28  N   UNL     1       1.751   1.519  18.630  0.00  0.00    +0.000 NA
ATOM     29  C   UNL     1       3.188   1.710  18.882  0.00  0.00    +0.000 C 
ATOM     30  C   UNL     1       3.541   2.769  19.937  0.00  0.00    +0.000 C 
ATOM     31  H   UNL     1       1.638   1.056  17.724  0.00  0.00    +0.000 HD
ENDBRANCH  22  25
ENDBRANCH   4  22
TORSDOF 4
ENDMDL
MODEL 3
REMARK VINA RESULT:      -9.0      1.920      2.404
REMARK  Name = 
REMARK  4 active torsions:
REMARK  status: ('A' for Active; 'I' for Inactive)
REMARK    1  A    between atoms: C_7  and  C_8
REMARK    2  A    between atoms: C_11  and  C_12
REMARK    3  A    between atoms: C_15  and  S_16
REMARK    4  A    between atoms: S_16  and  N_19
REMARK                            x       y       z     vdW  Elec       q    Type
REMARK                         _______ _______ _______ _____ _____    ______ ____
ROOT
ATOM      1  C   UNL     1       1.481   9.203  19.323  0.00  0.00    +0.000 A 
ATOM      2  C   UNL     1       1.578   8.155  20.247  0.00  0.00    +0.000 A 
ATOM      3  C   UNL     1       2.262   6.970  19.915  0.00  0.00    +0.000 A 
ATOM      4  C   UNL     1       2.840   6.823  18.646  0.00  0.00    +0.000 A 
ATOM      5  C   UNL     1       2.830   7.900  17.759  0.00  0.00    +0.000 A 
ATOM      6  C   UNL     1       2.140   9.070  18.091  0.00  0.00    +0.000 A 
ENDROOT
BRANCH   1  10
ATOM      7  C   UNL     1      -1.300  11.433  19.391  0.00  0.00    +0.000 A 
ATOM      8  C   UNL     1      -0.460  12.236  20.152  0.00  0.00    +0.000 A 
ATOM      9  C   UNL     1       0.788  11.561  20.283  0.00  0.00    +0.000 A 
ATOM     10  C   UNL     1       0.669  10.387  19.577  0.00  0.00    +0.000 A 
ATOM     11  O   UNL     1      -0.566  10.337  19.008  0.00  0.00    +0.000 OA
BRANCH   7  18
ATOM     12  N   UNL     1      -3.743  10.130  14.285  0.00  0.00    +0.000 NA
ATOM     13  C   UNL     1      -3.705  10.598  15.475  0.00  0.00    +0.000 C 
ATOM     14  N   UNL     1      -4.766  11.114  16.138  0.00  0.00    +0.000 N 
ATOM     15  C   UNL     1      -4.549  11.547  17.412  0.00  0.00    +0.000 C 
ATOM     16  O   UNL     1      -5.407  12.030  18.135  0.00  0.00    +0.000 OA
ATOM     17  C   UNL     1      -3.122  11.336  17.789  0.00  0.00    +0.000 C 
ATOM     18  C   UNL     1      -2.660  11.625  19.018  0.00  0.00    +0.000 C 
ATOM     19  S   UNL     1      -2.279  10.639  16.446  0.00  0.00    +0.000 S 
ATOM     20  H   UNL     1      -4.682  10.194  13.894  0.00  0.00    +0.000 HD
ATOM     21  H   UNL     1      -5.686  11.182  15.736  0.00  0.00    +0.000 HD
ENDBRANCH   7  18
ENDBRANCH   1  10
BRANCH   4  22
ATOM     22  S   UNL     1       3.779   5.361  18.220  0.00  0.00    +0.000 S 
ATOM     23  O   UNL     1       4.350   4.862  19.454  0.00  0.00    +0.000 OA
ATOM     24  O   UNL     1       2.894   4.524  17.428  0.00  0.00    +0.000 OA
BRANCH  22  25
ATOM     25  N   UNL     1       5.050   5.835  17.224  0.00  0.00    +0.000 NA
ATOM     26  C   UNL     1       6.335   6.289  17.793  0.00  0.00    +0.000 C 
ATOM     27  C   UNL     1       7.331   5.122  17.895  0.00  0.00    +0.000 C 
ATOM     28  N   UNL     1       7.486   4.308  16.679  0.00  0.00    +0.000 NA
ATOM     29  C   UNL     1       6.234   4.055  15.949  0.00  0.00    +0.000 C 
ATOM     30  C   UNL     1       5.252   5.233  15.888  0.00  0.00    +0.000 C 
ATOM     31  H   UNL     1       7.904   3.409  16.933  0.00  0.00    +0.000 HD
ENDBRANCH  22  25
ENDBRANCH   4  22
TORSDOF 4
ENDMDL
MODEL 4
REMARK VINA RESULT:      -9.0      1.635      2.076
REMARK  Name = 
REMARK  4 active torsions:
REMARK  status: ('A' for Active; 'I' for Inactive)
REMARK    1  A    between atoms: C_7  and  C_8
REMARK    2  A    between atoms: C_11  and  C_12
REMARK    3  A    between atoms: C_15  and  S_16
REMARK    4  A    between atoms: S_16  and  N_19
REMARK                            x       y       z     vdW  Elec       q    Type
REMARK                         _______ _______ _______ _____ _____    ______ ____
ROOT
ATOM      1  C   UNL     1       1.241   9.362  19.120  0.00  0.00    +0.000 A 
ATOM      2  C   UNL     1       1.915   8.800  18.028  0.00  0.00    +0.000 A 
ATOM      3  C   UNL     1       2.574   7.563  18.153  0.00  0.00    +0.000 A 
ATOM      4  C   UNL     1       2.574   6.887  19.382  0.00  0.00    +0.000 A 
ATOM      5  C   UNL     1       1.824   7.394  20.444  0.00  0.00    +0.000 A 
ATOM      6  C   UNL     1       1.180   8.629  20.315  0.00  0.00    +0.000 A 
ENDROOT
BRANCH   1  10
ATOM      7  C   UNL     1      -0.981  12.097  19.658  0.00  0.00    +0.000 A 
ATOM      8  C   UNL     1      -0.015  12.834  18.986  0.00  0.00    +0.000 A 
ATOM      9  C   UNL     1       1.039  11.947  18.627  0.00  0.00    +0.000 A 
ATOM     10  C   UNL     1       0.664  10.700  19.070  0.00  0.00    +0.000 A 
ATOM     11  O   UNL     1      -0.566  10.788  19.647  0.00  0.00    +0.000 OA
BRANCH   7  18
ATOM     12  N   UNL     1      -6.359  11.352  17.593  0.00  0.00    +0.000 NA
ATOM     13  C   UNL     1      -5.472  11.774  18.412  0.00  0.00    +0.000 C 
ATOM     14  N   UNL     1      -5.732  12.438  19.561  0.00  0.00    +0.000 N 
ATOM     15  C   UNL     1      -4.662  12.794  20.328  0.00  0.00    +0.000 C 
ATOM     16  O   UNL     1      -4.740  13.391  21.391  0.00  0.00    +0.000 OA
ATOM     17  C   UNL     1      -3.397  12.343  19.682  0.00  0.00    +0.000 C 
ATOM     18  C   UNL     1      -2.199  12.519  20.265  0.00  0.00    +0.000 C 
ATOM     19  S   UNL     1      -3.774  11.555  18.186  0.00  0.00    +0.000 S 
ATOM     20  H   UNL     1      -7.298  11.580  17.918  0.00  0.00    +0.000 HD
ATOM     21  H   UNL     1      -6.664  12.667  19.866  0.00  0.00    +0.000 HD
ENDBRANCH   7  18
ENDBRANCH   1  10
BRANCH   4  22
ATOM     22  S   UNL     1       3.338   5.278  19.554  0.00  0.00    +0.000 S 
ATOM     23  O   UNL     1       4.768   5.486  19.447  0.00  0.00    +0.000 OA
ATOM     24  O   UNL     1       2.770   4.683  20.751  0.00  0.00    +0.000 OA
BRANCH  22  25
ATOM     25  N   UNL     1       2.860   4.336  18.244  0.00  0.00    +0.000 NA
ATOM     26  C   UNL     1       3.741   3.284  17.700  0.00  0.00    +0.000 C 
ATOM     27  C   UNL     1       3.419   1.920  18.331  0.00  0.00    +0.000 C 
ATOM     28  N   UNL     1       1.997   1.542  18.344  0.00  0.00    +0.000 NA
ATOM     29  C   UNL     1       1.072   2.648  18.638  0.00  0.00    +0.000 C 
ATOM     30  C   UNL     1       1.437   4.002  18.012  0.00  0.00    +0.000 C 
ATOM     31  H   UNL     1       1.856   0.804  19.039  0.00  0.00    +0.000 HD
ENDBRANCH  22  25
ENDBRANCH   4  22
TORSDOF 4
ENDMDL
MODEL 5
REMARK VINA RESULT:      -8.9      3.782      9.601
REMARK  Name = 
REMARK  4 active torsions:
REMARK  status: ('A' for Active; 'I' for Inactive)
REMARK    1  A    between atoms: C_7  and  C_8
REMARK    2  A    between atoms: C_11  and  C_12
REMARK    3  A    between atoms: C_15  and  S_16
REMARK    4  A    between atoms: S_16  and  N_19
REMARK                            x       y       z     vdW  Elec       q    Type
REMARK                         _______ _______ _______ _____ _____    ______ ____
ROOT
ATOM      1  C   UNL     1       1.781   7.957  19.633  0.00  0.00    +0.000 A 
ATOM      2  C   UNL     1       1.790   8.760  18.485  0.00  0.00    +0.000 A 
ATOM      3  C   UNL     1       1.069   9.969  18.452  0.00  0.00    +0.000 A 
ATOM      4  C   UNL     1       0.322  10.374  19.567  0.00  0.00    +0.000 A 
ATOM      5  C   UNL     1       0.389   9.628  20.745  0.00  0.00    +0.000 A 
ATOM      6  C   UNL     1       1.098   8.423  20.767  0.00  0.00    +0.000 A 
ENDROOT
BRANCH   1  10
ATOM      7  C   UNL     1       4.230   5.376  19.407  0.00  0.00    +0.000 A 
ATOM      8  C   UNL     1       3.208   4.557  19.867  0.00  0.00    +0.000 A 
ATOM      9  C   UNL     1       2.048   5.364  20.044  0.00  0.00    +0.000 A 
ATOM     10  C   UNL     1       2.400   6.638  19.662  0.00  0.00    +0.000 A 
ATOM     11  O   UNL     1       3.694   6.630  19.238  0.00  0.00    +0.000 OA
BRANCH   7  18
ATOM     12  N   UNL     1       6.659   4.745  14.169  0.00  0.00    +0.000 NA
ATOM     13  C   UNL     1       6.627   4.744  15.447  0.00  0.00    +0.000 C 
ATOM     14  N   UNL     1       7.691   4.513  16.249  0.00  0.00    +0.000 N 
ATOM     15  C   UNL     1       7.479   4.573  17.594  0.00  0.00    +0.000 C 
ATOM     16  O   UNL     1       8.342   4.394  18.440  0.00  0.00    +0.000 OA
ATOM     17  C   UNL     1       6.051   4.897  17.873  0.00  0.00    +0.000 C 
ATOM     18  C   UNL     1       5.592   5.072  19.124  0.00  0.00    +0.000 C 
ATOM     19  S   UNL     1       5.201   5.049  16.371  0.00  0.00    +0.000 S 
ATOM     20  H   UNL     1       7.599   4.550  13.824  0.00  0.00    +0.000 HD
ATOM     21  H   UNL     1       8.612   4.310  15.896  0.00  0.00    +0.000 HD
ENDBRANCH   7  18
ENDBRANCH   1  10
BRANCH   4  22
ATOM     22  S   UNL     1      -0.543  11.940  19.583  0.00  0.00    +0.000 S 
ATOM     23  O   UNL     1      -0.838  12.263  18.202  0.00  0.00    +0.000 OA
ATOM     24  O   UNL     1      -1.617  11.802  20.552  0.00  0.00    +0.000 OA
BRANCH  22  25
ATOM     25  N   UNL     1       0.518  13.109  20.166  0.00  0.00    +0.000 NA
ATOM     26  C   UNL     1       1.968  13.019  19.908  0.00  0.00    +0.000 C 
ATOM     27  C   UNL     1       2.352  13.820  18.652  0.00  0.00    +0.000 C 
ATOM     28  N   UNL     1       1.832  15.194  18.589  0.00  0.00    +0.000 NA
ATOM     29  C   UNL     1       0.457  15.352  19.086  0.00  0.00    +0.000 C 
ATOM     30  C   UNL     1       0.100  14.520  20.326  0.00  0.00    +0.000 C 
ATOM     31  H   UNL     1       1.868  15.518  17.619  0.00  0.00    +0.000 HD
ENDBRANCH  22  25
ENDBRANCH   4  22
TORSDOF 4
ENDMDL
MODEL 6
REMARK VINA RESULT:      -8.9      3.686      9.651
REMARK  Name = 
REMARK  4 active torsions:
REMARK  status: ('A' for Active; 'I' for Inactive)
REMARK    1  A    between atoms: C_7  and  C_8
REMARK    2  A    between atoms: C_11  and  C_12
REMARK    3  A    between atoms: C_15  and  S_16
REMARK    4  A    between atoms: S_16  and  N_19
REMARK                            x       y       z     vdW  Elec       q    Type
REMARK                         _______ _______ _______ _____ _____    ______ ____
ROOT
ATOM      1  C   UNL     1       1.712   7.638  19.999  0.00  0.00    +0.000 A 
ATOM      2  C   UNL     1       1.189   8.054  21.229  0.00  0.00    +0.000 A 
ATOM      3  C   UNL     1       0.694   9.362  21.391  0.00  0.00    +0.000 A 
ATOM      4  C   UNL     1       0.736  10.267  20.321  0.00  0.00    +0.000 A 
ATOM      5  C   UNL     1       1.166   9.828  19.067  0.00  0.00    +0.000 A 
ATOM      6  C   UNL     1       1.665   8.531  18.917  0.00  0.00    +0.000 A 
ENDROOT
BRANCH   1  10
ATOM      7  C   UNL     1       4.216   5.167  19.415  0.00  0.00    +0.000 A 
ATOM      8  C   UNL     1       3.201   4.268  19.715  0.00  0.00    +0.000 A 
ATOM      9  C   UNL     1       2.022   5.017  19.993  0.00  0.00    +0.000 A 
ATOM     10  C   UNL     1       2.356   6.341  19.829  0.00  0.00    +0.000 A 
ATOM     11  O   UNL     1       3.658   6.422  19.439  0.00  0.00    +0.000 OA
BRANCH   7  18
ATOM     12  N   UNL     1       6.630   4.732  14.150  0.00  0.00    +0.000 NA
ATOM     13  C   UNL     1       6.608   4.710  15.429  0.00  0.00    +0.000 C 
ATOM     14  N   UNL     1       7.689   4.521  16.219  0.00  0.00    +0.000 N 
ATOM     15  C   UNL     1       7.485   4.551  17.567  0.00  0.00    +0.000 C 
ATOM     16  O   UNL     1       8.362   4.401  18.404  0.00  0.00    +0.000 OA
ATOM     17  C   UNL     1       6.045   4.799  17.861  0.00  0.00    +0.000 C 
ATOM     18  C   UNL     1       5.588   4.934  19.118  0.00  0.00    +0.000 C 
ATOM     19  S   UNL     1       5.176   4.931  16.368  0.00  0.00    +0.000 S 
ATOM     20  H   UNL     1       7.575   4.588  13.796  0.00  0.00    +0.000 HD
ATOM     21  H   UNL     1       8.615   4.368  15.857  0.00  0.00    +0.000 HD
ENDBRANCH   7  18
ENDBRANCH   1  10
BRANCH   4  22
ATOM     22  S   UNL     1       0.048  11.912  20.472  0.00  0.00    +0.000 S 
ATOM     23  O   UNL     1      -1.363  11.799  20.164  0.00  0.00    +0.000 OA
ATOM     24  O   UNL     1       0.481  12.419  21.762  0.00  0.00    +0.000 OA
BRANCH  22  25
ATOM     25  N   UNL     1       0.753  12.877  19.286  0.00  0.00    +0.000 NA
ATOM     26  C   UNL     1      -0.072  13.735  18.412  0.00  0.00    +0.000 C 
ATOM     27  C   UNL     1      -0.185  15.156  18.988  0.00  0.00    +0.000 C 
ATOM     28  N   UNL     1       1.084  15.783  19.391  0.00  0.00    +0.000 NA
ATOM     29  C   UNL     1       2.036  14.872  20.046  0.00  0.00    +0.000 C 
ATOM     30  C   UNL     1       2.104  13.453  19.462  0.00  0.00    +0.000 C 
ATOM     31  H   UNL     1       0.883  16.558  20.029  0.00  0.00    +0.000 HD
ENDBRANCH  22  25
ENDBRANCH   4  22
TORSDOF 4
ENDMDL
MODEL 7
REMARK VINA RESULT:      -8.9      0.758      1.226
REMARK  Name = 
REMARK  4 active torsions:
REMARK  status: ('A' for Active; 'I' for Inactive)
REMARK    1  A    between atoms: C_7  and  C_8
REMARK    2  A    between atoms: C_11  and  C_12
REMARK    3  A    between atoms: C_15  and  S_16
REMARK    4  A    between atoms: S_16  and  N_19
REMARK                            x       y       z     vdW  Elec       q    Type
REMARK                         _______ _______ _______ _____ _____    ______ ____
ROOT
ATOM      1  C   UNL     1       1.396   8.914  19.319  0.00  0.00    +0.000 A 
ATOM      2  C   UNL     1       2.062   8.776  18.094  0.00  0.00    +0.000 A 
ATOM      3  C   UNL     1       2.890   7.663  17.852  0.00  0.00    +0.000 A 
ATOM      4  C   UNL     1       3.065   6.687  18.844  0.00  0.00    +0.000 A 
ATOM      5  C   UNL     1       2.328   6.770  20.026  0.00  0.00    +0.000 A 
ATOM      6  C   UNL     1       1.516   7.883  20.264  0.00  0.00    +0.000 A 
ENDROOT
BRANCH   1  10
ATOM      7  C   UNL     1      -1.267  11.276  19.533  0.00  0.00    +0.000 A 
ATOM      8  C   UNL     1      -0.403  11.965  20.374  0.00  0.00    +0.000 A 
ATOM      9  C   UNL     1       0.806  11.216  20.467  0.00  0.00    +0.000 A 
ATOM     10  C   UNL     1       0.641  10.114  19.660  0.00  0.00    +0.000 A 
ATOM     11  O   UNL     1      -0.583  10.178  19.069  0.00  0.00    +0.000 OA
BRANCH   7  18
ATOM     12  N   UNL     1      -3.799  10.120  14.435  0.00  0.00    +0.000 NA
ATOM     13  C   UNL     1      -3.726  10.595  15.620  0.00  0.00    +0.000 C 
ATOM     14  N   UNL     1      -4.743  11.199  16.276  0.00  0.00    +0.000 N 
ATOM     15  C   UNL     1      -4.494  11.626  17.547  0.00  0.00    +0.000 C 
ATOM     16  O   UNL     1      -5.313  12.183  18.264  0.00  0.00    +0.000 OA
ATOM     17  C   UNL     1      -3.089  11.307  17.928  0.00  0.00    +0.000 C 
ATOM     18  C   UNL     1      -2.607  11.571  19.155  0.00  0.00    +0.000 C 
ATOM     19  S   UNL     1      -2.302  10.533  16.593  0.00  0.00    +0.000 S 
ATOM     20  H   UNL     1      -4.730  10.254  14.042  0.00  0.00    +0.000 HD
ATOM     21  H   UNL     1      -5.655  11.336  15.873  0.00  0.00    +0.000 HD
ENDBRANCH   7  18
ENDBRANCH   1  10
BRANCH   4  22
ATOM     22  S   UNL     1       4.049   5.225  18.539  0.00  0.00    +0.000 S 
ATOM     23  O   UNL     1       5.147   5.635  17.688  0.00  0.00    +0.000 OA
ATOM     24  O   UNL     1       4.309   4.630  19.839  0.00  0.00    +0.000 OA
BRANCH  22  25
ATOM     25  N   UNL     1       3.105   4.139  17.666  0.00  0.00    +0.000 NA
ATOM     26  C   UNL     1       3.607   2.793  17.328  0.00  0.00    +0.000 C 
ATOM     27  C   UNL     1       3.168   1.763  18.383  0.00  0.00    +0.000 C 
ATOM     28  N   UNL     1       1.740   1.782  18.736  0.00  0.00    +0.000 NA
ATOM     29  C   UNL     1       1.150   3.127  18.830  0.00  0.00    +0.000 C 
ATOM     30  C   UNL     1       1.629   4.136  17.777  0.00  0.00    +0.000 C 
ATOM     31  H   UNL     1       1.614   1.307  19.634  0.00  0.00    +0.000 HD
ENDBRANCH  22  25
ENDBRANCH   4  22
TORSDOF 4
ENDMDL
MODEL 8
REMARK VINA RESULT:      -8.9      3.646      9.632
REMARK  Name = 
REMARK  4 active torsions:
REMARK  status: ('A' for Active; 'I' for Inactive)
REMARK    1  A    between atoms: C_7  and  C_8
REMARK    2  A    between atoms: C_11  and  C_12
REMARK    3  A    between atoms: C_15  and  S_16
REMARK    4  A    between atoms: S_16  and  N_19
REMARK                            x       y       z     vdW  Elec       q    Type
REMARK                         _______ _______ _______ _____ _____    ______ ____
ROOT
ATOM      1  C   UNL     1       1.760   7.689  19.922  0.00  0.00    +0.000 A 
ATOM      2  C   UNL     1       1.205   8.091  21.143  0.00  0.00    +0.000 A 
ATOM      3  C   UNL     1       0.752   9.411  21.324  0.00  0.00    +0.000 A 
ATOM      4  C   UNL     1       0.866  10.343  20.283  0.00  0.00    +0.000 A 
ATOM      5  C   UNL     1       1.327   9.923  19.034  0.00  0.00    +0.000 A 
ATOM      6  C   UNL     1       1.785   8.613  18.865  0.00  0.00    +0.000 A 
ENDROOT
BRANCH   1  10
ATOM      7  C   UNL     1       4.189   5.147  19.335  0.00  0.00    +0.000 A 
ATOM      8  C   UNL     1       3.140   4.277  19.600  0.00  0.00    +0.000 A 
ATOM      9  C   UNL     1       1.981   5.060  19.872  0.00  0.00    +0.000 A 
ATOM     10  C   UNL     1       2.363   6.375  19.738  0.00  0.00    +0.000 A 
ATOM     11  O   UNL     1       3.673   6.420  19.373  0.00  0.00    +0.000 OA
BRANCH   7  18
ATOM     12  N   UNL     1       6.769   5.138  14.131  0.00  0.00    +0.000 NA
ATOM     13  C   UNL     1       6.699   4.984  15.399  0.00  0.00    +0.000 C 
ATOM     14  N   UNL     1       7.740   4.655  16.198  0.00  0.00    +0.000 N 
ATOM     15  C   UNL     1       7.489   4.554  17.534  0.00  0.00    +0.000 C 
ATOM     16  O   UNL     1       8.327   4.271  18.377  0.00  0.00    +0.000 OA
ATOM     17  C   UNL     1       6.053   4.847  17.808  0.00  0.00    +0.000 C 
ATOM     18  C   UNL     1       5.559   4.873  19.058  0.00  0.00    +0.000 C 
ATOM     19  S   UNL     1       5.247   5.181  16.312  0.00  0.00    +0.000 S 
ATOM     20  H   UNL     1       7.719   4.982  13.794  0.00  0.00    +0.000 HD
ATOM     21  H   UNL     1       8.671   4.492  15.850  0.00  0.00    +0.000 HD
ENDBRANCH   7  18
ENDBRANCH   1  10
BRANCH   4  22
ATOM     22  S   UNL     1       0.231  12.007  20.455  0.00  0.00    +0.000 S 
ATOM     23  O   UNL     1       1.188  12.732  21.267  0.00  0.00    +0.000 OA
ATOM     24  O   UNL     1      -0.089  12.462  19.113  0.00  0.00    +0.000 OA
BRANCH  22  25
ATOM     25  N   UNL     1      -1.211  11.923  21.319  0.00  0.00    +0.000 NA
ATOM     26  C   UNL     1      -1.222  12.000  22.793  0.00  0.00    +0.000 C 
ATOM     27  C   UNL     1      -1.449  13.447  23.264  0.00  0.00    +0.000 C 
ATOM     28  N   UNL     1      -2.574  14.153  22.633  0.00  0.00    +0.000 NA
ATOM     29  C   UNL     1      -2.737  13.886  21.196  0.00  0.00    +0.000 C 
ATOM     30  C   UNL     1      -2.479  12.438  20.757  0.00  0.00    +0.000 C 
ATOM     31  H   UNL     1      -2.451  15.160  22.766  0.00  0.00    +0.000 HD
ENDBRANCH  22  25
ENDBRANCH   4  22
TORSDOF 4
ENDMDL
MODEL 9
REMARK VINA RESULT:      -8.9      2.728      3.397
REMARK  Name = 
REMARK  4 active torsions:
REMARK  status: ('A' for Active; 'I' for Inactive)
REMARK    1  A    between atoms: C_7  and  C_8
REMARK    2  A    between atoms: C_11  and  C_12
REMARK    3  A    between atoms: C_15  and  S_16
REMARK    4  A    between atoms: S_16  and  N_19
REMARK                            x       y       z     vdW  Elec       q    Type
REMARK                         _______ _______ _______ _____ _____    ______ ____
ROOT
ATOM      1  C   UNL     1       1.211   9.398  19.119  0.00  0.00    +0.000 A 
ATOM      2  C   UNL     1       1.879   8.851  18.016  0.00  0.00    +0.000 A 
ATOM      3  C   UNL     1       2.555   7.622  18.126  0.00  0.00    +0.000 A 
ATOM      4  C   UNL     1       2.579   6.938  19.350  0.00  0.00    +0.000 A 
ATOM      5  C   UNL     1       1.834   7.429  20.424  0.00  0.00    +0.000 A 
ATOM      6  C   UNL     1       1.173   8.656  20.310  0.00  0.00    +0.000 A 
ENDROOT
BRANCH   1  10
ATOM      7  C   UNL     1      -1.197  12.020  19.311  0.00  0.00    +0.000 A 
ATOM      8  C   UNL     1      -0.104  12.851  19.104  0.00  0.00    +0.000 A 
ATOM      9  C   UNL     1       1.052  12.028  18.977  0.00  0.00    +0.000 A 
ATOM     10  C   UNL     1       0.615  10.728  19.085  0.00  0.00    +0.000 A 
ATOM     11  O   UNL     1      -0.737  10.727  19.240  0.00  0.00    +0.000 OA
BRANCH   7  18
ATOM     12  N   UNL     1      -3.808  12.622  24.465  0.00  0.00    +0.000 NA
ATOM     13  C   UNL     1      -3.743  12.579  23.188  0.00  0.00    +0.000 C 
ATOM     14  N   UNL     1      -4.778  12.817  22.351  0.00  0.00    +0.000 N 
ATOM     15  C   UNL     1      -4.522  12.750  21.013  0.00  0.00    +0.000 C 
ATOM     16  O   UNL     1      -5.352  12.946  20.138  0.00  0.00    +0.000 OA
ATOM     17  C   UNL     1      -3.088  12.413  20.783  0.00  0.00    +0.000 C 
ATOM     18  C   UNL     1      -2.563  12.345  19.547  0.00  0.00    +0.000 C 
ATOM     19  S   UNL     1      -2.300  12.213  22.313  0.00  0.00    +0.000 S 
ATOM     20  H   UNL     1      -4.748  12.863  24.777  0.00  0.00    +0.000 HD
ATOM     21  H   UNL     1      -5.704  13.043  22.672  0.00  0.00    +0.000 HD
ENDBRANCH   7  18
ENDBRANCH   1  10
BRANCH   4  22
ATOM     22  S   UNL     1       3.366   5.339  19.503  0.00  0.00    +0.000 S 
ATOM     23  O   UNL     1       4.792   5.567  19.388  0.00  0.00    +0.000 OA
ATOM     24  O   UNL     1       2.813   4.725  20.697  0.00  0.00    +0.000 OA
BRANCH  22  25
ATOM     25  N   UNL     1       2.891   4.403  18.187  0.00  0.00    +0.000 NA
ATOM     26  C   UNL     1       3.780   3.362  17.633  0.00  0.00    +0.000 C 
ATOM     27  C   UNL     1       3.471   1.990  18.256  0.00  0.00    +0.000 C 
ATOM     28  N   UNL     1       2.052   1.600  18.269  0.00  0.00    +0.000 NA
ATOM     29  C   UNL     1       1.119   2.696  18.573  0.00  0.00    +0.000 C 
ATOM     30  C   UNL     1       1.471   4.058  17.956  0.00  0.00    +0.000 C 
ATOM     31  H   UNL     1       1.919   0.857  18.959  0.00  0.00    +0.000 HD
ENDBRANCH  22  25
ENDBRANCH   4  22
TORSDOF 4
ENDMDL
