MODEL 1
REMARK VINA RESULT:      -7.0      0.000      0.000
REMARK  Name = 
REMARK  2 active torsions:
REMARK  status: ('A' for Active; 'I' for Inactive)
REMARK    1  A    between atoms: C_4  and  C_5
REMARK    2  A    between atoms: N_13  and  C_14
REMARK                            x       y       z     vdW  Elec       q    Type
REMARK                         _______ _______ _______ _____ _____    ______ ____
ROOT
ATOM      1  O   UNL     1       4.605   5.180  19.290  0.00  0.00    +0.000 OA
ATOM      2  C   UNL     1       4.919   4.766  18.187  0.00  0.00    +0.000 C 
ATOM      3  C   UNL     1       4.263   3.636  17.450  0.00  0.00    +0.000 C 
ATOM      4  C   UNL     1       3.203   2.913  17.830  0.00  0.00    +0.000 C 
ATOM      5  N   UNL     1       4.961   3.465  16.288  0.00  0.00    +0.000 N 
ATOM      6  C   UNL     1       6.001   4.388  16.207  0.00  0.00    +0.000 C 
ATOM      7  S   UNL     1       6.961   4.480  14.854  0.00  0.00    +0.000 S 
ATOM      8  N   UNL     1       5.965   5.165  17.362  0.00  0.00    +0.000 N 
ATOM      9  H   UNL     1       4.743   2.804  15.553  0.00  0.00    +0.000 HD
ENDROOT
BRANCH   8  10
ATOM     10  C   UNL     1       6.828   6.221  17.728  0.00  0.00    +0.000 A 
ATOM     11  C   UNL     1       7.766   6.072  18.760  0.00  0.00    +0.000 A 
ATOM     12  C   UNL     1       8.548   7.159  19.160  0.00  0.00    +0.000 A 
ATOM     13  C   UNL     1       8.428   8.389  18.513  0.00  0.00    +0.000 A 
ATOM     14  C   UNL     1       7.516   8.539  17.472  0.00  0.00    +0.000 A 
ATOM     15  C   UNL     1       6.710   7.466  17.095  0.00  0.00    +0.000 A 
ENDBRANCH   8  10
BRANCH   4  16
ATOM     16  C   UNL     1       2.483   3.079  19.052  0.00  0.00    +0.000 A 
ATOM     17  C   UNL     1       1.348   3.926  19.221  0.00  0.00    +0.000 A 
ATOM     18  C   UNL     1       0.857   3.876  20.509  0.00  0.00    +0.000 A 
ATOM     19  S   UNL     1       1.766   2.823  21.505  0.00  0.00    +0.000 S 
ATOM     20  C   UNL     1       2.818   2.420  20.214  0.00  0.00    +0.000 A 
ENDBRANCH   4  16
TORSDOF 2
ENDMDL
MODEL 2
REMARK VINA RESULT:      -6.9      0.103      1.112
REMARK  Name = 
REMARK  2 active torsions:
REMARK  status: ('A' for Active; 'I' for Inactive)
REMARK    1  A    between atoms: C_4  and  C_5
REMARK    2  A    between atoms: N_13  and  C_14
REMARK                            x       y       z     vdW  Elec       q    Type
REMARK                         _______ _______ _______ _____ _____    ______ ____
ROOT
ATOM      1  O   UNL     1       4.505   5.163  19.295  0.00  0.00    +0.000 OA
ATOM      2  C   UNL     1       4.856   4.759  18.199  0.00  0.00    +0.000 C 
ATOM      3  C   UNL     1       4.258   3.604  17.453  0.00  0.00    +0.000 C 
ATOM      4  C   UNL     1       3.218   2.842  17.814  0.00  0.00    +0.000 C 
ATOM      5  N   UNL     1       4.985   3.457  16.306  0.00  0.00    +0.000 N 
ATOM      6  C   UNL     1       5.991   4.418  16.244  0.00  0.00    +0.000 C 
ATOM      7  S   UNL     1       6.974   4.542  14.909  0.00  0.00    +0.000 S 
ATOM      8  N   UNL     1       5.902   5.195  17.395  0.00  0.00    +0.000 N 
ATOM      9  H   UNL     1       4.806   2.786  15.568  0.00  0.00    +0.000 HD
ENDROOT
BRANCH   8  10
ATOM     10  C   UNL     1       6.719   6.283  17.775  0.00  0.00    +0.000 A 
ATOM     11  C   UNL     1       6.611   7.531  17.142  0.00  0.00    +0.000 A 
ATOM     12  C   UNL     1       7.489   8.565  17.475  0.00  0.00    +0.000 A 
ATOM     13  C   UNL     1       8.456   8.377  18.464  0.00  0.00    +0.000 A 
ATOM     14  C   UNL     1       8.554   7.150  19.113  0.00  0.00    +0.000 A 
ATOM     15  C   UNL     1       7.702   6.105  18.757  0.00  0.00    +0.000 A 
ENDBRANCH   8  10
BRANCH   4  16
ATOM     16  C   UNL     1       2.468   2.985  19.021  0.00  0.00    +0.000 A 
ATOM     17  C   UNL     1       1.267   3.743  19.150  0.00  0.00    +0.000 A 
ATOM     18  C   UNL     1       0.761   3.689  20.432  0.00  0.00    +0.000 A 
ATOM     19  S   UNL     1       1.734   2.740  21.471  0.00  0.00    +0.000 S 
ATOM     20  C   UNL     1       2.835   2.387  20.206  0.00  0.00    +0.000 A 
ENDBRANCH   4  16
TORSDOF 2
ENDMDL
MODEL 3
REMARK VINA RESULT:      -6.4      2.765      6.440
REMARK  Name = 
REMARK  2 active torsions:
REMARK  status: ('A' for Active; 'I' for Inactive)
REMARK    1  A    between atoms: C_4  and  C_5
REMARK    2  A    between atoms: N_13  and  C_14
REMARK                            x       y       z     vdW  Elec       q    Type
REMARK                         _______ _______ _______ _____ _____    ______ ____
ROOT
ATOM      1  O   UNL     1       4.160   4.265  17.691  0.00  0.00    +0.000 OA
ATOM      2  C   UNL     1       3.702   5.354  17.993  0.00  0.00    +0.000 C 
ATOM      3  C   UNL     1       4.063   6.667  17.366  0.00  0.00    +0.000 C 
ATOM      4  C   UNL     1       4.903   6.887  16.347  0.00  0.00    +0.000 C 
ATOM      5  N   UNL     1       3.368   7.631  18.040  0.00  0.00    +0.000 N 
ATOM      6  C   UNL     1       2.586   7.055  19.038  0.00  0.00    +0.000 C 
ATOM      7  S   UNL     1       1.555   7.979  19.958  0.00  0.00    +0.000 S 
ATOM      8  N   UNL     1       2.800   5.680  18.999  0.00  0.00    +0.000 N 
ATOM      9  H   UNL     1       3.365   8.622  17.830  0.00  0.00    +0.000 HD
ENDROOT
BRANCH   8  10
ATOM     10  C   UNL     1       2.231   4.687  19.828  0.00  0.00    +0.000 A 
ATOM     11  C   UNL     1       2.718   4.451  21.122  0.00  0.00    +0.000 A 
ATOM     12  C   UNL     1       2.195   3.405  21.889  0.00  0.00    +0.000 A 
ATOM     13  C   UNL     1       1.162   2.613  21.387  0.00  0.00    +0.000 A 
ATOM     14  C   UNL     1       0.657   2.856  20.113  0.00  0.00    +0.000 A 
ATOM     15  C   UNL     1       1.201   3.876  19.334  0.00  0.00    +0.000 A 
ENDBRANCH   8  10
BRANCH   4  16
ATOM     16  C   UNL     1       5.643   5.883  15.653  0.00  0.00    +0.000 A 
ATOM     17  C   UNL     1       6.954   5.445  16.005  0.00  0.00    +0.000 A 
ATOM     18  C   UNL     1       7.410   4.457  15.159  0.00  0.00    +0.000 A 
ATOM     19  S   UNL     1       6.268   4.069  13.944  0.00  0.00    +0.000 S 
ATOM     20  C   UNL     1       5.151   5.218  14.551  0.00  0.00    +0.000 A 
ENDBRANCH   4  16
TORSDOF 2
ENDMDL
MODEL 4
REMARK VINA RESULT:      -6.4      0.536      1.495
REMARK  Name = 
REMARK  2 active torsions:
REMARK  status: ('A' for Active; 'I' for Inactive)
REMARK    1  A    between atoms: C_4  and  C_5
REMARK    2  A    between atoms: N_13  and  C_14
REMARK                            x       y       z     vdW  Elec       q    Type
REMARK                         _______ _______ _______ _____ _____    ______ ____
ROOT
ATOM      1  O   UNL     1       4.772   5.057  19.402  0.00  0.00    +0.000 OA
ATOM      2  C   UNL     1       5.081   4.692  18.280  0.00  0.00    +0.000 C 
ATOM      3  C   UNL     1       4.529   3.499  17.558  0.00  0.00    +0.000 C 
ATOM      4  C   UNL     1       3.580   2.653  17.975  0.00  0.00    +0.000 C 
ATOM      5  N   UNL     1       5.189   3.421  16.364  0.00  0.00    +0.000 N 
ATOM      6  C   UNL     1       6.109   4.461  16.250  0.00  0.00    +0.000 C 
ATOM      7  S   UNL     1       6.988   4.676  14.857  0.00  0.00    +0.000 S 
ATOM      8  N   UNL     1       6.034   5.218  17.416  0.00  0.00    +0.000 N 
ATOM      9  H   UNL     1       5.016   2.745  15.630  0.00  0.00    +0.000 HD
ENDROOT
BRANCH   8  10
ATOM     10  C   UNL     1       6.784   6.365  17.757  0.00  0.00    +0.000 A 
ATOM     11  C   UNL     1       6.578   7.590  17.107  0.00  0.00    +0.000 A 
ATOM     12  C   UNL     1       7.393   8.688  17.401  0.00  0.00    +0.000 A 
ATOM     13  C   UNL     1       8.392   8.583  18.368  0.00  0.00    +0.000 A 
ATOM     14  C   UNL     1       8.588   7.377  19.036  0.00  0.00    +0.000 A 
ATOM     15  C   UNL     1       7.800   6.272  18.718  0.00  0.00    +0.000 A 
ENDBRANCH   8  10
BRANCH   4  16
ATOM     16  C   UNL     1       2.902   2.723  19.230  0.00  0.00    +0.000 A 
ATOM     17  C   UNL     1       3.454   2.317  20.480  0.00  0.00    +0.000 A 
ATOM     18  C   UNL     1       2.570   2.511  21.520  0.00  0.00    +0.000 A 
ATOM     19  S   UNL     1       1.083   3.170  20.988  0.00  0.00    +0.000 S 
ATOM     20  C   UNL     1       1.619   3.207  19.361  0.00  0.00    +0.000 A 
ENDBRANCH   4  16
TORSDOF 2
ENDMDL
MODEL 5
REMARK VINA RESULT:      -6.2      2.774      6.500
REMARK  Name = 
REMARK  2 active torsions:
REMARK  status: ('A' for Active; 'I' for Inactive)
REMARK    1  A    between atoms: C_4  and  C_5
REMARK    2  A    between atoms: N_13  and  C_14
REMARK                            x       y       z     vdW  Elec       q    Type
REMARK                         _______ _______ _______ _____ _____    ______ ____
ROOT
ATOM      1  O   UNL     1       4.198   4.170  17.562  0.00  0.00    +0.000 OA
ATOM      2  C   UNL     1       3.753   5.255  17.895  0.00  0.00    +0.000 C 
ATOM      3  C   UNL     1       4.114   6.579  17.289  0.00  0.00    +0.000 C 
ATOM      4  C   UNL     1       4.937   6.815  16.260  0.00  0.00    +0.000 C 
ATOM      5  N   UNL     1       3.438   7.534  17.997  0.00  0.00    +0.000 N 
ATOM      6  C   UNL     1       2.670   6.942  18.996  0.00  0.00    +0.000 C 
ATOM      7  S   UNL     1       1.664   7.854  19.954  0.00  0.00    +0.000 S 
ATOM      8  N   UNL     1       2.873   5.566  18.924  0.00  0.00    +0.000 N 
ATOM      9  H   UNL     1       3.440   8.528  17.808  0.00  0.00    +0.000 HD
ENDROOT
BRANCH   8  10
ATOM     10  C   UNL     1       2.311   4.561  19.742  0.00  0.00    +0.000 A 
ATOM     11  C   UNL     1       1.200   3.816  19.321  0.00  0.00    +0.000 A 
ATOM     12  C   UNL     1       0.609   2.888  20.184  0.00  0.00    +0.000 A 
ATOM     13  C   UNL     1       1.140   2.670  21.455  0.00  0.00    +0.000 A 
ATOM     14  C   UNL     1       2.258   3.389  21.871  0.00  0.00    +0.000 A 
ATOM     15  C   UNL     1       2.827   4.340  21.026  0.00  0.00    +0.000 A 
ENDBRANCH   8  10
BRANCH   4  16
ATOM     16  C   UNL     1       5.656   5.820  15.532  0.00  0.00    +0.000 A 
ATOM     17  C   UNL     1       6.988   5.399  15.821  0.00  0.00    +0.000 A 
ATOM     18  C   UNL     1       7.416   4.417  14.954  0.00  0.00    +0.000 A 
ATOM     19  S   UNL     1       6.223   4.014  13.794  0.00  0.00    +0.000 S 
ATOM     20  C   UNL     1       5.121   5.148  14.454  0.00  0.00    +0.000 A 
ENDBRANCH   4  16
TORSDOF 2
ENDMDL
MODEL 6
REMARK VINA RESULT:      -6.0     10.559     11.745
REMARK  Name = 
REMARK  2 active torsions:
REMARK  status: ('A' for Active; 'I' for Inactive)
REMARK    1  A    between atoms: C_4  and  C_5
REMARK    2  A    between atoms: N_13  and  C_14
REMARK                            x       y       z     vdW  Elec       q    Type
REMARK                         _______ _______ _______ _____ _____    ______ ____
ROOT
ATOM      1  O   UNL     1      -4.282  12.175  19.810  0.00  0.00    +0.000 OA
ATOM      2  C   UNL     1      -4.326  11.814  18.646  0.00  0.00    +0.000 C 
ATOM      3  C   UNL     1      -5.569  11.639  17.825  0.00  0.00    +0.000 C 
ATOM      4  C   UNL     1      -6.834  11.884  18.187  0.00  0.00    +0.000 C 
ATOM      5  N   UNL     1      -5.173  11.167  16.605  0.00  0.00    +0.000 N 
ATOM      6  C   UNL     1      -3.787  11.031  16.566  0.00  0.00    +0.000 C 
ATOM      7  S   UNL     1      -3.012  10.567  15.171  0.00  0.00    +0.000 S 
ATOM      8  N   UNL     1      -3.291  11.423  17.806  0.00  0.00    +0.000 N 
ATOM      9  H   UNL     1      -5.775  10.984  15.812  0.00  0.00    +0.000 HD
ENDROOT
BRANCH   8  10
ATOM     10  C   UNL     1      -1.945  11.445  18.237  0.00  0.00    +0.000 A 
ATOM     11  C   UNL     1      -1.198  12.632  18.230  0.00  0.00    +0.000 A 
ATOM     12  C   UNL     1       0.156  12.611  18.577  0.00  0.00    +0.000 A 
ATOM     13  C   UNL     1       0.765  11.418  18.967  0.00  0.00    +0.000 A 
ATOM     14  C   UNL     1       0.024  10.240  18.999  0.00  0.00    +0.000 A 
ATOM     15  C   UNL     1      -1.318  10.252  18.619  0.00  0.00    +0.000 A 
ENDBRANCH   8  10
BRANCH   4  16
ATOM     16  C   UNL     1      -7.251  12.361  19.466  0.00  0.00    +0.000 A 
ATOM     17  C   UNL     1      -7.540  11.535  20.592  0.00  0.00    +0.000 A 
ATOM     18  C   UNL     1      -7.910  12.277  21.693  0.00  0.00    +0.000 A 
ATOM     19  S   UNL     1      -7.916  13.957  21.367  0.00  0.00    +0.000 S 
ATOM     20  C   UNL     1      -7.415  13.700  19.748  0.00  0.00    +0.000 A 
ENDBRANCH   4  16
TORSDOF 2
ENDMDL
MODEL 7
REMARK VINA RESULT:      -6.0     10.542     11.674
REMARK  Name = 
REMARK  2 active torsions:
REMARK  status: ('A' for Active; 'I' for Inactive)
REMARK    1  A    between atoms: C_4  and  C_5
REMARK    2  A    between atoms: N_13  and  C_14
REMARK                            x       y       z     vdW  Elec       q    Type
REMARK                         _______ _______ _______ _____ _____    ______ ____
ROOT
ATOM      1  O   UNL     1      -4.225  12.159  19.795  0.00  0.00    +0.000 OA
ATOM      2  C   UNL     1      -4.293  11.801  18.632  0.00  0.00    +0.000 C 
ATOM      3  C   UNL     1      -5.550  11.643  17.830  0.00  0.00    +0.000 C 
ATOM      4  C   UNL     1      -6.806  11.903  18.212  0.00  0.00    +0.000 C 
ATOM      5  N   UNL     1      -5.179  11.167  16.604  0.00  0.00    +0.000 N 
ATOM      6  C   UNL     1      -3.796  11.013  16.542  0.00  0.00    +0.000 C 
ATOM      7  S   UNL     1      -3.050  10.542  15.135  0.00  0.00    +0.000 S 
ATOM      8  N   UNL     1      -3.275  11.397  17.775  0.00  0.00    +0.000 N 
ATOM      9  H   UNL     1      -5.797  10.993  15.820  0.00  0.00    +0.000 HD
ENDROOT
BRANCH   8  10
ATOM     10  C   UNL     1      -1.923  11.402  18.184  0.00  0.00    +0.000 A 
ATOM     11  C   UNL     1      -1.298  10.235  18.649  0.00  0.00    +0.000 A 
ATOM     12  C   UNL     1       0.013  10.285  19.130  0.00  0.00    +0.000 A 
ATOM     13  C   UNL     1       0.722  11.486  19.117  0.00  0.00    +0.000 A 
ATOM     14  C   UNL     1       0.117  12.644  18.635  0.00  0.00    +0.000 A 
ATOM     15  C   UNL     1      -1.203  12.603  18.189  0.00  0.00    +0.000 A 
ENDBRANCH   8  10
BRANCH   4  16
ATOM     16  C   UNL     1      -7.197  12.385  19.498  0.00  0.00    +0.000 A 
ATOM     17  C   UNL     1      -7.354  13.760  19.842  0.00  0.00    +0.000 A 
ATOM     18  C   UNL     1      -7.748  13.919  21.154  0.00  0.00    +0.000 A 
ATOM     19  S   UNL     1      -7.917  12.422  21.964  0.00  0.00    +0.000 S 
ATOM     20  C   UNL     1      -7.471  11.549  20.559  0.00  0.00    +0.000 A 
ENDBRANCH   4  16
TORSDOF 2
ENDMDL
MODEL 8
REMARK VINA RESULT:      -5.9      3.109      5.730
REMARK  Name = 
REMARK  2 active torsions:
REMARK  status: ('A' for Active; 'I' for Inactive)
REMARK    1  A    between atoms: C_4  and  C_5
REMARK    2  A    between atoms: N_13  and  C_14
REMARK                            x       y       z     vdW  Elec       q    Type
REMARK                         _______ _______ _______ _____ _____    ______ ____
ROOT
ATOM      1  O   UNL     1       4.267   6.498  17.116  0.00  0.00    +0.000 OA
ATOM      2  C   UNL     1       3.660   5.695  17.804  0.00  0.00    +0.000 C 
ATOM      3  C   UNL     1       3.849   4.207  17.797  0.00  0.00    +0.000 C 
ATOM      4  C   UNL     1       4.731   3.494  17.086  0.00  0.00    +0.000 C 
ATOM      5  N   UNL     1       2.931   3.688  18.666  0.00  0.00    +0.000 N 
ATOM      6  C   UNL     1       2.175   4.709  19.238  0.00  0.00    +0.000 C 
ATOM      7  S   UNL     1       1.044   4.382  20.410  0.00  0.00    +0.000 S 
ATOM      8  N   UNL     1       2.625   5.914  18.705  0.00  0.00    +0.000 N 
ATOM      9  H   UNL     1       2.829   2.712  18.914  0.00  0.00    +0.000 HD
ENDROOT
BRANCH   8  10
ATOM     10  C   UNL     1       2.152   7.217  18.981  0.00  0.00    +0.000 A 
ATOM     11  C   UNL     1       1.853   7.622  20.289  0.00  0.00    +0.000 A 
ATOM     12  C   UNL     1       1.303   8.886  20.525  0.00  0.00    +0.000 A 
ATOM     13  C   UNL     1       1.083   9.766  19.466  0.00  0.00    +0.000 A 
ATOM     14  C   UNL     1       1.400   9.380  18.166  0.00  0.00    +0.000 A 
ATOM     15  C   UNL     1       1.914   8.107  17.925  0.00  0.00    +0.000 A 
ENDBRANCH   8  10
BRANCH   4  16
ATOM     16  C   UNL     1       5.679   4.033  16.165  0.00  0.00    +0.000 A 
ATOM     17  C   UNL     1       6.960   4.551  16.521  0.00  0.00    +0.000 A 
ATOM     18  C   UNL     1       7.660   4.994  15.419  0.00  0.00    +0.000 A 
ATOM     19  S   UNL     1       6.773   4.795  13.968  0.00  0.00    +0.000 S 
ATOM     20  C   UNL     1       5.449   4.105  14.808  0.00  0.00    +0.000 A 
ENDBRANCH   4  16
TORSDOF 2
ENDMDL
MODEL 9
REMARK VINA RESULT:      -5.9      4.669      6.629
REMARK  Name = 
REMARK  2 active torsions:
REMARK  status: ('A' for Active; 'I' for Inactive)
REMARK    1  A    between atoms: C_4  and  C_5
REMARK    2  A    between atoms: N_13  and  C_14
REMARK                            x       y       z     vdW  Elec       q    Type
REMARK                         _______ _______ _______ _____ _____    ______ ____
ROOT
ATOM      1  O   UNL     1       0.854   7.563  19.906  0.00  0.00    +0.000 OA
ATOM      2  C   UNL     1       1.784   7.347  19.148  0.00  0.00    +0.000 C 
ATOM      3  C   UNL     1       2.403   8.337  18.207  0.00  0.00    +0.000 C 
ATOM      4  C   UNL     1       2.092   9.631  18.055  0.00  0.00    +0.000 C 
ATOM      5  N   UNL     1       3.366   7.668  17.506  0.00  0.00    +0.000 N 
ATOM      6  C   UNL     1       3.428   6.339  17.918  0.00  0.00    +0.000 C 
ATOM      7  S   UNL     1       4.577   5.307  17.306  0.00  0.00    +0.000 S 
ATOM      8  N   UNL     1       2.465   6.160  18.907  0.00  0.00    +0.000 N 
ATOM      9  H   UNL     1       3.991   8.070  16.819  0.00  0.00    +0.000 HD
ENDROOT
BRANCH   8  10
ATOM     10  C   UNL     1       2.154   4.976  19.613  0.00  0.00    +0.000 A 
ATOM     11  C   UNL     1       1.371   3.967  19.034  0.00  0.00    +0.000 A 
ATOM     12  C   UNL     1       1.004   2.845  19.784  0.00  0.00    +0.000 A 
ATOM     13  C   UNL     1       1.443   2.705  21.101  0.00  0.00    +0.000 A 
ATOM     14  C   UNL     1       2.240   3.691  21.675  0.00  0.00    +0.000 A 
ATOM     15  C   UNL     1       2.577   4.827  20.941  0.00  0.00    +0.000 A 
ENDBRANCH   8  10
BRANCH   4  16
ATOM     16  C   UNL     1       1.075  10.327  18.774  0.00  0.00    +0.000 A 
ATOM     17  C   UNL     1      -0.306  10.350  18.420  0.00  0.00    +0.000 A 
ATOM     18  C   UNL     1      -1.052  11.097  19.306  0.00  0.00    +0.000 A 
ATOM     19  S   UNL     1      -0.090  11.774  20.550  0.00  0.00    +0.000 S 
ATOM     20  C   UNL     1       1.332  11.061  19.912  0.00  0.00    +0.000 A 
ENDBRANCH   4  16
TORSDOF 2
ENDMDL
